@<TRIPOS>MOLECULE
*****
 40 43 0 0 0
SMALL
GASTEIGER

@<TRIPOS>ATOM
      1 C           8.6271   -6.9426   28.8675 C.ar    1  UNL1        0.0807
      2 C           9.1097   -6.8348   30.2836 C.ar    1  UNL1        0.0194
      3 C           8.3404   -6.0167   31.2779 C.ar    1  UNL1        0.0375
      4 C           7.0883   -5.3064   30.8562 C.ar    1  UNL1        0.1559
      5 N           6.6056   -5.4142   29.4401 N.ar    1  UNL1       -0.1331
      6 N           7.3750   -6.2323   28.4457 N.ar    1  UNL1       -0.1512
      7 N           6.3189   -4.4883   31.8506 N.am    1  UNL1       -0.2676
      8 C           6.5896   -3.0188   31.9824 C.2     1  UNL1        0.2332
      9 O           7.6296   -2.3674   31.1198 O.2     1  UNL1       -0.2743
     10 H           5.6363   -4.9158   32.4167 H       1  UNL1        0.1563
     11 C           5.8202   -2.2007   32.9768 C.3     1  UNL1        0.1311
     12 C           4.7390   -1.2726   32.5081 C.ar    1  UNL1        0.0708
     13 C           4.1051   -1.4776   31.1642 C.ar    1  UNL1        0.0521
     14 C           3.0240   -0.5495   30.6955 C.ar    1  UNL1        0.1407
     15 C           2.5767    0.5837   31.5707 C.ar    1  UNL1        0.0516
     16 C           3.2107    0.7887   32.9146 C.ar    1  UNL1        0.0620
     17 C           2.7636    1.9219   33.7898 C.3     1  UNL1        0.0522
     18 N           4.2919   -0.1395   33.3833 N.ar    1  UNL1       -0.2533
     19 O           2.3900   -0.7546   29.3516 O.3     1  UNL1       -0.4787
     20 C           1.1958    0.0610   28.9534 C.3     1  UNL1        0.1768
     21 C          -0.2821   -0.1861   28.8840 C.3     1  UNL1        0.1103
     22 C          -0.4931    1.2145   28.3903 C.3     1  UNL1        0.2709
     23 F          -0.7043    2.6150   27.8966 F       1  UNL1       -0.2041
     24 F          -1.9710    0.9672   28.3209 F       1  UNL1       -0.2041
     25 C           0.9847    1.4617   28.4597 C.3     1  UNL1        0.1103
     26 C           9.3965   -7.7607   27.8731 C.3     1  UNL1        0.0505
     27 C           9.3582   -9.2585   27.9444 C.3     1  UNL1        0.0437
     28 C           8.0692   -9.9880   27.7065 C.3     1  UNL1        0.1856
     29 F           6.8889   -9.2587   27.1363 F       1  UNL1       -0.2351
     30 C           7.9606  -11.4466   28.0387 C.3     1  UNL1        0.1643
     31 C           4.3531  -12.8785   28.0691 C.ar    1  UNL1        0.1762
     32 C           5.3968  -11.9452   28.6073 C.ar    1  UNL1        0.1223
     33 N           6.6618  -12.1681   27.8326 N.ar    1  UNL1       -0.2272
     34 N           6.3999  -13.2390   26.8156 N.ar    1  UNL1       -0.0636
     35 N           4.9731  -13.6781   26.9617 N.ar    1  UNL1       -0.1241
     36 C           0.4340  -13.5030   28.0851 C.3     1  UNL1        0.1110
     37 N           1.8491  -13.3894   27.6010 N.am    1  UNL1       -0.2978
     38 C           2.9379  -12.9921   28.5532 C.2     1  UNL1        0.2670
     39 O           2.6115  -12.7085   29.9895 O.2     1  UNL1       -0.2684
     40 H           2.0633  -13.5755   26.6583 H       1  UNL1        0.1498
@<TRIPOS>BOND
     1    36    37    1
     2    37    38   am
     3    38    39    2
     4    38    31    1
     5    31    32   ar
     6    32    33   ar
     7    33    30    1
     8    30    28    1
     9    28    29    1
    10    28    27    1
    11    27    26    1
    12    26     1    1
    13     1     2   ar
    14     2     3   ar
    15     3     4   ar
    16     4     7    1
    17     7     8   am
    18     8     9    2
    19     8    11    1
    20    11    12    1
    21    12    13   ar
    22    13    14   ar
    23    14    19    1
    24    19    20    1
    25    20    21    1
    26    21    22    1
    27    22    23    1
    28    22    24    1
    29    22    25    1
    30    14    15   ar
    31    15    16   ar
    32    16    17    1
    33    16    18   ar
    34     4     5   ar
    35     5     6   ar
    36    33    34   ar
    37    34    35   ar
    38    35    31   ar
    39     6     1   ar
    40    18    12   ar
    41    25    20    1
    42    37    40    1
    43     7    10    1
@<TRIPOS>MOLECULE
*****
 40 43 0 0 0
SMALL
GASTEIGER

@<TRIPOS>ATOM
      1 C           8.3721   -6.9749   26.9928 C.ar    1  UNL1        0.0807
      2 C           8.1321   -7.3245   25.5540 C.ar    1  UNL1        0.0194
      3 C           7.6816   -6.2670   24.5903 C.ar    1  UNL1        0.0375
      4 C           7.4712   -4.8599   25.0654 C.ar    1  UNL1        0.1559
      5 N           7.7113   -4.5102   26.5041 N.ar    1  UNL1       -0.1331
      6 N           8.1617   -5.5677   27.4678 N.ar    1  UNL1       -0.1512
      7 N           7.0208   -3.8024   24.1016 N.am    1  UNL1       -0.2676
      8 C           7.7101   -3.6512   22.7780 C.2     1  UNL1        0.2332
      9 O           8.8499   -4.5575   22.4181 O.2     1  UNL1       -0.2743
     10 H           6.2727   -3.2075   24.3378 H       1  UNL1        0.1563
     11 C           7.2596   -2.5937   21.8142 C.3     1  UNL1        0.1311
     12 C           6.0511   -2.8262   20.9566 C.ar    1  UNL1        0.0708
     13 C           5.5095   -1.7152   20.1067 C.ar    1  UNL1        0.0521
     14 C           4.3011   -1.9477   19.2491 C.ar    1  UNL1        0.1407
     15 C           3.6341   -3.2913   19.2414 C.ar    1  UNL1        0.0516
     16 C           4.1757   -4.4023   20.0912 C.ar    1  UNL1        0.0620
     17 C           3.5089   -5.7459   20.0835 C.3     1  UNL1        0.0522
     18 N           5.3843   -4.1698   20.9489 N.ar    1  UNL1       -0.2533
     19 O           3.7595   -0.8367   18.3992 O.3     1  UNL1       -0.4787
     20 C           2.5312   -0.0921   18.8316 C.3     1  UNL1        0.1768
     21 C           1.9419    1.2521   18.5222 C.3     1  UNL1        0.1103
     22 C           0.7942    0.9609   19.4430 C.3     1  UNL1        0.2709
     23 F          -0.3535    0.6697   20.3638 F       1  UNL1       -0.2041
     24 F           0.2049    2.3051   19.1336 F       1  UNL1       -0.2041
     25 C           1.3835   -0.3834   19.7524 C.3     1  UNL1        0.1103
     26 C           8.8226   -8.0324   27.9566 C.3     1  UNL1        0.0505
     27 C           8.7634   -9.4789   27.5643 C.3     1  UNL1        0.0437
     28 C           7.4527  -10.2082   27.5832 C.3     1  UNL1        0.1856
     29 F           6.2199   -9.5492   27.0389 F       1  UNL1       -0.2351
     30 C           7.3747  -11.5962   28.1463 C.3     1  UNL1        0.1643
     31 C           4.1101  -13.6621   27.7729 C.ar    1  UNL1        0.1762
     32 C           4.9515  -12.6639   28.5115 C.ar    1  UNL1        0.1223
     33 N           6.2402  -12.4989   27.7617 N.ar    1  UNL1       -0.2272
     34 N           6.1952  -13.3952   26.5598 N.ar    1  UNL1       -0.0636
     35 N           4.8787  -14.1141   26.5667 N.ar    1  UNL1       -0.1241
     36 C           0.1881  -13.6885   28.3793 C.3     1  UNL1        0.1110
     37 N           1.5577  -13.2238   27.9815 N.am    1  UNL1       -0.2978
     38 C           2.7405  -14.1268   28.1707 C.2     1  UNL1        0.2670
     39 O           2.5535  -15.4944   28.7578 O.2     1  UNL1       -0.2684
     40 H           1.6804  -12.3262   27.5962 H       1  UNL1        0.1498
@<TRIPOS>BOND
     1    36    37    1
     2    37    38   am
     3    38    39    2
     4    38    31    1
     5    31    32   ar
     6    32    33   ar
     7    33    30    1
     8    30    28    1
     9    28    29    1
    10    28    27    1
    11    27    26    1
    12    26     1    1
    13     1     2   ar
    14     2     3   ar
    15     3     4   ar
    16     4     7    1
    17     7     8   am
    18     8     9    2
    19     8    11    1
    20    11    12    1
    21    12    13   ar
    22    13    14   ar
    23    14    19    1
    24    19    20    1
    25    20    21    1
    26    21    22    1
    27    22    23    1
    28    22    24    1
    29    22    25    1
    30    14    15   ar
    31    15    16   ar
    32    16    17    1
    33    16    18   ar
    34     4     5   ar
    35     5     6   ar
    36    33    34   ar
    37    34    35   ar
    38    35    31   ar
    39     6     1   ar
    40    18    12   ar
    41    25    20    1
    42    37    40    1
    43     7    10    1
@<TRIPOS>MOLECULE
*****
 40 43 0 0 0
SMALL
GASTEIGER

@<TRIPOS>ATOM
      1 C           8.7194   -7.9446   27.9227 C.ar    1  UNL1        0.0807
      2 C           7.6282   -7.0940   27.3434 C.ar    1  UNL1        0.0194
      3 C           7.1484   -5.8818   28.0852 C.ar    1  UNL1        0.0375
      4 C           7.7599   -5.5202   29.4063 C.ar    1  UNL1        0.1559
      5 N           8.8511   -6.3708   29.9856 N.ar    1  UNL1       -0.1331
      6 N           9.3309   -7.5830   29.2438 N.ar    1  UNL1       -0.1512
      7 N           7.2801   -4.3079   30.1482 N.am    1  UNL1       -0.2676
      8 C           6.7367   -4.4462   31.5394 C.2     1  UNL1        0.2332
      9 O           6.6730   -5.7969   32.1888 O.2     1  UNL1       -0.2743
     10 H           7.3219   -3.4214   29.7219 H       1  UNL1        0.1563
     11 C           6.2568   -3.2340   32.2812 C.3     1  UNL1        0.1311
     12 C           5.7026   -2.0628   31.5254 C.ar    1  UNL1        0.0708
     13 C           4.2851   -1.6272   31.7514 C.ar    1  UNL1        0.0521
     14 C           3.7309   -0.4561   30.9957 C.ar    1  UNL1        0.1407
     15 C           4.5941    0.2795   30.0138 C.ar    1  UNL1        0.0516
     16 C           6.0115   -0.1561   29.7879 C.ar    1  UNL1        0.0620
     17 C           6.8747    0.5794   28.8061 C.3     1  UNL1        0.0522
     18 N           6.5658   -1.3273   30.5437 N.ar    1  UNL1       -0.2533
     19 O           2.3134   -0.0205   31.2217 O.3     1  UNL1       -0.4787
     20 C           1.4817    0.4546   30.0673 C.3     1  UNL1        0.1768
     21 C           0.7741   -0.2116   28.9247 C.3     1  UNL1        0.1103
     22 C           0.3054    1.1265   28.4349 C.3     1  UNL1        0.2709
     23 F          -0.1633    2.4644   27.9449 F       1  UNL1       -0.2041
     24 F          -0.4021    0.4602   27.2922 F       1  UNL1       -0.2041
     25 C           1.0130    1.7926   29.5775 C.3     1  UNL1        0.1103
     26 C           9.1992   -9.1569   27.1809 C.3     1  UNL1        0.0505
     27 C           9.5072  -10.4204   27.9283 C.3     1  UNL1        0.0437
     28 C           8.4867  -11.5176   27.9991 C.3     1  UNL1        0.1856
     29 F           8.9258  -12.9518   27.9907 F       1  UNL1       -0.2351
     30 C           7.0273  -11.1805   28.0784 C.3     1  UNL1        0.1643
     31 C           3.9879  -13.5845   27.8583 C.ar    1  UNL1        0.1762
     32 C           4.7035  -12.4325   28.4994 C.ar    1  UNL1        0.1223
     33 N           5.9980  -12.2271   27.7700 N.ar    1  UNL1       -0.2272
     34 N           6.0826  -13.2521   26.6782 N.ar    1  UNL1       -0.0636
     35 N           4.8403  -14.0911   26.7327 N.ar    1  UNL1       -0.1241
     36 C           0.0806  -13.8593   28.4964 C.3     1  UNL1        0.1110
     37 N           1.4143  -13.3103   28.0843 N.am    1  UNL1       -0.2978
     38 C           2.6543  -14.1335   28.2705 C.2     1  UNL1        0.2670
     39 O           2.5605  -15.5058   28.8688 O.2     1  UNL1       -0.2684
     40 H           1.4758  -12.4096   27.6915 H       1  UNL1        0.1498
@<TRIPOS>BOND
     1    36    37    1
     2    37    38   am
     3    38    39    2
     4    38    31    1
     5    31    32   ar
     6    32    33   ar
     7    33    30    1
     8    30    28    1
     9    28    29    1
    10    28    27    1
    11    27    26    1
    12    26     1    1
    13     1     2   ar
    14     2     3   ar
    15     3     4   ar
    16     4     7    1
    17     7     8   am
    18     8     9    2
    19     8    11    1
    20    11    12    1
    21    12    13   ar
    22    13    14   ar
    23    14    19    1
    24    19    20    1
    25    20    21    1
    26    21    22    1
    27    22    23    1
    28    22    24    1
    29    22    25    1
    30    14    15   ar
    31    15    16   ar
    32    16    17    1
    33    16    18   ar
    34     4     5   ar
    35     5     6   ar
    36    33    34   ar
    37    34    35   ar
    38    35    31   ar
    39     6     1   ar
    40    18    12   ar
    41    25    20    1
    42    37    40    1
    43     7    10    1
@<TRIPOS>MOLECULE
*****
 40 43 0 0 0
SMALL
GASTEIGER

@<TRIPOS>ATOM
      1 C           8.4830   -8.2888   27.2587 C.ar    1  UNL1        0.0807
      2 C           7.8257   -7.7370   26.0285 C.ar    1  UNL1        0.0194
      3 C           7.0455   -6.4582   26.1045 C.ar    1  UNL1        0.0375
      4 C           6.9227   -5.7311   27.4107 C.ar    1  UNL1        0.1559
      5 N           7.5800   -6.2828   28.6409 N.ar    1  UNL1       -0.1331
      6 N           8.3602   -7.5617   28.5649 N.ar    1  UNL1       -0.1512
      7 N           6.1425   -4.4521   27.4867 N.am    1  UNL1       -0.2676
      8 C           6.5296   -3.2852   26.6275 C.2     1  UNL1        0.2332
      9 O           7.6970   -3.3971   25.6922 O.2     1  UNL1       -0.2743
     10 H           5.3763   -4.3787   28.1006 H       1  UNL1        0.1563
     11 C           5.7494   -2.0063   26.7035 C.3     1  UNL1        0.1311
     12 C           5.2764   -1.4941   28.0316 C.ar    1  UNL1        0.0708
     13 C           4.1730   -0.4799   28.0945 C.ar    1  UNL1        0.0521
     14 C           3.7000    0.0323   29.4226 C.ar    1  UNL1        0.1407
     15 C           4.3304   -0.4697   30.6879 C.ar    1  UNL1        0.0516
     16 C           5.4337   -1.4839   30.6249 C.ar    1  UNL1        0.0620
     17 C           6.0641   -1.9859   31.8900 C.3     1  UNL1        0.0522
     18 N           5.9068   -1.9961   29.2967 N.ar    1  UNL1       -0.2533
     19 O           2.5966    1.0465   29.4856 O.3     1  UNL1       -0.4787
     20 C           1.1701    0.6141   29.3183 C.3     1  UNL1        0.1768
     21 C          -0.1421    1.0347   29.9110 C.3     1  UNL1        0.1103
     22 C          -0.8474    0.0026   29.0818 C.3     1  UNL1        0.2709
     23 F          -1.5527   -1.0293   28.2527 F       1  UNL1       -0.2041
     24 F          -2.1596    0.4233   29.6745 F       1  UNL1       -0.2041
     25 C           0.4648   -0.4179   28.4892 C.3     1  UNL1        0.1103
     26 C           9.2632   -9.5677   27.1827 C.3     1  UNL1        0.0505
     27 C           9.0901  -10.6159   28.2416 C.3     1  UNL1        0.0437
     28 C           8.0841  -11.7126   28.0539 C.3     1  UNL1        0.1856
     29 F           8.5447  -13.1178   27.8020 F       1  UNL1       -0.2351
     30 C           6.6176  -11.4042   28.1182 C.3     1  UNL1        0.1643
     31 C           3.6051  -13.7698   27.4900 C.ar    1  UNL1        0.1762
     32 C           4.2666  -12.6679   28.2634 C.ar    1  UNL1        0.1223
     33 N           5.6164  -12.4216   27.6572 N.ar    1  UNL1       -0.2272
     34 N           5.7891  -13.3713   26.5091 N.ar    1  UNL1       -0.0636
     35 N           4.5462  -14.2046   26.4057 N.ar    1  UNL1       -0.1241
     36 C           0.7375  -16.3033   28.5427 C.3     1  UNL1        0.1110
     37 N           2.1006  -15.7357   28.2784 N.am    1  UNL1       -0.2978
     38 C           2.2421  -14.3374   27.7544 C.2     1  UNL1        0.2670
     39 O           1.0205  -13.5066   27.4947 O.2     1  UNL1       -0.2684
     40 H           2.9024  -16.2810   28.4488 H       1  UNL1        0.1498
@<TRIPOS>BOND
     1    36    37    1
     2    37    38   am
     3    38    39    2
     4    38    31    1
     5    31    32   ar
     6    32    33   ar
     7    33    30    1
     8    30    28    1
     9    28    29    1
    10    28    27    1
    11    27    26    1
    12    26     1    1
    13     1     2   ar
    14     2     3   ar
    15     3     4   ar
    16     4     7    1
    17     7     8   am
    18     8     9    2
    19     8    11    1
    20    11    12    1
    21    12    13   ar
    22    13    14   ar
    23    14    19    1
    24    19    20    1
    25    20    21    1
    26    21    22    1
    27    22    23    1
    28    22    24    1
    29    22    25    1
    30    14    15   ar
    31    15    16   ar
    32    16    17    1
    33    16    18   ar
    34     4     5   ar
    35     5     6   ar
    36    33    34   ar
    37    34    35   ar
    38    35    31   ar
    39     6     1   ar
    40    18    12   ar
    41    25    20    1
    42    37    40    1
    43     7    10    1
@<TRIPOS>MOLECULE
*****
 40 43 0 0 0
SMALL
GASTEIGER

@<TRIPOS>ATOM
      1 C           7.6622   -6.8729   26.8413 C.ar    1  UNL1        0.0807
      2 C           8.4920   -7.2037   28.0463 C.ar    1  UNL1        0.0194
      3 C           8.1442   -6.6143   29.3810 C.ar    1  UNL1        0.0375
      4 C           6.9667   -5.6942   29.5108 C.ar    1  UNL1        0.1559
      5 N           6.1369   -5.3634   28.3058 N.ar    1  UNL1       -0.1331
      6 N           6.4847   -5.9528   26.9711 N.ar    1  UNL1       -0.1512
      7 N           6.6190   -5.1048   30.8457 N.am    1  UNL1       -0.2676
      8 C           6.7564   -3.6284   31.0724 C.2     1  UNL1        0.2332
      9 O           7.2415   -2.7414   29.9644 O.2     1  UNL1       -0.2743
     10 H           6.3006   -5.6870   31.5730 H       1  UNL1        0.1563
     11 C           6.4087   -3.0390   32.4073 C.3     1  UNL1        0.1311
     12 C           5.5191   -1.8339   32.4863 C.ar    1  UNL1        0.0708
     13 C           5.7415   -0.8063   33.5561 C.ar    1  UNL1        0.0521
     14 C           4.8519    0.3988   33.6351 C.ar    1  UNL1        0.1407
     15 C           3.7398    0.5763   32.6442 C.ar    1  UNL1        0.0516
     16 C           3.5174   -0.4513   31.5744 C.ar    1  UNL1        0.0620
     17 C           2.4053   -0.2738   30.5836 C.3     1  UNL1        0.0522
     18 N           4.4070   -1.6565   31.4954 N.ar    1  UNL1       -0.2533
     19 O           5.0743    1.4264   34.7049 O.3     1  UNL1       -0.4787
     20 C           4.2304    1.4130   35.9448 C.3     1  UNL1        0.1768
     21 C           3.0100    2.1537   36.4053 C.3     1  UNL1        0.1103
     22 C           3.0368    1.3940   37.6984 C.3     1  UNL1        0.2709
     23 F           3.0635    0.6345   38.9915 F       1  UNL1       -0.2041
     24 F           1.8164    2.1348   38.1588 F       1  UNL1       -0.2041
     25 C           4.2572    0.6533   37.2380 C.3     1  UNL1        0.1103
     26 C           8.0099   -7.4623   25.5064 C.3     1  UNL1        0.0505
     27 C           9.0404   -6.8009   24.6400 C.3     1  UNL1        0.0437
     28 C           8.7547   -6.5571   23.1878 C.3     1  UNL1        0.1856
     29 F           8.6806   -7.7123   22.2338 F       1  UNL1       -0.2351
     30 C           8.5430   -5.1582   22.6896 C.3     1  UNL1        0.1643
     31 C           5.6636   -3.0712   24.2447 C.ar    1  UNL1        0.1762
     32 C           7.0465   -3.6485   24.3101 C.ar    1  UNL1        0.1223
     33 N           7.2881   -4.4174   23.0450 N.ar    1  UNL1       -0.2272
     34 N           6.0546   -4.3154   22.1978 N.ar    1  UNL1       -0.0636
     35 N           5.0505   -3.4834   22.9392 N.ar    1  UNL1       -0.1241
     36 C           4.6771   -1.6137   27.8017 C.3     1  UNL1        0.1110
     37 N           5.3319   -2.4553   26.7469 N.am    1  UNL1       -0.2978
     38 C           5.0087   -2.2296   25.2996 C.2     1  UNL1        0.2670
     39 O           4.0306   -1.1623   24.9073 O.2     1  UNL1       -0.2684
     40 H           5.9739   -3.1559   27.0044 H       1  UNL1        0.1498
@<TRIPOS>BOND
     1    36    37    1
     2    37    38   am
     3    38    39    2
     4    38    31    1
     5    31    32   ar
     6    32    33   ar
     7    33    30    1
     8    30    28    1
     9    28    29    1
    10    28    27    1
    11    27    26    1
    12    26     1    1
    13     1     2   ar
    14     2     3   ar
    15     3     4   ar
    16     4     7    1
    17     7     8   am
    18     8     9    2
    19     8    11    1
    20    11    12    1
    21    12    13   ar
    22    13    14   ar
    23    14    19    1
    24    19    20    1
    25    20    21    1
    26    21    22    1
    27    22    23    1
    28    22    24    1
    29    22    25    1
    30    14    15   ar
    31    15    16   ar
    32    16    17    1
    33    16    18   ar
    34     4     5   ar
    35     5     6   ar
    36    33    34   ar
    37    34    35   ar
    38    35    31   ar
    39     6     1   ar
    40    18    12   ar
    41    25    20    1
    42    37    40    1
    43     7    10    1
@<TRIPOS>MOLECULE
*****
 40 43 0 0 0
SMALL
GASTEIGER

@<TRIPOS>ATOM
      1 C         -14.5859    0.8969   18.6659 C.ar    1  UNL1        0.0807
      2 C         -15.8064    0.6555   19.5038 C.ar    1  UNL1        0.0194
      3 C         -16.1125   -0.7256   20.0026 C.ar    1  UNL1        0.0375
      4 C         -15.1980   -1.8653   19.6636 C.ar    1  UNL1        0.1559
      5 N         -13.9776   -1.6239   18.8257 N.ar    1  UNL1       -0.1331
      6 N         -13.6715   -0.2428   18.3268 N.ar    1  UNL1       -0.1512
      7 N         -15.5042   -3.2464   20.1624 N.am    1  UNL1       -0.2676
      8 C         -16.3298   -4.1796   19.3273 C.2     1  UNL1        0.2332
      9 O         -16.8493   -3.7318   17.9934 O.2     1  UNL1       -0.2743
     10 H         -15.1632   -3.5404   21.0380 H       1  UNL1        0.1563
     11 C         -16.6359   -5.5608   19.8262 C.3     1  UNL1        0.1311
     12 C         -15.9808   -6.7505   19.1896 C.ar    1  UNL1        0.0708
     13 C         -14.6178   -6.6180   18.5775 C.ar    1  UNL1        0.0521
     14 C         -13.9626   -7.8077   17.9409 C.ar    1  UNL1        0.1407
     15 C         -14.6705   -9.1300   17.9163 C.ar    1  UNL1        0.0516
     16 C         -16.0335   -9.2625   18.5284 C.ar    1  UNL1        0.0620
     17 C         -16.7414  -10.5847   18.5039 C.3     1  UNL1        0.0522
     18 N         -16.6887   -8.0727   19.1651 N.ar    1  UNL1       -0.2533
     19 O         -12.5996   -7.6753   17.3288 O.3     1  UNL1       -0.4787
     20 C         -11.5250   -6.9153   18.0482 C.3     1  UNL1        0.1768
     21 C         -11.2303   -5.4639   18.2862 C.3     1  UNL1        0.1103
     22 C         -10.0053   -5.8405   19.0657 C.3     1  UNL1        0.2709
     23 F          -8.7803   -6.2169   19.8452 F       1  UNL1       -0.2041
     24 F          -9.7106   -4.3891   19.3036 F       1  UNL1       -0.2041
     25 C         -10.3001   -7.2919   18.8277 C.3     1  UNL1        0.1103
     26 C         -14.2798    2.2780   18.1670 C.3     1  UNL1        0.0505
     27 C         -15.3600    3.3180   18.1281 C.3     1  UNL1        0.0437
     28 C         -15.3279    4.4692   19.0893 C.3     1  UNL1        0.1856
     29 F         -14.6658    5.7564   18.6959 F       1  UNL1       -0.2351
     30 C         -15.9578    4.3332   20.4438 C.3     1  UNL1        0.1643
     31 C         -14.6060    5.1739   23.9837 C.ar    1  UNL1        0.1762
     32 C         -15.7067    4.7053   23.0788 C.ar    1  UNL1        0.1223
     33 N         -15.1895    4.7253   21.6709 N.ar    1  UNL1       -0.2272
     34 N         -13.7691    5.2061   21.7057 N.ar    1  UNL1       -0.0636
     35 N         -13.4085    5.4834   23.1350 N.ar    1  UNL1       -0.1241
     36 C         -16.0977    5.3365   27.6577 C.3     1  UNL1        0.1110
     37 N         -16.0154    5.2012   26.1661 N.am    1  UNL1       -0.2978
     38 C         -14.6883    5.3092   25.4753 C.2     1  UNL1        0.2670
     39 O         -13.4436    5.5525   26.2761 O.2     1  UNL1       -0.2684
     40 H         -16.8324    5.0415   25.6405 H       1  UNL1        0.1498
@<TRIPOS>BOND
     1    36    37    1
     2    37    38   am
     3    38    39    2
     4    38    31    1
     5    31    32   ar
     6    32    33   ar
     7    33    30    1
     8    30    28    1
     9    28    29    1
    10    28    27    1
    11    27    26    1
    12    26     1    1
    13     1     2   ar
    14     2     3   ar
    15     3     4   ar
    16     4     7    1
    17     7     8   am
    18     8     9    2
    19     8    11    1
    20    11    12    1
    21    12    13   ar
    22    13    14   ar
    23    14    19    1
    24    19    20    1
    25    20    21    1
    26    21    22    1
    27    22    23    1
    28    22    24    1
    29    22    25    1
    30    14    15   ar
    31    15    16   ar
    32    16    17    1
    33    16    18   ar
    34     4     5   ar
    35     5     6   ar
    36    33    34   ar
    37    34    35   ar
    38    35    31   ar
    39     6     1   ar
    40    18    12   ar
    41    25    20    1
    42    37    40    1
    43     7    10    1
@<TRIPOS>MOLECULE
*****
 40 43 0 0 0
SMALL
GASTEIGER

@<TRIPOS>ATOM
      1 C           2.9932   -0.4240   29.5913 C.ar    1  UNL1        0.0807
      2 C           3.1283    0.1126   28.1971 C.ar    1  UNL1        0.0194
      3 C           1.9190    0.6172   27.4673 C.ar    1  UNL1        0.0375
      4 C           0.5745    0.5851   28.1316 C.ar    1  UNL1        0.1559
      5 N           0.4393    0.0485   29.5257 N.ar    1  UNL1       -0.1331
      6 N           1.6487   -0.4561   30.2556 N.ar    1  UNL1       -0.1512
      7 N          -0.6350    1.0898   27.4016 N.am    1  UNL1       -0.2676
      8 C          -0.8796    2.5651   27.2856 C.2     1  UNL1        0.2332
      9 O           0.0852    3.5359   27.8995 O.2     1  UNL1       -0.2743
     10 H          -1.2682    0.4526   26.9987 H       1  UNL1        0.1563
     11 C          -2.0890    3.0697   26.5557 C.3     1  UNL1        0.1311
     12 C          -2.0540    3.2257   25.0643 C.ar    1  UNL1        0.0708
     13 C          -0.7654    3.0357   24.3203 C.ar    1  UNL1        0.0521
     14 C          -0.7305    3.1916   22.8289 C.ar    1  UNL1        0.1407
     15 C          -1.9841    3.5375   22.0813 C.ar    1  UNL1        0.0516
     16 C          -3.2727    3.7274   22.8253 C.ar    1  UNL1        0.0620
     17 C          -4.5263    4.0733   22.0778 C.3     1  UNL1        0.0522
     18 N          -3.3077    3.5715   24.3168 N.ar    1  UNL1       -0.2533
     19 O           0.5581    3.0017   22.0849 O.3     1  UNL1       -0.4787
     20 C           0.9822    1.6277   21.6581 C.3     1  UNL1        0.1768
     21 C           1.9912    0.6301   22.1446 C.3     1  UNL1        0.1103
     22 C           1.5820   -0.3154   21.0544 C.3     1  UNL1        0.2709
     23 F           1.1729   -1.2610   19.9643 F       1  UNL1       -0.2041
     24 F           2.5911   -1.3130   21.5411 F       1  UNL1       -0.2041
     25 C           0.5731    0.6822   20.5679 C.3     1  UNL1        0.1103
     26 C           4.2026   -0.9287   30.3212 C.3     1  UNL1        0.0505
     27 C           4.1641   -1.0948   31.8115 C.3     1  UNL1        0.0437
     28 C           4.8908   -2.2369   32.4578 C.3     1  UNL1        0.1856
     29 F           4.2126   -3.0538   33.5174 F       1  UNL1       -0.2351
     30 C           6.2956   -2.5620   32.0446 C.3     1  UNL1        0.1643
     31 C           6.9097   -5.2295   29.2928 C.ar    1  UNL1        0.1762
     32 C           6.6006   -3.8212   29.7066 C.ar    1  UNL1        0.1223
     33 N           6.5688   -3.7749   31.2056 N.ar    1  UNL1       -0.2272
     34 N           6.8583   -5.1546   31.7182 N.ar    1  UNL1       -0.0636
     35 N           7.0690   -6.0536   30.5360 N.ar    1  UNL1       -0.1241
     36 C           7.2638   -7.6955   26.2036 C.3     1  UNL1        0.1110
     37 N           7.1364   -7.1986   27.6131 N.am    1  UNL1       -0.2978
     38 C           7.0372   -5.7264   27.8833 C.2     1  UNL1        0.2670
     39 O           7.0654   -4.7513   26.7439 O.2     1  UNL1       -0.2684
     40 H           7.1178   -7.8386   28.3609 H       1  UNL1        0.1498
@<TRIPOS>BOND
     1    36    37    1
     2    37    38   am
     3    38    39    2
     4    38    31    1
     5    31    32   ar
     6    32    33   ar
     7    33    30    1
     8    30    28    1
     9    28    29    1
    10    28    27    1
    11    27    26    1
    12    26     1    1
    13     1     2   ar
    14     2     3   ar
    15     3     4   ar
    16     4     7    1
    17     7     8   am
    18     8     9    2
    19     8    11    1
    20    11    12    1
    21    12    13   ar
    22    13    14   ar
    23    14    19    1
    24    19    20    1
    25    20    21    1
    26    21    22    1
    27    22    23    1
    28    22    24    1
    29    22    25    1
    30    14    15   ar
    31    15    16   ar
    32    16    17    1
    33    16    18   ar
    34     4     5   ar
    35     5     6   ar
    36    33    34   ar
    37    34    35   ar
    38    35    31   ar
    39     6     1   ar
    40    18    12   ar
    41    25    20    1
    42    37    40    1
    43     7    10    1
@<TRIPOS>MOLECULE
*****
 40 43 0 0 0
SMALL
GASTEIGER

@<TRIPOS>ATOM
      1 C           8.2000   -6.3915   23.9849 C.ar    1  UNL1        0.0807
      2 C           7.3327   -5.2815   24.5003 C.ar    1  UNL1        0.0194
      3 C           6.8266   -4.2273   23.5608 C.ar    1  UNL1        0.0375
      4 C           7.1877   -4.2832   22.1060 C.ar    1  UNL1        0.1559
      5 N           8.0550   -5.3932   21.5907 N.ar    1  UNL1       -0.1331
      6 N           8.5611   -6.4474   22.5301 N.ar    1  UNL1       -0.1512
      7 N           6.6816   -3.2290   21.1666 N.am    1  UNL1       -0.2676
      8 C           5.3616   -3.4097   20.4775 C.2     1  UNL1        0.2332
      9 O           4.5476   -4.6445   20.7278 O.2     1  UNL1       -0.2743
     10 H           7.2158   -2.4185   21.0023 H       1  UNL1        0.1563
     11 C           4.8554   -2.3555   19.5380 C.3     1  UNL1        0.1311
     12 C           3.9117   -1.3000   20.0333 C.ar    1  UNL1        0.0708
     13 C           3.5359   -1.2512   21.4847 C.ar    1  UNL1        0.0521
     14 C           2.5922   -0.1958   21.9800 C.ar    1  UNL1        0.1407
     15 C           2.0242    0.8110   21.0239 C.ar    1  UNL1        0.0516
     16 C           2.4000    0.7622   19.5726 C.ar    1  UNL1        0.0620
     17 C           1.8321    1.7689   18.6166 C.3     1  UNL1        0.0522
     18 N           3.3438   -0.2933   19.0773 N.ar    1  UNL1       -0.2533
     19 O           2.2164   -0.1470   23.4313 O.3     1  UNL1       -0.4787
     20 C           3.2176   -0.5348   24.4788 C.3     1  UNL1        0.1768
     21 C           4.1635   -1.6834   24.6682 C.3     1  UNL1        0.1103
     22 C           4.6335   -1.0833   25.9601 C.3     1  UNL1        0.2709
     23 F           5.1035   -0.4833   27.2519 F       1  UNL1       -0.2041
     24 F           5.5794   -2.2319   26.1495 F       1  UNL1       -0.2041
     25 C           3.6875    0.0653   25.7706 C.3     1  UNL1        0.1103
     26 C           8.7061   -7.4457   24.9244 C.3     1  UNL1        0.0505
     27 C           7.7983   -8.0119   25.9757 C.3     1  UNL1        0.0437
     28 C           8.3781   -8.6355   27.2106 C.3     1  UNL1        0.1856
     29 F           7.9476  -10.0100   27.6296 F       1  UNL1       -0.2351
     30 C           9.3883   -7.8847   28.0265 C.3     1  UNL1        0.1643
     31 C           7.7896   -5.3834   30.5271 C.ar    1  UNL1        0.1762
     32 C           7.9273   -5.9445   29.1428 C.ar    1  UNL1        0.1223
     33 N           8.9416   -7.0487   29.1890 N.ar    1  UNL1       -0.2272
     34 N           9.4308   -7.1699   30.6018 N.ar    1  UNL1       -0.0636
     35 N           8.7188   -6.1408   31.4288 N.ar    1  UNL1       -0.1241
     36 C           5.4675   -3.0635   32.7577 C.3     1  UNL1        0.1110
     37 N           6.3750   -4.1850   32.3472 N.am    1  UNL1       -0.2978
     38 C           6.8821   -4.2619   30.9376 C.2     1  UNL1        0.2670
     39 O           6.4816   -3.2172   29.9385 O.2     1  UNL1       -0.2684
     40 H           6.6379   -4.8707   33.0029 H       1  UNL1        0.1498
@<TRIPOS>BOND
     1    36    37    1
     2    37    38   am
     3    38    39    2
     4    38    31    1
     5    31    32   ar
     6    32    33   ar
     7    33    30    1
     8    30    28    1
     9    28    29    1
    10    28    27    1
    11    27    26    1
    12    26     1    1
    13     1     2   ar
    14     2     3   ar
    15     3     4   ar
    16     4     7    1
    17     7     8   am
    18     8     9    2
    19     8    11    1
    20    11    12    1
    21    12    13   ar
    22    13    14   ar
    23    14    19    1
    24    19    20    1
    25    20    21    1
    26    21    22    1
    27    22    23    1
    28    22    24    1
    29    22    25    1
    30    14    15   ar
    31    15    16   ar
    32    16    17    1
    33    16    18   ar
    34     4     5   ar
    35     5     6   ar
    36    33    34   ar
    37    34    35   ar
    38    35    31   ar
    39     6     1   ar
    40    18    12   ar
    41    25    20    1
    42    37    40    1
    43     7    10    1
@<TRIPOS>MOLECULE
*****
 40 43 0 0 0
SMALL
GASTEIGER

@<TRIPOS>ATOM
      1 C           7.1418   -5.1788   29.7933 C.ar    1  UNL1        0.0807
      2 C           7.2502   -5.1759   31.2893 C.ar    1  UNL1        0.0194
      3 C           6.8251   -3.9675   32.0697 C.ar    1  UNL1        0.0375
      4 C           6.2915   -2.7621   31.3541 C.ar    1  UNL1        0.1559
      5 N           6.1831   -2.7650   29.8580 N.ar    1  UNL1       -0.1331
      6 N           6.6082   -3.9733   29.0776 N.ar    1  UNL1       -0.1512
      7 N           5.8664   -1.5536   32.1345 N.am    1  UNL1       -0.2676
      8 C           4.6203   -1.5995   32.9683 C.2     1  UNL1        0.2332
      9 O           3.7994   -2.8538   33.0217 O.2     1  UNL1       -0.2743
     10 H           6.4052   -0.7304   32.0995 H       1  UNL1        0.1563
     11 C           4.1952   -0.3911   33.7488 C.3     1  UNL1        0.1311
     12 C           5.0183    0.0785   34.9115 C.ar    1  UNL1        0.0708
     13 C           4.3896    0.9149   35.9863 C.ar    1  UNL1        0.0521
     14 C           5.2127    1.3846   37.1490 C.ar    1  UNL1        0.1407
     15 C           6.6646    1.0178   37.2369 C.ar    1  UNL1        0.0516
     16 C           7.2933    0.1814   36.1621 C.ar    1  UNL1        0.0620
     17 C           8.7451   -0.1853   36.2499 C.3     1  UNL1        0.0522
     18 N           6.4701   -0.2882   34.9993 N.ar    1  UNL1       -0.2533
     19 O           4.5841    2.2210   38.2238 O.3     1  UNL1       -0.4787
     20 C           3.1518    1.9956   38.6081 C.3     1  UNL1        0.1768
     21 C           1.9516    2.8765   38.7914 C.3     1  UNL1        0.1103
     22 C           1.1262    1.6769   39.1516 C.3     1  UNL1        0.2709
     23 F           0.3007    0.4774   39.5117 F       1  UNL1       -0.2041
     24 F          -0.0740    2.5578   39.3349 F       1  UNL1       -0.2041
     25 C           2.3264    0.7960   38.9682 C.3     1  UNL1        0.1103
     26 C           7.5669   -6.3872   29.0128 C.3     1  UNL1        0.0505
     27 C           8.3663   -6.2240   27.7541 C.3     1  UNL1        0.0437
     28 C           7.9919   -6.9944   26.5227 C.3     1  UNL1        0.1856
     29 F           7.1596   -8.2369   26.6394 F       1  UNL1       -0.2351
     30 C           8.4498   -6.5224   25.1746 C.3     1  UNL1        0.1643
     31 C           6.2630   -3.5666   23.9307 C.ar    1  UNL1        0.1762
     32 C           6.9210   -4.3339   25.0391 C.ar    1  UNL1        0.1223
     33 N           7.6525   -5.4931   24.4297 N.ar    1  UNL1       -0.2272
     34 N           7.4466   -5.4422   22.9448 N.ar    1  UNL1       -0.0636
     35 N           6.5879   -4.2517   22.6364 N.ar    1  UNL1       -0.1241
     36 C           3.6536   -0.9688   25.4112 C.3     1  UNL1        0.1110
     37 N           4.4896   -2.2041   25.2530 N.am    1  UNL1       -0.2978
     38 C           5.4270   -2.3313   24.0889 C.2     1  UNL1        0.2670
     39 O           5.5284   -1.2232   23.0831 O.2     1  UNL1       -0.2684
     40 H           4.4230   -2.9314   25.9132 H       1  UNL1        0.1498
@<TRIPOS>BOND
     1    36    37    1
     2    37    38   am
     3    38    39    2
     4    38    31    1
     5    31    32   ar
     6    32    33   ar
     7    33    30    1
     8    30    28    1
     9    28    29    1
    10    28    27    1
    11    27    26    1
    12    26     1    1
    13     1     2   ar
    14     2     3   ar
    15     3     4   ar
    16     4     7    1
    17     7     8   am
    18     8     9    2
    19     8    11    1
    20    11    12    1
    21    12    13   ar
    22    13    14   ar
    23    14    19    1
    24    19    20    1
    25    20    21    1
    26    21    22    1
    27    22    23    1
    28    22    24    1
    29    22    25    1
    30    14    15   ar
    31    15    16   ar
    32    16    17    1
    33    16    18   ar
    34     4     5   ar
    35     5     6   ar
    36    33    34   ar
    37    34    35   ar
    38    35    31   ar
    39     6     1   ar
    40    18    12   ar
    41    25    20    1
    42    37    40    1
    43     7    10    1
