@<TRIPOS>MOLECULE
*****
 22 26 0 0 0
SMALL
GASTEIGER

@<TRIPOS>ATOM
      1 C          -7.8845  -18.8217   22.6536 C.ar    1  UNL1        0.1501
      2 N          -7.2978  -17.6085   23.3123 N.ar    1  UNL1       -0.1327
      3 N          -5.8661  -17.4931   22.8802 N.ar    1  UNL1       -0.1291
      4 C          -5.5679  -18.6351   21.9544 C.ar    1  UNL1        0.1660
      5 C          -4.3216  -19.0334   21.2208 C.ar    1  UNL1        0.0138
      6 C          -4.3228  -20.2527   20.3472 C.ar    1  UNL1        0.0003
      7 C          -5.5702  -21.0738   20.2072 C.ar    1  UNL1        0.0189
      8 C          -6.8165  -20.6755   20.9407 C.ar    1  UNL1        0.0826
      9 N          -6.8154  -19.4562   21.8143 N.ar    1  UNL1       -0.2759
     10 C          -9.2931  -19.3140   22.8071 C.3     1  UNL1        0.0716
     11 C         -10.4558  -20.1334   23.2832 C.3     1  UNL1        0.0120
     12 C          -9.0745  -20.4267   23.7891 C.3     1  UNL1        0.0120
     13 CL        -12.1244  -15.5478   19.0923 Cl      1  UNL1       -0.0822
     14 C         -11.4165  -16.4894   20.0211 C.ar    1  UNL1        0.0577
     15 C         -11.0064  -17.8498   19.5405 C.ar    1  UNL1        0.0111
     16 C         -10.2986  -18.7913   20.4692 C.ar    1  UNL1       -0.0030
     17 C         -10.0009  -18.3724   21.8785 C.ar    1  UNL1       -0.0160
     18 C         -10.4110  -17.0120   22.3590 C.ar    1  UNL1       -0.0030
     19 C         -11.1189  -16.0704   21.4303 C.ar    1  UNL1        0.0111
     20 C          -3.0741  -18.2122   21.3609 C.3     1  UNL1        0.0254
     21 C          -2.3592  -17.0222   21.9288 C.3     1  UNL1        0.0048
     22 C          -1.6283  -17.9801   21.0355 C.3     1  UNL1        0.0048
@<TRIPOS>BOND
     1    13    14    1
     2    14    15   ar
     3    15    16   ar
     4    16    17   ar
     5    17    10    1
     6    10     1    1
     7     1     2   ar
     8     2     3   ar
     9     3     4   ar
    10     4     5   ar
    11     5    20    1
    12    20    21    1
    13    21    22    1
    14     5     6   ar
    15     6     7   ar
    16     7     8   ar
    17     8     9   ar
    18    10    11    1
    19    11    12    1
    20    17    18   ar
    21    18    19   ar
    22    19    14   ar
    23    12    10    1
    24     9     1   ar
    25     9     4   ar
    26    22    20    1
@<TRIPOS>MOLECULE
*****
 22 26 0 0 0
SMALL
GASTEIGER

@<TRIPOS>ATOM
      1 C          -8.3652  -18.7561   23.0444 C.ar    1  UNL1        0.1501
      2 N          -7.4712  -19.6884   22.2818 N.ar    1  UNL1       -0.1327
      3 N          -6.0955  -19.0913   22.2529 N.ar    1  UNL1       -0.1291
      4 C          -6.1393  -17.7899   22.9976 C.ar    1  UNL1        0.1660
      5 C          -5.0831  -16.7668   23.2935 C.ar    1  UNL1        0.0138
      6 C          -5.4295  -15.5366   24.0785 C.ar    1  UNL1        0.0003
      7 C          -6.8323  -15.3294   24.5677 C.ar    1  UNL1        0.0189
      8 C          -7.8885  -16.3525   24.2719 C.ar    1  UNL1        0.0826
      9 N          -7.5421  -17.5828   23.4868 N.ar    1  UNL1       -0.2759
     10 C          -9.8260  -18.9611   23.3169 C.3     1  UNL1        0.0716
     11 C         -11.0820  -19.4632   23.9651 C.3     1  UNL1        0.0120
     12 C          -9.7440  -19.8878   24.4936 C.3     1  UNL1        0.0120
     13 CL        -12.1837  -15.5392   18.9889 Cl      1  UNL1       -0.0822
     14 C         -11.5943  -16.3947   20.0709 C.ar    1  UNL1        0.0577
     15 C         -11.5961  -15.9139   21.4918 C.ar    1  UNL1        0.0111
     16 C         -11.0067  -16.7694   22.5737 C.ar    1  UNL1       -0.0030
     17 C         -10.4154  -18.1057   22.2348 C.ar    1  UNL1       -0.0160
     18 C         -10.4136  -18.5865   20.8140 C.ar    1  UNL1       -0.0030
     19 C         -11.0030  -17.7309   19.7320 C.ar    1  UNL1        0.0111
     20 C          -3.6803  -16.9740   22.8042 C.3     1  UNL1        0.0254
     21 C          -2.4408  -17.8156   22.7318 C.3     1  UNL1        0.0048
     22 C          -2.4901  -16.4913   22.0293 C.3     1  UNL1        0.0048
@<TRIPOS>BOND
     1    13    14    1
     2    14    15   ar
     3    15    16   ar
     4    16    17   ar
     5    17    10    1
     6    10     1    1
     7     1     2   ar
     8     2     3   ar
     9     3     4   ar
    10     4     5   ar
    11     5    20    1
    12    20    21    1
    13    21    22    1
    14     5     6   ar
    15     6     7   ar
    16     7     8   ar
    17     8     9   ar
    18    10    11    1
    19    11    12    1
    20    17    18   ar
    21    18    19   ar
    22    19    14   ar
    23    12    10    1
    24     9     1   ar
    25     9     4   ar
    26    22    20    1
@<TRIPOS>MOLECULE
*****
 22 26 0 0 0
SMALL
GASTEIGER

@<TRIPOS>ATOM
      1 C          -7.1506  -15.8749   23.2863 C.ar    1  UNL1        0.1501
      2 N          -7.1336  -15.0494   22.0340 N.ar    1  UNL1       -0.1327
      3 N          -8.4574  -15.2188   21.3492 N.ar    1  UNL1       -0.1291
      4 C          -9.2924  -16.1491   22.1783 C.ar    1  UNL1        0.1660
      5 C         -10.6839  -16.6794   21.9978 C.ar    1  UNL1        0.0138
      6 C         -11.2677  -17.6151   23.0144 C.ar    1  UNL1        0.0003
      7 C         -10.4601  -18.0205   24.2115 C.ar    1  UNL1        0.0189
      8 C          -9.0686  -17.4903   24.3921 C.ar    1  UNL1        0.0826
      9 N          -8.4848  -16.5546   23.3755 N.ar    1  UNL1       -0.2759
     10 C          -6.0300  -15.9990   24.2757 C.3     1  UNL1        0.0716
     11 C          -5.2233  -15.7978   25.5243 C.3     1  UNL1        0.0120
     12 C          -6.5444  -15.1054   25.3653 C.3     1  UNL1        0.0120
     13 CL         -2.4157  -19.7456   21.2925 Cl      1  UNL1       -0.0822
     14 C          -3.3193  -18.8089   22.0383 C.ar    1  UNL1        0.0577
     15 C          -4.7863  -19.1048   22.1410 C.ar    1  UNL1        0.0111
     16 C          -5.6897  -18.1681   22.8868 C.ar    1  UNL1       -0.0030
     17 C          -5.1264  -16.9356   23.5300 C.ar    1  UNL1       -0.0160
     18 C          -3.6595  -16.6398   23.4272 C.ar    1  UNL1       -0.0030
     19 C          -2.7559  -17.5764   22.6814 C.ar    1  UNL1        0.0111
     20 C         -11.4916  -16.2739   20.8005 C.3     1  UNL1        0.0254
     21 C         -12.8224  -16.0822   20.1357 C.3     1  UNL1        0.0048
     22 C         -11.5596  -15.7633   19.3917 C.3     1  UNL1        0.0048
@<TRIPOS>BOND
     1    13    14    1
     2    14    15   ar
     3    15    16   ar
     4    16    17   ar
     5    17    10    1
     6    10     1    1
     7     1     2   ar
     8     2     3   ar
     9     3     4   ar
    10     4     5   ar
    11     5    20    1
    12    20    21    1
    13    21    22    1
    14     5     6   ar
    15     6     7   ar
    16     7     8   ar
    17     8     9   ar
    18    10    11    1
    19    11    12    1
    20    17    18   ar
    21    18    19   ar
    22    19    14   ar
    23    12    10    1
    24     9     1   ar
    25     9     4   ar
    26    22    20    1
@<TRIPOS>MOLECULE
*****
 22 26 0 0 0
SMALL
GASTEIGER

@<TRIPOS>ATOM
      1 C          -9.6620  -19.3031   21.4240 C.ar    1  UNL1        0.1501
      2 N          -9.8839  -20.2933   22.5287 N.ar    1  UNL1       -0.1327
      3 N         -11.1073  -19.8737   23.2885 N.ar    1  UNL1       -0.1291
      4 C         -11.6416  -18.6242   22.6532 C.ar    1  UNL1        0.1660
      5 C         -12.8260  -17.7621   22.9753 C.ar    1  UNL1        0.0138
      6 C         -13.1173  -16.5473   22.1450 C.ar    1  UNL1        0.0003
      7 C         -12.2241  -16.1946   20.9928 C.ar    1  UNL1        0.0189
      8 C         -11.0396  -17.0568   20.6707 C.ar    1  UNL1        0.0826
      9 N         -10.7484  -18.2716   21.5010 N.ar    1  UNL1       -0.2759
     10 C          -8.5493  -19.3382   20.4188 C.3     1  UNL1        0.0716
     11 C          -7.8334  -19.5297   19.1146 C.3     1  UNL1        0.0120
     12 C          -9.3057  -19.8007   19.2088 C.3     1  UNL1        0.0120
     13 CL         -3.9772  -17.5373   23.8616 Cl      1  UNL1       -0.0822
     14 C          -5.1202  -17.9875   23.0008 C.ar    1  UNL1        0.0577
     15 C          -4.9775  -19.2102   22.1438 C.ar    1  UNL1        0.0111
     16 C          -6.1205  -19.6604   21.2831 C.ar    1  UNL1       -0.0030
     17 C          -7.4063  -18.8879   21.2795 C.ar    1  UNL1       -0.0160
     18 C          -7.5491  -17.6652   22.1365 C.ar    1  UNL1       -0.0030
     19 C          -6.4060  -17.2150   22.9973 C.ar    1  UNL1        0.0111
     20 C         -13.7193  -18.1148   24.1276 C.3     1  UNL1        0.0254
     21 C         -15.0802  -18.4523   24.6603 C.3     1  UNL1        0.0048
     22 C         -13.9054  -18.3882   25.5907 C.3     1  UNL1        0.0048
@<TRIPOS>BOND
     1    13    14    1
     2    14    15   ar
     3    15    16   ar
     4    16    17   ar
     5    17    10    1
     6    10     1    1
     7     1     2   ar
     8     2     3   ar
     9     3     4   ar
    10     4     5   ar
    11     5    20    1
    12    20    21    1
    13    21    22    1
    14     5     6   ar
    15     6     7   ar
    16     7     8   ar
    17     8     9   ar
    18    10    11    1
    19    11    12    1
    20    17    18   ar
    21    18    19   ar
    22    19    14   ar
    23    12    10    1
    24     9     1   ar
    25     9     4   ar
    26    22    20    1
@<TRIPOS>MOLECULE
*****
 22 26 0 0 0
SMALL
GASTEIGER

@<TRIPOS>ATOM
      1 C          -6.0933  -19.3813   21.0037 C.ar    1  UNL1        0.1501
      2 N          -5.8889  -18.4750   22.1813 N.ar    1  UNL1       -0.1327
      3 N          -7.1894  -17.7838   22.4656 N.ar    1  UNL1       -0.1291
      4 C          -8.1977  -18.2630   21.4635 C.ar    1  UNL1        0.1660
      5 C          -9.6451  -17.9277   21.2571 C.ar    1  UNL1        0.0138
      6 C         -10.4150  -18.5798   20.1472 C.ar    1  UNL1        0.0003
      7 C          -9.7376  -19.5671   19.2437 C.ar    1  UNL1        0.0189
      8 C          -8.2902  -19.9023   19.4502 C.ar    1  UNL1        0.0826
      9 N          -7.5202  -19.2502   20.5600 N.ar    1  UNL1       -0.2759
     10 C          -5.0535  -20.2638   20.3793 C.3     1  UNL1        0.0716
     11 C          -4.4187  -21.4737   19.7603 C.3     1  UNL1        0.0120
     12 C          -5.8588  -21.5132   20.1780 C.3     1  UNL1        0.0120
     13 CL         -0.3872  -16.4925   20.3167 Cl      1  UNL1       -0.0822
     14 C          -1.5538  -17.4354   20.3323 C.ar    1  UNL1        0.0577
     15 C          -1.7251  -18.3978   21.4700 C.ar    1  UNL1        0.0111
     16 C          -2.8916  -19.3406   21.4856 C.ar    1  UNL1       -0.0030
     17 C          -3.8869  -19.3209   20.3636 C.ar    1  UNL1       -0.0160
     18 C          -3.7157  -18.3585   19.2259 C.ar    1  UNL1       -0.0030
     19 C          -2.5491  -17.4156   19.2103 C.ar    1  UNL1        0.0111
     20 C         -10.3225  -16.9404   22.1606 C.3     1  UNL1        0.0254
     21 C         -10.3784  -16.1955   23.4614 C.3     1  UNL1        0.0048
     22 C         -11.4399  -15.9752   22.4247 C.3     1  UNL1        0.0048
@<TRIPOS>BOND
     1    13    14    1
     2    14    15   ar
     3    15    16   ar
     4    16    17   ar
     5    17    10    1
     6    10     1    1
     7     1     2   ar
     8     2     3   ar
     9     3     4   ar
    10     4     5   ar
    11     5    20    1
    12    20    21    1
    13    21    22    1
    14     5     6   ar
    15     6     7   ar
    16     7     8   ar
    17     8     9   ar
    18    10    11    1
    19    11    12    1
    20    17    18   ar
    21    18    19   ar
    22    19    14   ar
    23    12    10    1
    24     9     1   ar
    25     9     4   ar
    26    22    20    1
@<TRIPOS>MOLECULE
*****
 22 26 0 0 0
SMALL
GASTEIGER

@<TRIPOS>ATOM
      1 C          -8.6230  -17.0467   23.7705 C.ar    1  UNL1        0.1501
      2 N          -8.9880  -17.8031   25.0133 N.ar    1  UNL1       -0.1327
      3 N         -10.4696  -18.0364   24.9956 N.ar    1  UNL1       -0.1291
      4 C         -11.0203  -17.4241   23.7418 C.ar    1  UNL1        0.1660
      5 C         -12.4135  -17.3446   23.1917 C.ar    1  UNL1        0.0138
      6 C         -12.6655  -16.6534   21.8846 C.ar    1  UNL1        0.0003
      7 C         -11.5242  -16.0417   21.1275 C.ar    1  UNL1        0.0189
      8 C         -10.1309  -16.1213   21.6775 C.ar    1  UNL1        0.0826
      9 N          -9.8790  -16.8125   22.9846 N.ar    1  UNL1       -0.2759
     10 C          -7.2440  -16.6025   23.3817 C.3     1  UNL1        0.0716
     11 C          -6.0177  -15.7457   23.2721 C.3     1  UNL1        0.0120
     12 C          -7.2046  -15.2602   24.0503 C.3     1  UNL1        0.0120
     13 CL         -5.4855  -21.3539   20.1675 Cl      1  UNL1       -0.0822
     14 C          -5.9252  -20.1660   20.9711 C.ar    1  UNL1        0.0577
     15 C          -4.9604  -19.4899   21.8995 C.ar    1  UNL1        0.0111
     16 C          -5.4000  -18.3021   22.7030 C.ar    1  UNL1       -0.0030
     17 C          -6.8045  -17.7903   22.5781 C.ar    1  UNL1       -0.0160
     18 C          -7.7693  -18.4664   21.6497 C.ar    1  UNL1       -0.0030
     19 C          -7.3297  -19.6543   20.8461 C.ar    1  UNL1        0.0111
     20 C         -13.5549  -17.9563   23.9489 C.3     1  UNL1        0.0254
     21 C         -14.1155  -18.5228   25.2196 C.3     1  UNL1        0.0048
     22 C         -14.9710  -18.4492   23.9897 C.3     1  UNL1        0.0048
@<TRIPOS>BOND
     1    13    14    1
     2    14    15   ar
     3    15    16   ar
     4    16    17   ar
     5    17    10    1
     6    10     1    1
     7     1     2   ar
     8     2     3   ar
     9     3     4   ar
    10     4     5   ar
    11     5    20    1
    12    20    21    1
    13    21    22    1
    14     5     6   ar
    15     6     7   ar
    16     7     8   ar
    17     8     9   ar
    18    10    11    1
    19    11    12    1
    20    17    18   ar
    21    18    19   ar
    22    19    14   ar
    23    12    10    1
    24     9     1   ar
    25     9     4   ar
    26    22    20    1
@<TRIPOS>MOLECULE
*****
 22 26 0 0 0
SMALL
GASTEIGER

@<TRIPOS>ATOM
      1 C          -7.7073  -19.3762   21.9235 C.ar    1  UNL1        0.1501
      2 N          -7.2476  -20.1511   20.7242 N.ar    1  UNL1       -0.1327
      3 N          -5.8135  -19.7961   20.4648 N.ar    1  UNL1       -0.1291
      4 C          -5.3869  -18.8017   21.5037 C.ar    1  UNL1        0.1660
      5 C          -4.0839  -18.0990   21.7453 C.ar    1  UNL1        0.0138
      6 C          -3.9513  -17.1368   22.8883 C.ar    1  UNL1        0.0003
      7 C          -5.1218  -16.8773   23.7898 C.ar    1  UNL1        0.0189
      8 C          -6.4248  -17.5800   23.5483 C.ar    1  UNL1        0.0826
      9 N          -6.5574  -18.5422   22.4052 N.ar    1  UNL1       -0.2759
     10 C          -9.0766  -19.4264   22.5339 C.3     1  UNL1        0.0716
     11 C         -10.1987  -19.8202   23.4481 C.3     1  UNL1        0.0120
     12 C          -8.8405  -20.4329   23.6208 C.3     1  UNL1        0.0120
     13 CL        -11.9235  -15.4708   19.0341 Cl      1  UNL1       -0.0822
     14 C         -11.2118  -16.4598   19.9091 C.ar    1  UNL1        0.0577
     15 C         -11.1337  -17.9013   19.5020 C.ar    1  UNL1        0.0111
     16 C         -10.4220  -18.8902   20.3770 C.ar    1  UNL1       -0.0030
     17 C          -9.7883  -18.4375   21.6590 C.ar    1  UNL1       -0.0160
     18 C          -9.8663  -16.9959   22.0660 C.ar    1  UNL1       -0.0030
     19 C         -10.5781  -16.0070   21.1911 C.ar    1  UNL1        0.0111
     20 C          -2.9135  -18.3585   20.8437 C.3     1  UNL1        0.0254
     21 C          -1.4358  -18.3183   20.5892 C.3     1  UNL1        0.0048
     22 C          -2.3639  -18.8481   19.5367 C.3     1  UNL1        0.0048
@<TRIPOS>BOND
     1    13    14    1
     2    14    15   ar
     3    15    16   ar
     4    16    17   ar
     5    17    10    1
     6    10     1    1
     7     1     2   ar
     8     2     3   ar
     9     3     4   ar
    10     4     5   ar
    11     5    20    1
    12    20    21    1
    13    21    22    1
    14     5     6   ar
    15     6     7   ar
    16     7     8   ar
    17     8     9   ar
    18    10    11    1
    19    11    12    1
    20    17    18   ar
    21    18    19   ar
    22    19    14   ar
    23    12    10    1
    24     9     1   ar
    25     9     4   ar
    26    22    20    1
@<TRIPOS>MOLECULE
*****
 22 26 0 0 0
SMALL
GASTEIGER

@<TRIPOS>ATOM
      1 C          -6.8578  -16.5488   23.7672 C.ar    1  UNL1        0.1501
      2 N          -5.4860  -15.9495   23.6717 N.ar    1  UNL1       -0.1327
      3 N          -4.6204  -16.8951   22.8930 N.ar    1  UNL1       -0.1291
      4 C          -5.4572  -18.0788   22.5072 C.ar    1  UNL1        0.1660
      5 C          -5.1386  -19.3239   21.7337 C.ar    1  UNL1        0.0138
      6 C          -6.2028  -20.3549   21.5006 C.ar    1  UNL1        0.0003
      7 C          -7.5856  -20.1408   22.0409 C.ar    1  UNL1        0.0189
      8 C          -7.9042  -18.8958   22.8144 C.ar    1  UNL1        0.0826
      9 N          -6.8400  -17.8647   23.0476 N.ar    1  UNL1       -0.2759
     10 C          -8.0399  -15.9392   24.4607 C.3     1  UNL1        0.0716
     11 C          -8.8750  -15.3208   25.5426 C.3     1  UNL1        0.0120
     12 C          -7.4511  -15.7024   25.8199 C.3     1  UNL1        0.0120
     13 CL        -12.0377  -16.0387   19.9877 Cl      1  UNL1       -0.0822
     14 C         -11.0382  -16.0138   21.1060 C.ar    1  UNL1        0.0577
     15 C          -9.6725  -15.4367   20.8785 C.ar    1  UNL1        0.0111
     16 C          -8.6732  -15.4119   21.9968 C.ar    1  UNL1       -0.0030
     17 C          -9.0394  -15.9641   23.3425 C.ar    1  UNL1       -0.0160
     18 C         -10.4051  -16.5412   23.5699 C.ar    1  UNL1       -0.0030
     19 C         -11.4046  -16.5661   22.4516 C.ar    1  UNL1        0.0111
     20 C          -3.7557  -19.5379   21.1934 C.3     1  UNL1        0.0254
     21 C          -2.2818  -19.6967   21.4222 C.3     1  UNL1        0.0048
     22 C          -2.8345  -19.7498   20.0287 C.3     1  UNL1        0.0048
@<TRIPOS>BOND
     1    13    14    1
     2    14    15   ar
     3    15    16   ar
     4    16    17   ar
     5    17    10    1
     6    10     1    1
     7     1     2   ar
     8     2     3   ar
     9     3     4   ar
    10     4     5   ar
    11     5    20    1
    12    20    21    1
    13    21    22    1
    14     5     6   ar
    15     6     7   ar
    16     7     8   ar
    17     8     9   ar
    18    10    11    1
    19    11    12    1
    20    17    18   ar
    21    18    19   ar
    22    19    14   ar
    23    12    10    1
    24     9     1   ar
    25     9     4   ar
    26    22    20    1
@<TRIPOS>MOLECULE
*****
 22 26 0 0 0
SMALL
GASTEIGER

@<TRIPOS>ATOM
      1 C          -9.1232  -18.7919   22.6878 C.ar    1  UNL1        0.1501
      2 N          -9.5129  -19.8670   23.6586 N.ar    1  UNL1       -0.1327
      3 N         -10.9142  -19.5915   24.1174 N.ar    1  UNL1       -0.1291
      4 C         -11.3905  -18.3461   23.4301 C.ar    1  UNL1        0.1660
      5 C         -12.6891  -17.5982   23.4947 C.ar    1  UNL1        0.0138
      6 C         -12.8809  -16.3562   22.6758 C.ar    1  UNL1        0.0003
      7 C         -11.7740  -15.8621   21.7924 C.ar    1  UNL1        0.0189
      8 C         -10.4754  -16.6100   21.7278 C.ar    1  UNL1        0.0826
      9 N         -10.2836  -17.8520   22.5466 N.ar    1  UNL1       -0.2759
     10 C          -7.8046  -18.6770   21.9821 C.3     1  UNL1        0.0716
     11 C          -6.3795  -18.2953   21.7111 C.3     1  UNL1        0.0120
     12 C          -7.0400  -17.8691   22.9886 C.3     1  UNL1        0.0120
     13 CL         -9.0307  -21.7485   16.9759 Cl      1  UNL1       -0.0822
     14 C          -8.7241  -20.9806   18.2275 C.ar    1  UNL1        0.0577
     15 C          -9.7571  -20.0683   18.8196 C.ar    1  UNL1        0.0111
     16 C          -9.4505  -19.3004   20.0711 C.ar    1  UNL1       -0.0030
     17 C          -8.1110  -19.4449   20.7306 C.ar    1  UNL1       -0.0160
     18 C          -7.0781  -20.3572   20.1385 C.ar    1  UNL1       -0.0030
     19 C          -7.3846  -21.1251   18.8869 C.ar    1  UNL1        0.0111
     20 C         -13.7961  -18.0924   24.3783 C.3     1  UNL1        0.0254
     21 C         -15.2119  -18.5569   24.5501 C.3     1  UNL1        0.0048
     22 C         -14.2974  -18.4839   25.7367 C.3     1  UNL1        0.0048
@<TRIPOS>BOND
     1    13    14    1
     2    14    15   ar
     3    15    16   ar
     4    16    17   ar
     5    17    10    1
     6    10     1    1
     7     1     2   ar
     8     2     3   ar
     9     3     4   ar
    10     4     5   ar
    11     5    20    1
    12    20    21    1
    13    21    22    1
    14     5     6   ar
    15     6     7   ar
    16     7     8   ar
    17     8     9   ar
    18    10    11    1
    19    11    12    1
    20    17    18   ar
    21    18    19   ar
    22    19    14   ar
    23    12    10    1
    24     9     1   ar
    25     9     4   ar
    26    22    20    1
