@<TRIPOS>MOLECULE
*****
 27 30 0 0 0
SMALL
GASTEIGER

@<TRIPOS>ATOM
      1 C          -8.0200  -18.1960   22.5545 C.ar    1  UNL1        0.0456
      2 C          -6.5208  -18.1753   22.5988 C.ar    1  UNL1        0.1327
      3 N          -5.8129  -17.4112   23.6781 N.ar    1  UNL1       -0.2298
      4 C          -6.6041  -16.6678   24.7132 C.ar    1  UNL1        0.0932
      5 C          -5.8962  -15.9038   25.7925 C.ar    1  UNL1        0.0761
      6 CL         -4.3970  -15.8831   25.8369 Cl      1  UNL1       -0.0806
      7 C          -6.6875  -15.1604   26.8275 C.ar    1  UNL1        0.0243
      8 C          -8.1867  -15.1811   26.7832 C.ar    1  UNL1        0.0586
      9 CL         -8.9779  -14.4377   27.8183 Cl      1  UNL1       -0.0822
     10 C          -8.8946  -15.9452   25.7039 C.ar    1  UNL1        0.0129
     11 C          -8.1033  -16.6885   24.6689 C.ar    1  UNL1        0.0195
     12 C          -8.8113  -17.4526   23.5895 C.ar    1  UNL1        0.0053
     13 N          -5.7295  -18.9187   21.5637 N.pl3   1  UNL1       -0.2932
     14 C          -4.6128  -18.2305   20.8363 C.3     1  UNL1        0.0922
     15 C          -3.8216  -18.9739   19.8012 C.3     1  UNL1        0.0215
     16 C          -4.1471  -20.4055   19.4937 C.3     1  UNL1        0.0035
     17 C          -5.2639  -21.0937   20.2211 C.3     1  UNL1        0.0215
     18 C          -6.0551  -20.3503   21.2561 C.3     1  UNL1        0.0922
     19 C         -10.3105  -17.4733   23.5451 C.ar    1  UNL1        0.0002
     20 C         -11.0703  -18.4925   24.3414 C.ar    1  UNL1        0.0000
     21 C         -12.5695  -18.5132   24.2971 C.ar    1  UNL1        0.0000
     22 C         -13.3089  -17.5147   23.4565 C.ar    1  UNL1        0.0000
     23 C         -12.5490  -16.4957   22.6602 C.ar    1  UNL1        0.0000
     24 C         -11.0498  -16.4750   22.7046 C.ar    1  UNL1        0.0000
     25 O          -8.6470  -18.4957   20.0510 O.co2   1  UNL1       -0.5445
     26 C          -8.7279  -18.9601   21.4750 C.2     1  UNL1        0.0756
     27 O          -9.5167  -20.1885   21.8197 O.co2   1  UNL1       -0.5445
@<TRIPOS>UNITY_ATOM_ATTR
25 1
charge -1
@<TRIPOS>BOND
     1    25    26   ar
     2    26    27   ar
     3    26     1    1
     4     1     2   ar
     5     2    13    1
     6    13    14    1
     7    14    15    1
     8    15    16    1
     9    16    17    1
    10    17    18    1
    11     2     3   ar
    12     3     4   ar
    13     4     5   ar
    14     5     6    1
    15     5     7   ar
    16     7     8   ar
    17     8     9    1
    18     8    10   ar
    19    10    11   ar
    20    11    12   ar
    21    12    19    1
    22    19    20   ar
    23    20    21   ar
    24    21    22   ar
    25    22    23   ar
    26    23    24   ar
    27    12     1   ar
    28    24    19   ar
    29    18    13    1
    30    11     4   ar
@<TRIPOS>MOLECULE
*****
 27 30 0 0 0
SMALL
GASTEIGER

@<TRIPOS>ATOM
      1 C          -6.0448  -17.8979   22.2924 C.ar    1  UNL1        0.0456
      2 C          -5.6691  -18.6632   21.0583 C.ar    1  UNL1        0.1327
      3 N          -6.7385  -19.2416   20.1798 N.ar    1  UNL1       -0.2298
      4 C          -8.1837  -19.0548   20.5355 C.ar    1  UNL1        0.0932
      5 C          -9.2531  -19.6332   19.6571 C.ar    1  UNL1        0.0761
      6 CL         -8.8774  -20.3986   18.4229 Cl      1  UNL1       -0.0806
      7 C         -10.6983  -19.4464   20.0128 C.ar    1  UNL1        0.0243
      8 C         -11.0740  -18.6810   21.2469 C.ar    1  UNL1        0.0586
      9 CL        -12.5193  -18.4942   21.6026 Cl      1  UNL1       -0.0822
     10 C         -10.0046  -18.1026   22.1253 C.ar    1  UNL1        0.0129
     11 C          -8.5595  -18.2895   21.7696 C.ar    1  UNL1        0.0195
     12 C          -7.4900  -17.7110   22.6481 C.ar    1  UNL1        0.0053
     13 N          -4.2238  -18.8501   20.7026 N.pl3   1  UNL1       -0.2932
     14 C          -3.3355  -19.6773   21.5837 C.3     1  UNL1        0.0922
     15 C          -1.8903  -19.8641   21.2280 C.3     1  UNL1        0.0215
     16 C          -1.3335  -19.2237   19.9912 C.3     1  UNL1        0.0035
     17 C          -2.2218  -18.3965   19.1100 C.3     1  UNL1        0.0215
     18 C          -3.6670  -18.2096   19.4657 C.3     1  UNL1        0.0922
     19 C          -7.8657  -16.9457   23.8822 C.ar    1  UNL1        0.0002
     20 C          -7.6654  -15.4600   23.9335 C.ar    1  UNL1        0.0000
     21 C          -8.0411  -14.6946   25.1676 C.ar    1  UNL1        0.0000
     22 C          -8.6172  -15.4151   26.3505 C.ar    1  UNL1        0.0000
     23 C          -8.8175  -16.9007   26.2993 C.ar    1  UNL1        0.0000
     24 C          -8.4417  -17.6660   25.0651 C.ar    1  UNL1        0.0000
     25 O          -4.2949  -18.1827   24.1915 O.co2   1  UNL1       -0.5445
     26 C          -4.9753  -17.3194   23.1709 C.2     1  UNL1        0.0756
     27 O          -4.5863  -15.8778   23.0286 O.co2   1  UNL1       -0.5445
@<TRIPOS>UNITY_ATOM_ATTR
25 1
charge -1
@<TRIPOS>BOND
     1    25    26   ar
     2    26    27   ar
     3    26     1    1
     4     1     2   ar
     5     2    13    1
     6    13    14    1
     7    14    15    1
     8    15    16    1
     9    16    17    1
    10    17    18    1
    11     2     3   ar
    12     3     4   ar
    13     4     5   ar
    14     5     6    1
    15     5     7   ar
    16     7     8   ar
    17     8     9    1
    18     8    10   ar
    19    10    11   ar
    20    11    12   ar
    21    12    19    1
    22    19    20   ar
    23    20    21   ar
    24    21    22   ar
    25    22    23   ar
    26    23    24   ar
    27    12     1   ar
    28    24    19   ar
    29    18    13    1
    30    11     4   ar
@<TRIPOS>MOLECULE
*****
 27 30 0 0 0
SMALL
GASTEIGER

@<TRIPOS>ATOM
      1 C           4.0711    0.9768   34.6243 C.ar    1  UNL1        0.0456
      2 C           3.1495    2.0985   35.0014 C.ar    1  UNL1        0.1327
      3 N           2.0988    2.5625   34.0367 N.ar    1  UNL1       -0.2298
      4 C           1.9698    1.9047   32.6947 C.ar    1  UNL1        0.0932
      5 C           0.9191    2.3687   31.7300 C.ar    1  UNL1        0.0761
      6 CL         -0.0026    3.4904   32.1071 Cl      1  UNL1       -0.0806
      7 C           0.7902    1.7109   30.3881 C.ar    1  UNL1        0.0243
      8 C           1.7118    0.5892   30.0110 C.ar    1  UNL1        0.0586
      9 CL          1.5828   -0.0686   28.6690 Cl      1  UNL1       -0.0822
     10 C           2.7625    0.1252   30.9757 C.ar    1  UNL1        0.0129
     11 C           2.8915    0.7830   32.3176 C.ar    1  UNL1        0.0195
     12 C           3.9422    0.3190   33.2825 C.ar    1  UNL1        0.0053
     13 N           3.2785    2.7563   36.3434 N.pl3   1  UNL1       -0.2932
     14 C           4.1548    3.9627   36.5062 C.3     1  UNL1        0.0922
     15 C           4.2837    4.6204   37.8481 C.3     1  UNL1        0.0215
     16 C           3.5364    4.0716   39.0272 C.3     1  UNL1        0.0035
     17 C           2.6601    2.8652   38.8645 C.3     1  UNL1        0.0215
     18 C           2.5311    2.2075   37.5226 C.3     1  UNL1        0.0922
     19 C           4.8639   -0.8027   32.9053 C.ar    1  UNL1        0.0002
     20 C           4.4952   -2.2191   33.2340 C.ar    1  UNL1        0.0000
     21 C           5.4169   -3.3408   32.8569 C.ar    1  UNL1        0.0000
     22 C           6.7073   -3.0462   32.1511 C.ar    1  UNL1        0.0000
     23 C           7.0759   -1.6298   31.8224 C.ar    1  UNL1        0.0000
     24 C           6.1542   -0.5081   32.1995 C.ar    1  UNL1        0.0000
     25 O           4.7935   -0.5390   36.6069 O.co2   1  UNL1       -0.5445
     26 C           5.1219    0.5128   35.5892 C.2     1  UNL1        0.0756
     27 O           6.5008    1.1007   35.5362 O.co2   1  UNL1       -0.5445
@<TRIPOS>UNITY_ATOM_ATTR
25 1
charge -1
@<TRIPOS>BOND
     1    25    26   ar
     2    26    27   ar
     3    26     1    1
     4     1     2   ar
     5     2    13    1
     6    13    14    1
     7    14    15    1
     8    15    16    1
     9    16    17    1
    10    17    18    1
    11     2     3   ar
    12     3     4   ar
    13     4     5   ar
    14     5     6    1
    15     5     7   ar
    16     7     8   ar
    17     8     9    1
    18     8    10   ar
    19    10    11   ar
    20    11    12   ar
    21    12    19    1
    22    19    20   ar
    23    20    21   ar
    24    21    22   ar
    25    22    23   ar
    26    23    24   ar
    27    12     1   ar
    28    24    19   ar
    29    18    13    1
    30    11     4   ar
@<TRIPOS>MOLECULE
*****
 27 30 0 0 0
SMALL
GASTEIGER

@<TRIPOS>ATOM
      1 C           5.6344   -2.5384   23.4986 C.ar    1  UNL1        0.0456
      2 C           6.0742   -3.5851   22.5184 C.ar    1  UNL1        0.1327
      3 N           6.8139   -4.7986   22.9983 N.ar    1  UNL1       -0.2298
      4 C           7.1138   -4.9653   24.4586 C.ar    1  UNL1        0.0932
      5 C           7.8535   -6.1787   24.9385 C.ar    1  UNL1        0.0761
      6 CL          8.2933   -7.2255   23.9582 Cl      1  UNL1       -0.0806
      7 C           8.1534   -6.3454   26.3987 C.ar    1  UNL1        0.0243
      8 C           7.7136   -5.2987   27.3790 C.ar    1  UNL1        0.0586
      9 CL          8.0135   -5.4655   28.8392 Cl      1  UNL1       -0.0822
     10 C           6.9739   -4.0853   26.8990 C.ar    1  UNL1        0.0129
     11 C           6.6740   -3.9186   25.4388 C.ar    1  UNL1        0.0195
     12 C           5.9343   -2.7051   24.9588 C.ar    1  UNL1        0.0053
     13 N           5.7742   -3.4184   21.0581 N.pl3   1  UNL1       -0.2932
     14 C           4.5106   -3.9856   20.4824 C.3     1  UNL1        0.0922
     15 C           4.2107   -3.8188   19.0222 C.3     1  UNL1        0.0215
     16 C           5.1745   -3.0849   18.1377 C.3     1  UNL1        0.0035
     17 C           6.4382   -2.5176   18.7133 C.3     1  UNL1        0.0215
     18 C           6.7380   -2.6844   20.1735 C.3     1  UNL1        0.0922
     19 C           5.4945   -1.6584   25.9391 C.ar    1  UNL1        0.0002
     20 C           4.1271   -1.7318   26.5517 C.ar    1  UNL1        0.0000
     21 C           3.6873   -0.6850   27.5319 C.ar    1  UNL1        0.0000
     22 C           4.6148    0.4351   27.8996 C.ar    1  UNL1        0.0000
     23 C           5.9821    0.5085   27.2870 C.ar    1  UNL1        0.0000
     24 C           6.4219   -0.5383   26.3068 C.ar    1  UNL1        0.0000
     25 O           3.3989   -1.3529   22.9093 O.co2   1  UNL1       -0.5445
     26 C           4.8946   -1.3249   23.0186 C.2     1  UNL1        0.0756
     27 O           5.6507   -0.0836   22.6479 O.co2   1  UNL1       -0.5445
@<TRIPOS>UNITY_ATOM_ATTR
25 1
charge -1
@<TRIPOS>BOND
     1    25    26   ar
     2    26    27   ar
     3    26     1    1
     4     1     2   ar
     5     2    13    1
     6    13    14    1
     7    14    15    1
     8    15    16    1
     9    16    17    1
    10    17    18    1
    11     2     3   ar
    12     3     4   ar
    13     4     5   ar
    14     5     6    1
    15     5     7   ar
    16     7     8   ar
    17     8     9    1
    18     8    10   ar
    19    10    11   ar
    20    11    12   ar
    21    12    19    1
    22    19    20   ar
    23    20    21   ar
    24    21    22   ar
    25    22    23   ar
    26    23    24   ar
    27    12     1   ar
    28    24    19   ar
    29    18    13    1
    30    11     4   ar
@<TRIPOS>MOLECULE
*****
 27 30 0 0 0
SMALL
GASTEIGER

@<TRIPOS>ATOM
      1 C          -0.3020    2.8038   22.7354 C.ar    1  UNL1        0.0456
      2 C          -0.7118    2.5851   21.3091 C.ar    1  UNL1        0.1327
      3 N          -2.1261    2.8506   20.8859 N.ar    1  UNL1       -0.2298
      4 C          -3.1307    3.3349   21.8890 C.ar    1  UNL1        0.0932
      5 C          -4.5451    3.6005   21.4658 C.ar    1  UNL1        0.0761
      6 CL         -4.9548    3.3817   20.0395 Cl      1  UNL1       -0.0806
      7 C          -5.5497    4.0848   22.4689 C.ar    1  UNL1        0.0243
      8 C          -5.1399    4.3035   23.8951 C.ar    1  UNL1        0.0586
      9 CL         -6.1446    4.7878   24.8982 Cl      1  UNL1       -0.0822
     10 C          -3.7256    4.0380   24.3183 C.ar    1  UNL1        0.0129
     11 C          -2.7210    3.5537   23.3153 C.ar    1  UNL1        0.0195
     12 C          -1.3066    3.2881   23.7384 C.ar    1  UNL1        0.0053
     13 N           0.2929    2.1008   20.3060 N.pl3   1  UNL1       -0.2932
     14 C           1.1355    3.0866   19.5524 C.3     1  UNL1        0.0922
     15 C           2.1402    2.6023   18.5493 C.3     1  UNL1        0.0215
     16 C           2.3021    1.1321   18.2999 C.3     1  UNL1        0.0035
     17 C           1.4595    0.1462   19.0535 C.3     1  UNL1        0.0215
     18 C           0.4549    0.6305   20.0566 C.3     1  UNL1        0.0922
     19 C          -0.8969    3.5069   25.1647 C.ar    1  UNL1        0.0002
     20 C          -0.4159    4.8567   25.6083 C.ar    1  UNL1        0.0000
     21 C          -0.0061    5.0755   27.0345 C.ar    1  UNL1        0.0000
     22 C          -0.0774    3.9444   28.0173 C.ar    1  UNL1        0.0000
     23 C          -0.5584    2.5947   27.5737 C.ar    1  UNL1        0.0000
     24 C          -0.9681    2.3759   26.1474 C.ar    1  UNL1        0.0000
     25 O           2.1280    3.6413   23.1147 O.co2   1  UNL1       -0.5445
     26 C           1.1124    2.5383   23.1585 C.2     1  UNL1        0.0756
     27 O           1.5111    1.1697   23.6255 O.co2   1  UNL1       -0.5445
@<TRIPOS>UNITY_ATOM_ATTR
25 1
charge -1
@<TRIPOS>BOND
     1    25    26   ar
     2    26    27   ar
     3    26     1    1
     4     1     2   ar
     5     2    13    1
     6    13    14    1
     7    14    15    1
     8    15    16    1
     9    16    17    1
    10    17    18    1
    11     2     3   ar
    12     3     4   ar
    13     4     5   ar
    14     5     6    1
    15     5     7   ar
    16     7     8   ar
    17     8     9    1
    18     8    10   ar
    19    10    11   ar
    20    11    12   ar
    21    12    19    1
    22    19    20   ar
    23    20    21   ar
    24    21    22   ar
    25    22    23   ar
    26    23    24   ar
    27    12     1   ar
    28    24    19   ar
    29    18    13    1
    30    11     4   ar
@<TRIPOS>MOLECULE
*****
 27 30 0 0 0
SMALL
GASTEIGER

@<TRIPOS>ATOM
      1 C           2.2989    0.7057   20.5211 C.ar    1  UNL1        0.0456
      2 C           1.5638    1.5973   21.4776 C.ar    1  UNL1        0.1327
      3 N           1.7457    1.4227   22.9562 N.ar    1  UNL1       -0.2298
      4 C           2.6627    0.3566   23.4784 C.ar    1  UNL1        0.0932
      5 C           2.8446    0.1820   24.9570 C.ar    1  UNL1        0.0761
      6 CL          2.1096    1.0735   25.9136 Cl      1  UNL1       -0.0806
      7 C           3.7616   -0.8841   25.4791 C.ar    1  UNL1        0.0243
      8 C           4.4966   -1.7756   24.5226 C.ar    1  UNL1        0.0586
      9 CL          5.4136   -2.8417   25.0448 Cl      1  UNL1       -0.0822
     10 C           4.3147   -1.6010   23.0440 C.ar    1  UNL1        0.0129
     11 C           3.3977   -0.5350   22.5219 C.ar    1  UNL1        0.0195
     12 C           3.2158   -0.3603   21.0432 C.ar    1  UNL1        0.0053
     13 N           0.6469    2.6634   20.9554 N.pl3   1  UNL1       -0.2932
     14 C          -0.8118    2.3705   20.7643 C.3     1  UNL1        0.0922
     15 C          -1.7287    3.4366   20.2422 C.3     1  UNL1        0.0215
     16 C          -1.1869    4.7956   19.9111 C.3     1  UNL1        0.0035
     17 C           0.2717    5.0885   20.1022 C.3     1  UNL1        0.0215
     18 C           1.1886    4.0224   20.6244 C.3     1  UNL1        0.0922
     19 C           3.9508   -1.2518   20.0867 C.ar    1  UNL1        0.0002
     20 C           5.2857   -0.8328   19.5457 C.ar    1  UNL1        0.0000
     21 C           6.0207   -1.7243   18.5892 C.ar    1  UNL1        0.0000
     22 C           5.4209   -3.0349   18.1736 C.ar    1  UNL1        0.0000
     23 C           4.0861   -3.4539   18.7146 C.ar    1  UNL1        0.0000
     24 C           3.3511   -2.5624   19.6711 C.ar    1  UNL1        0.0000
     25 O           3.1413    1.6310   18.2442 O.co2   1  UNL1       -0.5445
     26 C           2.1169    0.8804   19.0424 C.2     1  UNL1        0.0756
     27 O           0.9106    0.3044   18.3620 O.co2   1  UNL1       -0.5445
@<TRIPOS>UNITY_ATOM_ATTR
25 1
charge -1
@<TRIPOS>BOND
     1    25    26   ar
     2    26    27   ar
     3    26     1    1
     4     1     2   ar
     5     2    13    1
     6    13    14    1
     7    14    15    1
     8    15    16    1
     9    16    17    1
    10    17    18    1
    11     2     3   ar
    12     3     4   ar
    13     4     5   ar
    14     5     6    1
    15     5     7   ar
    16     7     8   ar
    17     8     9    1
    18     8    10   ar
    19    10    11   ar
    20    11    12   ar
    21    12    19    1
    22    19    20   ar
    23    20    21   ar
    24    21    22   ar
    25    22    23   ar
    26    23    24   ar
    27    12     1   ar
    28    24    19   ar
    29    18    13    1
    30    11     4   ar
@<TRIPOS>MOLECULE
*****
 27 30 0 0 0
SMALL
GASTEIGER

@<TRIPOS>ATOM
      1 C           2.3464    1.5361   31.5772 C.ar    1  UNL1        0.0456
      2 C           1.1688    2.2876   31.0308 C.ar    1  UNL1        0.1327
      3 N           0.5630    3.4097   31.8205 N.ar    1  UNL1       -0.2298
      4 C           1.1348    3.7805   33.1568 C.ar    1  UNL1        0.0932
      5 C           0.5291    4.9027   33.9465 C.ar    1  UNL1        0.0761
      6 CL         -0.6485    5.6541   33.4001 Cl      1  UNL1       -0.0806
      7 C           1.1009    5.2734   35.2828 C.ar    1  UNL1        0.0243
      8 C           2.2785    4.5220   35.8292 C.ar    1  UNL1        0.0586
      9 CL          2.8503    4.8928   37.1655 Cl      1  UNL1       -0.0822
     10 C           2.8842    3.3998   35.0395 C.ar    1  UNL1        0.0129
     11 C           2.3124    3.0291   33.7033 C.ar    1  UNL1        0.0195
     12 C           2.9182    1.9069   32.9135 C.ar    1  UNL1        0.0053
     13 N           0.5970    1.9168   29.6944 N.pl3   1  UNL1       -0.2932
     14 C          -0.4275    0.8258   29.5936 C.3     1  UNL1        0.0922
     15 C          -0.9993    0.4551   28.2574 C.3     1  UNL1        0.0215
     16 C          -0.5465    1.1753   27.0219 C.3     1  UNL1        0.0035
     17 C           0.4779    2.2663   27.1228 C.3     1  UNL1        0.0215
     18 C           1.0497    2.6370   28.4590 C.3     1  UNL1        0.0922
     19 C           4.0958    1.1554   33.4599 C.ar    1  UNL1        0.0002
     20 C           3.8820   -0.0983   34.2554 C.ar    1  UNL1        0.0000
     21 C           5.0595   -0.8497   34.8019 C.ar    1  UNL1        0.0000
     22 C           6.4509   -0.3475   34.5529 C.ar    1  UNL1        0.0000
     23 C           6.6646    0.9061   33.7575 C.ar    1  UNL1        0.0000
     24 C           5.4871    1.6576   33.2110 C.ar    1  UNL1        0.0000
     25 O           4.0826    0.6881   29.8405 O.co2   1  UNL1       -0.5445
     26 C           2.9521    0.4139   30.7874 C.2     1  UNL1        0.0756
     27 O           2.4274   -0.9825   30.9446 O.co2   1  UNL1       -0.5445
@<TRIPOS>UNITY_ATOM_ATTR
25 1
charge -1
@<TRIPOS>BOND
     1    25    26   ar
     2    26    27   ar
     3    26     1    1
     4     1     2   ar
     5     2    13    1
     6    13    14    1
     7    14    15    1
     8    15    16    1
     9    16    17    1
    10    17    18    1
    11     2     3   ar
    12     3     4   ar
    13     4     5   ar
    14     5     6    1
    15     5     7   ar
    16     7     8   ar
    17     8     9    1
    18     8    10   ar
    19    10    11   ar
    20    11    12   ar
    21    12    19    1
    22    19    20   ar
    23    20    21   ar
    24    21    22   ar
    25    22    23   ar
    26    23    24   ar
    27    12     1   ar
    28    24    19   ar
    29    18    13    1
    30    11     4   ar
@<TRIPOS>MOLECULE
*****
 27 30 0 0 0
SMALL
GASTEIGER

@<TRIPOS>ATOM
      1 C           3.4978   -0.8366   22.4185 C.ar    1  UNL1        0.0456
      2 C           3.3232   -0.0998   23.7134 C.ar    1  UNL1        0.1327
      3 N           4.0302   -0.5750   24.9479 N.ar    1  UNL1       -0.2298
      4 C           4.9119   -1.7871   24.8877 C.ar    1  UNL1        0.0932
      5 C           5.6189   -2.2623   26.1223 C.ar    1  UNL1        0.0761
      6 CL          5.4443   -1.5255   27.4172 Cl      1  UNL1       -0.0806
      7 C           6.5006   -3.4743   26.0621 C.ar    1  UNL1        0.0243
      8 C           6.6752   -4.2111   24.7672 C.ar    1  UNL1        0.0586
      9 CL          7.5569   -5.4232   24.7070 Cl      1  UNL1       -0.0822
     10 C           5.9682   -3.7359   23.5326 C.ar    1  UNL1        0.0129
     11 C           5.0865   -2.5239   23.5929 C.ar    1  UNL1        0.0195
     12 C           4.3794   -2.0486   22.3583 C.ar    1  UNL1        0.0053
     13 N           2.4415    1.1123   23.7736 N.pl3   1  UNL1       -0.2932
     14 C           3.0073    2.4673   23.4675 C.3     1  UNL1        0.0922
     15 C           2.1256    3.6793   23.5277 C.3     1  UNL1        0.0215
     16 C           0.6781    3.5362   23.8940 C.3     1  UNL1        0.0035
     17 C           0.1122    2.1812   24.2000 C.3     1  UNL1        0.0215
     18 C           0.9939    0.9692   24.1398 C.3     1  UNL1        0.0922
     19 C           4.5541   -2.7854   21.0634 C.ar    1  UNL1        0.0002
     20 C           3.7320   -4.0075   20.7791 C.ar    1  UNL1        0.0000
     21 C           3.9066   -4.7443   19.4843 C.ar    1  UNL1        0.0000
     22 C           4.9033   -4.2590   18.4737 C.ar    1  UNL1        0.0000
     23 C           5.7254   -3.0370   18.7581 C.ar    1  UNL1        0.0000
     24 C           5.5508   -2.3002   20.0529 C.ar    1  UNL1        0.0000
     25 O           3.3988    0.7200   20.3407 O.co2   1  UNL1       -0.5445
     26 C           2.7907   -0.3613   21.1839 C.2     1  UNL1        0.0756
     27 O           1.4757   -0.9674   20.7925 O.co2   1  UNL1       -0.5445
@<TRIPOS>UNITY_ATOM_ATTR
25 1
charge -1
@<TRIPOS>BOND
     1    25    26   ar
     2    26    27   ar
     3    26     1    1
     4     1     2   ar
     5     2    13    1
     6    13    14    1
     7    14    15    1
     8    15    16    1
     9    16    17    1
    10    17    18    1
    11     2     3   ar
    12     3     4   ar
    13     4     5   ar
    14     5     6    1
    15     5     7   ar
    16     7     8   ar
    17     8     9    1
    18     8    10   ar
    19    10    11   ar
    20    11    12   ar
    21    12    19    1
    22    19    20   ar
    23    20    21   ar
    24    21    22   ar
    25    22    23   ar
    26    23    24   ar
    27    12     1   ar
    28    24    19   ar
    29    18    13    1
    30    11     4   ar
@<TRIPOS>MOLECULE
*****
 27 30 0 0 0
SMALL
GASTEIGER

@<TRIPOS>ATOM
      1 C           5.1455   -1.9314   23.5626 C.ar    1  UNL1        0.0456
      2 C           4.8906   -1.1509   24.8179 C.ar    1  UNL1        0.1327
      3 N           3.7373   -0.1943   24.8851 N.ar    1  UNL1       -0.2298
      4 C           2.8388   -0.0181   23.6969 C.ar    1  UNL1        0.0932
      5 C           1.6854    0.9386   23.7641 C.ar    1  UNL1        0.0761
      6 CL          1.4305    1.7191   25.0194 Cl      1  UNL1       -0.0806
      7 C           0.7870    1.1147   22.5759 C.ar    1  UNL1        0.0243
      8 C           1.0419    0.3342   21.3206 C.ar    1  UNL1        0.0586
      9 CL          0.1434    0.5104   20.1324 Cl      1  UNL1       -0.0822
     10 C           2.1953   -0.6224   21.2534 C.ar    1  UNL1        0.0129
     11 C           3.0937   -0.7986   22.4416 C.ar    1  UNL1        0.0195
     12 C           4.2471   -1.7553   22.3744 C.ar    1  UNL1        0.0053
     13 N           5.7891   -1.3272   26.0061 N.pl3   1  UNL1       -0.2932
     14 C           5.4237   -2.3036   27.0845 C.3     1  UNL1        0.0922
     15 C           6.3222   -2.4798   28.2726 C.3     1  UNL1        0.0215
     16 C           7.5861   -1.6795   28.3823 C.3     1  UNL1        0.0035
     17 C           7.9515   -0.7030   27.3040 C.3     1  UNL1        0.0215
     18 C           7.0530   -0.5268   26.1159 C.3     1  UNL1        0.0922
     19 C           4.5020   -2.5358   21.1191 C.ar    1  UNL1        0.0002
     20 C           3.9051   -3.9016   20.9509 C.ar    1  UNL1        0.0000
     21 C           4.1600   -4.6821   19.6956 C.ar    1  UNL1        0.0000
     22 C           5.0119   -4.0968   18.6085 C.ar    1  UNL1        0.0000
     23 C           5.6088   -2.7310   18.7767 C.ar    1  UNL1        0.0000
     24 C           5.3538   -1.9505   20.0320 C.ar    1  UNL1        0.0000
     25 O           7.5865   -2.4665   22.8518 O.co2   1  UNL1       -0.5445
     26 C           6.2990   -2.8881   23.4955 C.2     1  UNL1        0.0756
     27 O           6.1648   -4.2663   24.0720 O.co2   1  UNL1       -0.5445
@<TRIPOS>UNITY_ATOM_ATTR
25 1
charge -1
@<TRIPOS>BOND
     1    25    26   ar
     2    26    27   ar
     3    26     1    1
     4     1     2   ar
     5     2    13    1
     6    13    14    1
     7    14    15    1
     8    15    16    1
     9    16    17    1
    10    17    18    1
    11     2     3   ar
    12     3     4   ar
    13     4     5   ar
    14     5     6    1
    15     5     7   ar
    16     7     8   ar
    17     8     9    1
    18     8    10   ar
    19    10    11   ar
    20    11    12   ar
    21    12    19    1
    22    19    20   ar
    23    20    21   ar
    24    21    22   ar
    25    22    23   ar
    26    23    24   ar
    27    12     1   ar
    28    24    19   ar
    29    18    13    1
    30    11     4   ar
