@<TRIPOS>MOLECULE
*****
 34 37 0 0 0
SMALL
GASTEIGER

@<TRIPOS>ATOM
      1 C         -13.6073   -4.9240   20.4862 C.3     1  UNL1        0.0553
      2 C         -13.5576   -6.0761   19.5269 C.ar    1  UNL1        0.0931
      3 N         -14.7901   -6.8910   19.2690 N.ar    1  UNL1       -0.2450
      4 C         -14.7404   -8.0431   18.3097 C.ar    1  UNL1        0.1018
      5 C         -13.4581   -8.3802   17.6083 C.ar    1  UNL1        0.0239
      6 C         -12.2255   -7.5653   17.8662 C.ar    1  UNL1        0.0397
      7 C         -12.2753   -6.4132   18.8255 C.ar    1  UNL1        0.1518
      8 C         -15.9731   -8.8581   18.0519 C.ar    1  UNL1        0.1387
      9 N         -16.2971  -10.1862   18.6691 N.ar    1  UNL1       -0.1275
     10 N         -17.6224  -10.6369   18.1302 N.ar    1  UNL1       -0.0639
     11 N         -18.1175   -9.5872   17.1798 N.ar    1  UNL1       -0.2301
     12 C         -19.4058   -9.6296   16.4126 C.3     1  UNL1        0.1552
     13 C         -17.0982   -8.4879   17.1314 C.ar    1  UNL1        0.1218
     14 C         -17.1882   -7.2378   16.3073 C.3     1  UNL1        0.2569
     15 O         -17.9839   -6.0675   16.8043 O.3     1  UNL1       -0.4278
     16 C         -17.3450   -5.0558   17.7088 C.2     1  UNL1        0.4053
     17 O         -16.0209   -4.4531   17.3432 O.2     1  UNL1       -0.2262
     18 N         -18.0301   -4.6468   18.9790 N.am    1  UNL1       -0.2443
     19 C         -17.3911   -3.6351   19.8835 C.3     1  UNL1        0.1183
     20 C         -19.3541   -5.2495   19.3446 C.3     1  UNL1        0.0967
     21 C         -19.4404   -6.6996   19.7186 C.3     1  UNL1        0.0200
     22 C         -18.5394   -7.6680   20.4261 C.3     1  UNL1        0.0017
     23 C         -19.5625   -8.7503   20.2475 C.3     1  UNL1        0.0001
     24 C         -20.4634   -7.7819   19.5400 C.3     1  UNL1        0.0017
     25 O         -11.0426   -5.5982   19.0834 O.3     1  UNL1       -0.4780
     26 C         -10.6673   -4.4889   18.1462 C.3     1  UNL1        0.1663
     27 C          -9.6251   -4.7179   17.0919 C.3     1  UNL1        0.0435
     28 C          -9.2498   -3.6086   16.1547 C.3     1  UNL1        0.0041
     29 C          -9.9167   -2.2701   16.2717 C.3     1  UNL1        0.0058
     30 C         -10.9589   -2.0409   17.3259 C.3     1  UNL1        0.0401
     31 C         -11.3342   -3.1504   18.2631 C.3     1  UNL1        0.0490
     32 C         -11.6258   -0.7025   17.4428 C.2     1  UNL1        0.0501
     33 O         -12.4866   -0.3948   18.6321 O.co2   1  UNL1       -0.5492
     34 O         -11.4318    0.3284   16.3706 O.co2   1  UNL1       -0.5492
@<TRIPOS>UNITY_ATOM_ATTR
33 1
charge -1
@<TRIPOS>BOND
     1     1     2    1
     2     2     3   ar
     3     3     4   ar
     4     4     8    1
     5     8     9   ar
     6     9    10   ar
     7    10    11   ar
     8    11    12    1
     9    11    13   ar
    10    13    14    1
    11    14    15    1
    12    15    16    1
    13    16    17    2
    14    16    18   am
    15    18    19    1
    16    18    20    1
    17    20    21    1
    18    21    22    1
    19    22    23    1
    20    23    24    1
    21     4     5   ar
    22     5     6   ar
    23     6     7   ar
    24     7    25    1
    25    26    25    1
    26    26    27    1
    27    27    28    1
    28    28    29    1
    29    29    30    1
    30    30    32    1
    31    32    33   ar
    32    32    34   ar
    33    30    31    1
    34     7     2   ar
    35    31    26    1
    36    13     8   ar
    37    24    21    1
@<TRIPOS>MOLECULE
*****
 34 37 0 0 0
SMALL
GASTEIGER

@<TRIPOS>ATOM
      1 C         -13.7013   -3.8600   20.7280 C.3     1  UNL1        0.0553
      2 C         -13.4126   -5.0406   19.8489 C.ar    1  UNL1        0.0931
      3 N         -14.4325   -6.1300   19.6972 N.ar    1  UNL1       -0.2450
      4 C         -14.1438   -7.3106   18.8181 C.ar    1  UNL1        0.1018
      5 C         -12.8353   -7.4018   18.0906 C.ar    1  UNL1        0.0239
      6 C         -11.8154   -6.3124   18.2422 C.ar    1  UNL1        0.0397
      7 C         -12.1041   -5.1318   19.1214 C.ar    1  UNL1        0.1518
      8 C         -15.1638   -8.4000   18.6665 C.ar    1  UNL1        0.1387
      9 N         -14.8750   -9.8464   18.3935 N.ar    1  UNL1       -0.1275
     10 N         -16.1844  -10.5745   18.3196 N.ar    1  UNL1       -0.0639
     11 N         -17.2824   -9.5781   18.5468 N.ar    1  UNL1       -0.2301
     12 C         -18.7529   -9.8738   18.5577 C.3     1  UNL1        0.1552
     13 C         -16.6516   -8.2342   18.7612 C.ar    1  UNL1        0.1218
     14 C         -17.3807   -6.9500   19.0242 C.3     1  UNL1        0.2569
     15 O         -17.7111   -6.0287   17.8875 O.3     1  UNL1       -0.4278
     16 C         -16.6212   -5.2514   17.2109 C.2     1  UNL1        0.4053
     17 O         -15.9133   -5.8313   16.0224 O.2     1  UNL1       -0.2262
     18 N         -16.2392   -3.8942   17.7228 N.am    1  UNL1       -0.2443
     19 C         -15.1493   -3.1169   17.0461 C.3     1  UNL1        0.1183
     20 C         -16.9471   -3.3143   18.9113 C.3     1  UNL1        0.0967
     21 C         -16.8727   -1.8410   19.1832 C.3     1  UNL1        0.0200
     22 C         -16.0013   -0.9613   20.0298 C.3     1  UNL1        0.0017
     23 C         -16.7676    0.2425   19.5677 C.3     1  UNL1        0.0001
     24 C         -17.6390   -0.6372   18.7211 C.3     1  UNL1        0.0017
     25 O         -11.0841   -4.0424   19.2730 O.3     1  UNL1       -0.4780
     26 C         -10.9642   -2.9761   18.2249 C.3     1  UNL1        0.1663
     27 C         -10.0827   -3.1936   17.0309 C.3     1  UNL1        0.0435
     28 C          -9.9628   -2.1273   15.9828 C.3     1  UNL1        0.0041
     29 C         -10.7245   -0.8433   16.1287 C.3     1  UNL1        0.0058
     30 C         -11.6060   -0.6257   17.3227 C.3     1  UNL1        0.0401
     31 C         -11.7259   -1.6921   18.3708 C.3     1  UNL1        0.0490
     32 C         -12.3677    0.6583   17.4685 C.2     1  UNL1        0.0501
     33 O         -13.8288    0.6293   17.8069 O.co2   1  UNL1       -0.5492
     34 O         -11.6683    1.9712   17.2761 O.co2   1  UNL1       -0.5492
@<TRIPOS>UNITY_ATOM_ATTR
33 1
charge -1
@<TRIPOS>BOND
     1     1     2    1
     2     2     3   ar
     3     3     4   ar
     4     4     8    1
     5     8     9   ar
     6     9    10   ar
     7    10    11   ar
     8    11    12    1
     9    11    13   ar
    10    13    14    1
    11    14    15    1
    12    15    16    1
    13    16    17    2
    14    16    18   am
    15    18    19    1
    16    18    20    1
    17    20    21    1
    18    21    22    1
    19    22    23    1
    20    23    24    1
    21     4     5   ar
    22     5     6   ar
    23     6     7   ar
    24     7    25    1
    25    26    25    1
    26    26    27    1
    27    27    28    1
    28    28    29    1
    29    29    30    1
    30    30    32    1
    31    32    33   ar
    32    32    34   ar
    33    30    31    1
    34     7     2   ar
    35    31    26    1
    36    13     8   ar
    37    24    21    1
@<TRIPOS>MOLECULE
*****
 34 37 0 0 0
SMALL
GASTEIGER

@<TRIPOS>ATOM
      1 C           4.6856    2.2676   25.3191 C.3     1  UNL1        0.0553
      2 C           4.1208    1.2341   24.3902 C.ar    1  UNL1        0.0931
      3 N           4.9762    0.0906   23.9313 N.ar    1  UNL1       -0.2450
      4 C           4.4114   -0.9429   23.0024 C.ar    1  UNL1        0.1018
      5 C           2.9913   -0.8329   22.5324 C.ar    1  UNL1        0.0239
      6 C           2.1359    0.3106   22.9913 C.ar    1  UNL1        0.0397
      7 C           2.7007    1.3441   23.9202 C.ar    1  UNL1        0.1518
      8 C           5.2669   -2.0865   22.5436 C.ar    1  UNL1        0.1387
      9 N           5.0561   -3.5340   22.8757 N.ar    1  UNL1       -0.1275
     10 N           6.1422   -4.3254   22.2094 N.ar    1  UNL1       -0.0639
     11 N           7.0244   -3.3670   21.4655 N.ar    1  UNL1       -0.2301
     12 C           8.2349   -3.7288   20.6570 C.3     1  UNL1        0.1552
     13 C           6.4834   -1.9833   21.6720 C.ar    1  UNL1        0.1218
     14 C           7.0580   -0.7185   21.1063 C.3     1  UNL1        0.2569
     15 O           7.2438   -0.5761   19.6248 O.3     1  UNL1       -0.4278
     16 C           6.1042   -0.1115   18.7671 C.2     1  UNL1        0.4053
     17 O           5.7396    1.3429   18.7277 O.2     1  UNL1       -0.2262
     18 N           5.3293   -1.1015   17.9489 N.am    1  UNL1       -0.2443
     19 C           4.1897   -0.6369   17.0913 C.3     1  UNL1        0.1183
     20 C           5.6939   -2.5560   17.9883 C.3     1  UNL1        0.0967
     21 C           4.7835   -3.5394   18.6622 C.3     1  UNL1        0.0200
     22 C           4.7420   -5.0336   18.7869 C.3     1  UNL1        0.0017
     23 C           3.4958   -4.9299   19.6152 C.3     1  UNL1        0.0001
     24 C           3.5373   -3.4357   19.4905 C.3     1  UNL1        0.0017
     25 O           1.8452    2.4877   24.3790 O.3     1  UNL1       -0.4780
     26 C           0.8048    2.2687   25.4371 C.3     1  UNL1        0.1663
     27 C          -0.4619    3.0720   25.4211 C.3     1  UNL1        0.0435
     28 C          -1.5023    2.8530   26.4792 C.3     1  UNL1        0.0041
     29 C          -1.2761    1.8306   27.5532 C.3     1  UNL1        0.0058
     30 C          -0.0094    1.0273   27.5692 C.3     1  UNL1        0.0401
     31 C           1.0310    1.2463   26.5111 C.3     1  UNL1        0.0490
     32 C           0.2168    0.0049   28.6433 C.2     1  UNL1        0.0501
     33 O          -0.9436   -0.5187   29.4367 O.co2   1  UNL1       -0.5492
     34 O           1.6033   -0.4938   28.9240 O.co2   1  UNL1       -0.5492
@<TRIPOS>UNITY_ATOM_ATTR
33 1
charge -1
@<TRIPOS>BOND
     1     1     2    1
     2     2     3   ar
     3     3     4   ar
     4     4     8    1
     5     8     9   ar
     6     9    10   ar
     7    10    11   ar
     8    11    12    1
     9    11    13   ar
    10    13    14    1
    11    14    15    1
    12    15    16    1
    13    16    17    2
    14    16    18   am
    15    18    19    1
    16    18    20    1
    17    20    21    1
    18    21    22    1
    19    22    23    1
    20    23    24    1
    21     4     5   ar
    22     5     6   ar
    23     6     7   ar
    24     7    25    1
    25    26    25    1
    26    26    27    1
    27    27    28    1
    28    28    29    1
    29    29    30    1
    30    30    32    1
    31    32    33   ar
    32    32    34   ar
    33    30    31    1
    34     7     2   ar
    35    31    26    1
    36    13     8   ar
    37    24    21    1
@<TRIPOS>MOLECULE
*****
 34 37 0 0 0
SMALL
GASTEIGER

@<TRIPOS>ATOM
      1 C           3.5421   -3.8744   18.9746 C.3     1  UNL1        0.0553
      2 C           4.9676   -3.5919   19.3465 C.ar    1  UNL1        0.0931
      3 N           5.6216   -4.3659   20.4524 N.ar    1  UNL1       -0.2450
      4 C           7.0471   -4.0834   20.8244 C.ar    1  UNL1        0.1018
      5 C           7.8185   -3.0270   20.0904 C.ar    1  UNL1        0.0239
      6 C           7.1644   -2.2530   18.9844 C.ar    1  UNL1        0.0397
      7 C           5.7390   -2.5355   18.6125 C.ar    1  UNL1        0.1518
      8 C           7.7011   -4.8575   21.9304 C.ar    1  UNL1        0.1387
      9 N           8.7336   -5.9326   21.7632 N.ar    1  UNL1       -0.1275
     10 N           9.1081   -6.4318   23.1272 N.ar    1  UNL1       -0.0639
     11 N           8.3069   -5.6652   24.1375 N.ar    1  UNL1       -0.2301
     12 C           8.3651   -5.8408   25.6260 C.3     1  UNL1        0.1552
     13 C           7.4374   -4.6923   23.3977 C.ar    1  UNL1        0.1218
     14 C           6.4733   -3.7240   24.0168 C.3     1  UNL1        0.2569
     15 O           6.9820   -2.6062   24.8779 O.3     1  UNL1       -0.4278
     16 C           6.0840   -1.9822   25.9048 C.2     1  UNL1        0.4053
     17 O           5.9429   -2.6113   27.2591 O.2     1  UNL1       -0.2262
     18 N           5.3273   -0.7292   25.5772 N.am    1  UNL1       -0.2443
     19 C           4.4294   -0.1053   26.6041 C.3     1  UNL1        0.1183
     20 C           5.4685   -0.1002   24.2228 C.3     1  UNL1        0.0967
     21 C           4.5577   -0.5141   23.1051 C.3     1  UNL1        0.0200
     22 C           4.6896   -0.6248   21.6150 C.3     1  UNL1        0.0017
     23 C           3.2695   -1.0994   21.5246 C.3     1  UNL1        0.0001
     24 C           3.1376   -0.9887   23.0147 C.3     1  UNL1        0.0017
     25 O           5.0849   -1.7614   17.5065 O.3     1  UNL1       -0.4780
     26 C           4.5222   -0.3975   17.7766 C.3     1  UNL1        0.1663
     27 C           5.4164    0.8059   17.7281 C.3     1  UNL1        0.0435
     28 C           4.8537    2.1698   17.9982 C.3     1  UNL1        0.0041
     29 C           3.3968    2.3304   18.3168 C.3     1  UNL1        0.0058
     30 C           2.5025    1.1271   18.3653 C.3     1  UNL1        0.0401
     31 C           3.0653   -0.2369   18.0952 C.3     1  UNL1        0.0490
     32 C           1.0456    1.2877   18.6839 C.2     1  UNL1        0.0501
     33 O           0.2385    2.3453   17.9909 O.co2   1  UNL1       -0.5492
     34 O           0.3958    0.3909   19.6955 O.co2   1  UNL1       -0.5492
@<TRIPOS>UNITY_ATOM_ATTR
33 1
charge -1
@<TRIPOS>BOND
     1     1     2    1
     2     2     3   ar
     3     3     4   ar
     4     4     8    1
     5     8     9   ar
     6     9    10   ar
     7    10    11   ar
     8    11    12    1
     9    11    13   ar
    10    13    14    1
    11    14    15    1
    12    15    16    1
    13    16    17    2
    14    16    18   am
    15    18    19    1
    16    18    20    1
    17    20    21    1
    18    21    22    1
    19    22    23    1
    20    23    24    1
    21     4     5   ar
    22     5     6   ar
    23     6     7   ar
    24     7    25    1
    25    26    25    1
    26    26    27    1
    27    27    28    1
    28    28    29    1
    29    29    30    1
    30    30    32    1
    31    32    33   ar
    32    32    34   ar
    33    30    31    1
    34     7     2   ar
    35    31    26    1
    36    13     8   ar
    37    24    21    1
@<TRIPOS>MOLECULE
*****
 34 37 0 0 0
SMALL
GASTEIGER

@<TRIPOS>ATOM
      1 C           3.2773    2.8491   18.3964 C.3     1  UNL1        0.0553
      2 C           2.3104    2.0626   19.2309 C.ar    1  UNL1        0.0931
      3 N           1.6297    2.7099   20.4003 N.ar    1  UNL1       -0.2450
      4 C           0.6628    1.9234   21.2349 C.ar    1  UNL1        0.1018
      5 C           0.3766    0.4896   20.9000 C.ar    1  UNL1        0.0239
      6 C           1.0573   -0.1577   19.7306 C.ar    1  UNL1        0.0397
      7 C           2.0242    0.6288   18.8961 C.ar    1  UNL1        0.1518
      8 C          -0.0179    2.5708   22.4044 C.ar    1  UNL1        0.1387
      9 N          -0.9152    3.7715   22.3483 N.ar    1  UNL1       -0.1275
     10 N          -1.3726    4.0739   23.7445 N.ar    1  UNL1       -0.0639
     11 N          -0.7581    3.0600   24.6635 N.ar    1  UNL1       -0.2301
     12 C          -0.9475    2.9878   26.1497 C.3     1  UNL1        0.1552
     13 C           0.0792    2.1311   23.8352 C.ar    1  UNL1        0.1218
     14 C           0.8740    0.9668   24.3478 C.3     1  UNL1        0.2569
     15 O           2.3592    0.9240   24.1426 O.3     1  UNL1       -0.4278
     16 C           3.1667   -0.1916   24.7369 C.2     1  UNL1        0.4053
     17 O           3.1921   -0.3897   26.2235 O.2     1  UNL1       -0.2262
     18 N           3.9487   -1.1093   23.8445 N.am    1  UNL1       -0.2443
     19 C           4.7562   -2.2250   24.4388 C.3     1  UNL1        0.1183
     20 C           3.9233   -0.9112   22.3579 C.3     1  UNL1        0.0967
     21 C           5.0529   -0.1964   21.6771 C.3     1  UNL1        0.0200
     22 C           5.1997    1.1102   20.9552 C.3     1  UNL1        0.0017
     23 C           6.6503    0.8142   20.7145 C.3     1  UNL1        0.0001
     24 C           6.5035   -0.4924   21.4364 C.3     1  UNL1        0.0017
     25 O           2.7049   -0.0186   17.7266 O.3     1  UNL1       -0.4780
     26 C           3.9648   -0.8058   17.9337 C.3     1  UNL1        0.1663
     27 C           5.2651   -0.2985   17.3843 C.3     1  UNL1        0.0435
     28 C           6.5250   -1.0857   17.5914 C.3     1  UNL1        0.0041
     29 C           6.4846   -2.3803   18.3479 C.3     1  UNL1        0.0058
     30 C           5.1844   -2.8877   18.8974 C.3     1  UNL1        0.0401
     31 C           3.9244   -2.1004   18.6903 C.3     1  UNL1        0.0490
     32 C           5.1441   -4.1823   19.6540 C.2     1  UNL1        0.0501
     33 O           5.4808   -4.2076   21.1155 O.co2   1  UNL1       -0.5492
     34 O           4.7671   -5.4515   18.9490 O.co2   1  UNL1       -0.5492
@<TRIPOS>UNITY_ATOM_ATTR
33 1
charge -1
@<TRIPOS>BOND
     1     1     2    1
     2     2     3   ar
     3     3     4   ar
     4     4     8    1
     5     8     9   ar
     6     9    10   ar
     7    10    11   ar
     8    11    12    1
     9    11    13   ar
    10    13    14    1
    11    14    15    1
    12    15    16    1
    13    16    17    2
    14    16    18   am
    15    18    19    1
    16    18    20    1
    17    20    21    1
    18    21    22    1
    19    22    23    1
    20    23    24    1
    21     4     5   ar
    22     5     6   ar
    23     6     7   ar
    24     7    25    1
    25    26    25    1
    26    26    27    1
    27    27    28    1
    28    28    29    1
    29    29    30    1
    30    30    32    1
    31    32    33   ar
    32    32    34   ar
    33    30    31    1
    34     7     2   ar
    35    31    26    1
    36    13     8   ar
    37    24    21    1
@<TRIPOS>MOLECULE
*****
 34 37 0 0 0
SMALL
GASTEIGER

@<TRIPOS>ATOM
      1 C         -13.7213   -3.2222   20.8282 C.3     1  UNL1        0.0553
      2 C         -12.9727   -2.7082   19.6343 C.ar    1  UNL1        0.0931
      3 N         -13.1731   -1.2945   19.1749 N.ar    1  UNL1       -0.2450
      4 C         -12.4245   -0.7805   17.9810 C.ar    1  UNL1        0.1018
      5 C         -11.4754   -1.6803   17.2465 C.ar    1  UNL1        0.0239
      6 C         -11.2749   -3.0941   17.7059 C.ar    1  UNL1        0.0397
      7 C         -12.0236   -3.6080   18.8998 C.ar    1  UNL1        0.1518
      8 C         -12.6250    0.6333   17.5216 C.ar    1  UNL1        0.1387
      9 N         -11.5777    1.7066   17.4888 N.ar    1  UNL1       -0.1275
     10 N         -12.2134    2.9586   16.9613 N.ar    1  UNL1       -0.0639
     11 N         -13.6537    2.6591   16.6681 N.ar    1  UNL1       -0.2301
     12 C         -14.6625    3.6268   16.1242 C.3     1  UNL1        0.1552
     13 C         -13.9081    1.2220   17.0144 C.ar    1  UNL1        0.1218
     14 C         -15.2158    0.5002   16.8775 C.3     1  UNL1        0.2569
     15 O         -16.0138    0.1555   18.0999 O.3     1  UNL1       -0.4278
     16 C         -17.4301   -0.3190   17.9619 C.2     1  UNL1        0.4053
     17 O         -18.5103    0.6469   17.5744 O.2     1  UNL1       -0.2262
     18 N         -17.7662   -1.7594   18.2115 N.am    1  UNL1       -0.2443
     19 C         -19.1824   -2.2339   18.0735 C.3     1  UNL1        0.1183
     20 C         -16.6860   -2.7253   18.5990 C.3     1  UNL1        0.0967
     21 C         -15.9623   -3.5050   17.5414 C.3     1  UNL1        0.0200
     22 C         -14.8943   -3.1908   16.5361 C.3     1  UNL1        0.0017
     23 C         -14.9390   -4.6076   16.0458 C.3     1  UNL1        0.0001
     24 C         -16.0070   -4.9218   17.0511 C.3     1  UNL1        0.0017
     25 O         -11.8231   -5.0219   19.3592 O.3     1  UNL1       -0.4780
     26 C         -12.6032   -6.1345   18.7242 C.3     1  UNL1        0.1663
     27 C         -12.1143   -6.7630   17.4530 C.3     1  UNL1        0.0435
     28 C         -12.8944   -7.8757   16.8180 C.3     1  UNL1        0.0041
     29 C         -14.1636   -8.3600   17.4542 C.3     1  UNL1        0.0058
     30 C         -14.6526   -7.7315   18.7254 C.3     1  UNL1        0.0401
     31 C         -13.8724   -6.6188   19.3604 C.3     1  UNL1        0.0490
     32 C         -15.9217   -8.2158   19.3616 C.2     1  UNL1        0.0501
     33 O         -17.0283   -7.2477   19.6593 O.co2   1  UNL1       -0.5492
     34 O         -16.0844   -9.6680   19.7001 O.co2   1  UNL1       -0.5492
@<TRIPOS>UNITY_ATOM_ATTR
33 1
charge -1
@<TRIPOS>BOND
     1     1     2    1
     2     2     3   ar
     3     3     4   ar
     4     4     8    1
     5     8     9   ar
     6     9    10   ar
     7    10    11   ar
     8    11    12    1
     9    11    13   ar
    10    13    14    1
    11    14    15    1
    12    15    16    1
    13    16    17    2
    14    16    18   am
    15    18    19    1
    16    18    20    1
    17    20    21    1
    18    21    22    1
    19    22    23    1
    20    23    24    1
    21     4     5   ar
    22     5     6   ar
    23     6     7   ar
    24     7    25    1
    25    26    25    1
    26    26    27    1
    27    27    28    1
    28    28    29    1
    29    29    30    1
    30    30    32    1
    31    32    33   ar
    32    32    34   ar
    33    30    31    1
    34     7     2   ar
    35    31    26    1
    36    13     8   ar
    37    24    21    1
@<TRIPOS>MOLECULE
*****
 34 37 0 0 0
SMALL
GASTEIGER

@<TRIPOS>ATOM
      1 C           2.8320    4.4065   18.1900 C.3     1  UNL1        0.0553
      2 C           2.7085    2.9175   18.3225 C.ar    1  UNL1        0.0931
      3 N           3.9285    2.0513   18.2165 N.ar    1  UNL1       -0.2450
      4 C           3.8049    0.5623   18.3490 C.ar    1  UNL1        0.1018
      5 C           2.4614   -0.0605   18.5876 C.ar    1  UNL1        0.0239
      6 C           1.2414    0.8056   18.6937 C.ar    1  UNL1        0.0397
      7 C           1.3650    2.2947   18.5611 C.ar    1  UNL1        0.1518
      8 C           5.0250   -0.3039   18.2429 C.ar    1  UNL1        0.1387
      9 N           5.2989   -1.3134   17.1678 N.ar    1  UNL1       -0.1275
     10 N           6.6285   -1.9460   17.4538 N.ar    1  UNL1       -0.0639
     11 N           7.1765   -1.3274   18.7057 N.ar    1  UNL1       -0.2301
     12 C           8.4856   -1.6646   19.3557 C.3     1  UNL1        0.1552
     13 C           6.1855   -0.3126   19.1934 C.ar    1  UNL1        0.1218
     14 C           6.3296    0.5434   20.4167 C.3     1  UNL1        0.2569
     15 O           5.3807    0.3748   21.5661 O.3     1  UNL1       -0.4278
     16 C           5.6059   -0.7159   22.5709 C.2     1  UNL1        0.4053
     17 O           6.5785   -0.5116   23.6944 O.2     1  UNL1       -0.2262
     18 N           4.8586   -2.0110   22.4521 N.am    1  UNL1       -0.2443
     19 C           5.0838   -3.1018   23.4568 C.3     1  UNL1        0.1183
     20 C           3.8860   -2.2154   21.3285 C.3     1  UNL1        0.0967
     21 C           4.1506   -3.2641   20.2891 C.3     1  UNL1        0.0200
     22 C           3.3525   -3.8841   19.1807 C.3     1  UNL1        0.0017
     23 C           4.5248   -4.7470   18.8192 C.3     1  UNL1        0.0001
     24 C           5.3230   -4.1270   19.9276 C.3     1  UNL1        0.0017
     25 O           0.1449    3.1609   18.6672 O.3     1  UNL1       -0.4780
     26 C          -0.5527    3.3156   19.9861 C.3     1  UNL1        0.1663
     27 C           0.2447    3.5681   21.2312 C.3     1  UNL1        0.0435
     28 C          -0.4528    3.7228   22.5501 C.3     1  UNL1        0.0041
     29 C          -1.9478    3.6251   22.6238 C.3     1  UNL1        0.0058
     30 C          -2.7453    3.3726   21.3787 C.3     1  UNL1        0.0401
     31 C          -2.0477    3.2178   20.0598 C.3     1  UNL1        0.0490
     32 C          -4.2403    3.2748   21.4525 C.2     1  UNL1        0.0501
     33 O          -4.9036    2.8821   22.7393 O.co2   1  UNL1       -0.5492
     34 O          -5.0719    3.5698   20.2395 O.co2   1  UNL1       -0.5492
@<TRIPOS>UNITY_ATOM_ATTR
33 1
charge -1
@<TRIPOS>BOND
     1     1     2    1
     2     2     3   ar
     3     3     4   ar
     4     4     8    1
     5     8     9   ar
     6     9    10   ar
     7    10    11   ar
     8    11    12    1
     9    11    13   ar
    10    13    14    1
    11    14    15    1
    12    15    16    1
    13    16    17    2
    14    16    18   am
    15    18    19    1
    16    18    20    1
    17    20    21    1
    18    21    22    1
    19    22    23    1
    20    23    24    1
    21     4     5   ar
    22     5     6   ar
    23     6     7   ar
    24     7    25    1
    25    26    25    1
    26    26    27    1
    27    27    28    1
    28    28    29    1
    29    29    30    1
    30    30    32    1
    31    32    33   ar
    32    32    34   ar
    33    30    31    1
    34     7     2   ar
    35    31    26    1
    36    13     8   ar
    37    24    21    1
@<TRIPOS>MOLECULE
*****
 34 37 0 0 0
SMALL
GASTEIGER

@<TRIPOS>ATOM
      1 C           3.3565    3.3612   18.2570 C.3     1  UNL1        0.0553
      2 C           2.3562    2.4291   18.8741 C.ar    1  UNL1        0.0931
      3 N           1.2109    2.9791   19.6715 N.ar    1  UNL1       -0.2450
      4 C           0.2107    2.0470   20.2885 C.ar    1  UNL1        0.1018
      5 C           0.3557    0.5650   20.1081 C.ar    1  UNL1        0.0239
      6 C           1.5009    0.0150   19.3107 C.ar    1  UNL1        0.0397
      7 C           2.5012    0.9471   18.6937 C.ar    1  UNL1        0.1518
      8 C          -0.9346    2.5970   21.0859 C.ar    1  UNL1        0.1387
      9 N          -2.3233    2.8477   20.5771 N.ar    1  UNL1       -0.1275
     10 N          -3.1392    3.3985   21.7089 N.ar    1  UNL1       -0.0639
     11 N          -2.2548    3.4883   22.9172 N.ar    1  UNL1       -0.2301
     12 C          -2.6615    3.9860   24.2725 C.3     1  UNL1        0.1552
     13 C          -0.8923    2.9929   22.5321 C.ar    1  UNL1        0.1218
     14 C           0.3026    2.9083   23.4348 C.3     1  UNL1        0.2569
     15 O           0.9341    1.5781   23.7205 O.3     1  UNL1       -0.4278
     16 C           1.2029    1.1641   25.1370 C.2     1  UNL1        0.4053
     17 O           0.1086    1.2372   26.1603 O.2     1  UNL1       -0.2262
     18 N           2.5660    0.6770   25.5301 N.am    1  UNL1       -0.2443
     19 C           2.8348    0.2630   26.9466 C.3     1  UNL1        0.1183
     20 C           3.6604    0.6039   24.5069 C.3     1  UNL1        0.0967
     21 C           3.8284   -0.6335   23.6757 C.3     1  UNL1        0.0200
     22 C           4.4497   -1.9813   23.8934 C.3     1  UNL1        0.0017
     23 C           4.0659   -2.3833   22.5002 C.3     1  UNL1        0.0001
     24 C           3.4446   -1.0355   22.2825 C.3     1  UNL1        0.0017
     25 O           3.6465    0.3971   17.8963 O.3     1  UNL1       -0.4780
     26 C           4.4714   -0.7284   18.4465 C.3     1  UNL1        0.1663
     27 C           5.8463   -0.4583   18.9822 C.3     1  UNL1        0.0435
     28 C           6.6713   -1.5838   19.5324 C.3     1  UNL1        0.0041
     29 C           6.1214   -2.9793   19.5471 C.3     1  UNL1        0.0058
     30 C           4.7466   -3.2493   19.0115 C.3     1  UNL1        0.0401
     31 C           3.9216   -2.1238   18.4612 C.3     1  UNL1        0.0490
     32 C           4.1967   -4.6448   19.0262 C.2     1  UNL1        0.0501
     33 O           2.7132   -4.8662   19.0425 O.co2   1  UNL1       -0.5492
     34 O           5.1302   -5.8189   19.0245 O.co2   1  UNL1       -0.5492
@<TRIPOS>UNITY_ATOM_ATTR
33 1
charge -1
@<TRIPOS>BOND
     1     1     2    1
     2     2     3   ar
     3     3     4   ar
     4     4     8    1
     5     8     9   ar
     6     9    10   ar
     7    10    11   ar
     8    11    12    1
     9    11    13   ar
    10    13    14    1
    11    14    15    1
    12    15    16    1
    13    16    17    2
    14    16    18   am
    15    18    19    1
    16    18    20    1
    17    20    21    1
    18    21    22    1
    19    22    23    1
    20    23    24    1
    21     4     5   ar
    22     5     6   ar
    23     6     7   ar
    24     7    25    1
    25    26    25    1
    26    26    27    1
    27    27    28    1
    28    28    29    1
    29    29    30    1
    30    30    32    1
    31    32    33   ar
    32    32    34   ar
    33    30    31    1
    34     7     2   ar
    35    31    26    1
    36    13     8   ar
    37    24    21    1
@<TRIPOS>MOLECULE
*****
 34 37 0 0 0
SMALL
GASTEIGER

@<TRIPOS>ATOM
      1 C           3.7832    2.2567   18.7752 C.3     1  UNL1        0.0553
      2 C           2.5754    1.6198   19.3962 C.ar    1  UNL1        0.0931
      3 N           1.4780    2.4774   19.9530 N.ar    1  UNL1       -0.2450
      4 C           0.2702    1.8405   20.5739 C.ar    1  UNL1        0.1018
      5 C           0.1599    0.3460   20.6381 C.ar    1  UNL1        0.0239
      6 C           1.2573   -0.5116   20.0813 C.ar    1  UNL1        0.0397
      7 C           2.4651    0.1253   19.4603 C.ar    1  UNL1        0.1518
      8 C          -0.8272    2.6982   21.1308 C.ar    1  UNL1        0.1387
      9 N          -2.0328    3.1838   20.3820 N.ar    1  UNL1       -0.1275
     10 N          -2.8624    4.0066   21.3226 N.ar    1  UNL1       -0.0639
     11 N          -2.1695    4.0295   22.6528 N.ar    1  UNL1       -0.2301
     12 C          -2.6500    4.7369   23.8852 C.3     1  UNL1        0.1552
     13 C          -0.9117    3.2209   22.5342 C.ar    1  UNL1        0.1218
     14 C           0.0864    2.9777   23.6272 C.3     1  UNL1        0.2569
     15 O           0.0972    1.6661   24.3549 O.3     1  UNL1       -0.4278
     16 C           1.3966    0.9638   24.6158 C.2     1  UNL1        0.4053
     17 O           2.1111    0.2677   23.4956 O.2     1  UNL1       -0.2262
     18 N           1.9817    0.9576   25.9970 N.am    1  UNL1       -0.2443
     19 C           3.2811    0.2553   26.2580 C.3     1  UNL1        0.1183
     20 C           1.2672    1.6537   27.1173 C.3     1  UNL1        0.0967
     21 C           0.2014    0.9337   27.8892 C.3     1  UNL1        0.0200
     22 C           0.1751   -0.2502   28.8098 C.3     1  UNL1        0.0017
     23 C          -1.3059   -0.0845   28.9806 C.3     1  UNL1        0.0001
     24 C          -1.2796    1.0994   28.0599 C.3     1  UNL1        0.0017
     25 O           3.5625   -0.7325   18.9035 O.3     1  UNL1       -0.4780
     26 C           3.8434   -2.0766   19.5071 C.3     1  UNL1        0.1663
     27 C           3.5110   -3.3252   18.7451 C.3     1  UNL1        0.0435
     28 C           3.7919   -4.6693   19.3488 C.3     1  UNL1        0.0041
     29 C           4.4053   -4.7649   20.7143 C.3     1  UNL1        0.0058
     30 C           4.7377   -3.5164   21.4762 C.3     1  UNL1        0.0401
     31 C           4.4568   -2.1721   20.8726 C.3     1  UNL1        0.0490
     32 C           5.3510   -3.6119   22.8418 C.2     1  UNL1        0.0501
     33 O           4.8227   -2.7658   23.9621 O.co2   1  UNL1       -0.5492
     34 O           6.4925   -4.5535   23.0870 O.co2   1  UNL1       -0.5492
@<TRIPOS>UNITY_ATOM_ATTR
33 1
charge -1
@<TRIPOS>BOND
     1     1     2    1
     2     2     3   ar
     3     3     4   ar
     4     4     8    1
     5     8     9   ar
     6     9    10   ar
     7    10    11   ar
     8    11    12    1
     9    11    13   ar
    10    13    14    1
    11    14    15    1
    12    15    16    1
    13    16    17    2
    14    16    18   am
    15    18    19    1
    16    18    20    1
    17    20    21    1
    18    21    22    1
    19    22    23    1
    20    23    24    1
    21     4     5   ar
    22     5     6   ar
    23     6     7   ar
    24     7    25    1
    25    26    25    1
    26    26    27    1
    27    27    28    1
    28    28    29    1
    29    29    30    1
    30    30    32    1
    31    32    33   ar
    32    32    34   ar
    33    30    31    1
    34     7     2   ar
    35    31    26    1
    36    13     8   ar
    37    24    21    1
