@<TRIPOS>MOLECULE
*****
 36 40 0 0 0
SMALL
GASTEIGER

@<TRIPOS>ATOM
      1 C           0.2034    4.9852   18.1734 C.2     1  UNL1        0.2491
      2 O           0.1027    5.6555   16.8354 O.2     1  UNL1       -0.2699
      3 N          -0.4176    5.6233   19.3806 N.am    1  UNL1       -0.2742
      4 C          -1.1393    6.9317   19.2496 C.3     1  UNL1        0.1152
      5 C          -0.3170    4.9529   20.7187 C.3     1  UNL1        0.0972
      6 C          -1.3609    4.0783   21.3474 C.3     1  UNL1        0.0431
      7 C          -0.8438    3.6243   22.6803 C.3     1  UNL1        0.0968
      8 N           0.5197    4.2184   22.8754 N.am    1  UNL1       -0.2623
      9 C           1.4026    4.0253   24.0726 C.2     1  UNL1        0.3073
     10 O           2.7480    4.6862   24.1266 O.2     1  UNL1       -0.2523
     11 N           0.9400    3.1713   25.2157 N.am    1  UNL1       -0.2626
     12 C          -0.3728    2.4508   25.3031 C.3     1  UNL1        0.0964
     13 C          -0.4153    1.7221   26.6134 C.3     1  UNL1        0.0392
     14 C           0.8713    1.9922   27.3359 C.3     1  UNL1        0.0793
     15 C           1.7088    2.8878   26.4720 C.3     1  UNL1        0.1109
     16 C           0.8453    5.0395   21.6630 C.3     1  UNL1        0.1147
     17 N           1.2532    1.4600   28.6853 N.3     1  UNL1       -0.2681
     18 C           1.0575    2.3064   29.9081 C.3     1  UNL1        0.1046
     19 C           1.4395    1.7741   31.2575 C.3     1  UNL1        0.1595
     20 O           2.0172    0.3956   31.3841 O.3     1  UNL1       -0.3508
     21 C           2.2129   -0.4507   30.1612 C.3     1  UNL1        0.1595
     22 C           1.8309    0.0815   28.8118 C.3     1  UNL1        0.1046
     23 C           2.3683    1.0597   18.5663 C.ar    1  UNL1        0.0000
     24 C           0.8785    1.0805   18.3925 C.ar    1  UNL1        0.0001
     25 C           0.1569    2.3890   18.2615 C.ar    1  UNL1        0.0045
     26 C           0.9250    3.6767   18.3044 C.ar    1  UNL1        0.0536
     27 C           2.4147    3.6559   18.4782 C.ar    1  UNL1        0.0045
     28 C           3.1363    2.3474   18.6091 C.ar    1  UNL1        0.0001
     29 C           4.5332   -2.8657   18.9591 C.ar    1  UNL1       -0.0222
     30 C           3.4671   -2.4950   19.9471 C.ar    1  UNL1       -0.0043
     31 C           2.7455   -1.1865   19.8161 C.ar    1  UNL1       -0.0003
     32 C           3.0899   -0.2487   18.6972 C.ar    1  UNL1       -0.0000
     33 C           4.1559   -0.6194   17.7093 C.ar    1  UNL1       -0.0003
     34 C           4.8776   -1.9279   17.8402 C.ar    1  UNL1       -0.0043
     35 C           4.5715   -5.4501   18.6965 C.3     1  UNL1        0.0050
     36 C           5.2548   -4.1741   19.0901 C.3     1  UNL1        0.0264
@<TRIPOS>BOND
     1    35    36    1
     2    36    29    1
     3    29    30   ar
     4    30    31   ar
     5    31    32   ar
     6    32    23    1
     7    23    24   ar
     8    24    25   ar
     9    25    26   ar
    10    26     1    1
    11     1     2    2
    12     1     3   am
    13     3     4    1
    14     5     3    1
    15     5     6    1
    16     6     7    1
    17     7     8    1
    18     8     9   am
    19     9    10    2
    20     9    11   am
    21    11    12    1
    22    12    13    1
    23    13    14    1
    24    14    17    1
    25    17    18    1
    26    18    19    1
    27    19    20    1
    28    20    21    1
    29    21    22    1
    30    14    15    1
    31     8    16    1
    32    26    27   ar
    33    27    28   ar
    34    32    33   ar
    35    33    34   ar
    36    34    29   ar
    37    28    23   ar
    38    16     5    1
    39    15    11    1
    40    22    17    1
@<TRIPOS>MOLECULE
*****
 36 40 0 0 0
SMALL
GASTEIGER

@<TRIPOS>ATOM
      1 C           1.9465    1.7916   30.3846 C.2     1  UNL1        0.2491
      2 O           1.7545    2.2562   31.7978 O.2     1  UNL1       -0.2699
      3 N           3.1479    0.9700   30.0219 N.am    1  UNL1       -0.2742
      4 C           4.1573    0.6129   31.0725 C.3     1  UNL1        0.1152
      5 C           3.3400    0.5053   28.6087 C.3     1  UNL1        0.0972
      6 C           3.1785   -0.9013   28.1133 C.3     1  UNL1        0.0431
      7 C           3.4660   -0.9102   26.6412 C.3     1  UNL1        0.0968
      8 N           3.8051    0.4910   26.2266 N.am    1  UNL1       -0.2623
      9 C           4.1598    0.9387   24.8396 C.2     1  UNL1        0.3073
     10 O           4.4769    2.3807   24.5751 O.2     1  UNL1       -0.2523
     11 N           4.1973   -0.0556   23.7171 N.am    1  UNL1       -0.2626
     12 C           3.9055   -1.5228   23.8288 C.3     1  UNL1        0.0964
     13 C           4.0611   -2.1313   22.4667 C.3     1  UNL1        0.0392
     14 C           4.4490   -1.0402   21.5132 C.3     1  UNL1        0.0793
     15 C           4.5332    0.2426   22.2860 C.3     1  UNL1        0.1109
     16 C           3.7272    1.3658   27.4426 C.3     1  UNL1        0.1147
     17 N           4.7073   -1.2033   20.0446 N.3     1  UNL1       -0.2681
     18 C           6.0187   -1.7562   19.5707 C.3     1  UNL1        0.1046
     19 C           6.2770   -1.9193   18.1021 C.3     1  UNL1        0.1595
     20 O           5.2240   -1.5295   17.1074 O.3     1  UNL1       -0.3508
     21 C           3.9127   -0.9767   17.5815 C.3     1  UNL1        0.1595
     22 C           3.6543   -0.8136   19.0500 C.3     1  UNL1        0.1046
     23 C          -1.0816    2.8626   27.2329 C.ar    1  UNL1        0.0000
     24 C          -1.0719    1.4850   27.8262 C.ar    1  UNL1        0.0001
     25 C          -0.0625    1.1280   28.8768 C.ar    1  UNL1        0.0045
     26 C           0.9371    2.1486   29.3340 C.ar    1  UNL1        0.0536
     27 C           0.9274    3.5262   28.7408 C.ar    1  UNL1        0.0045
     28 C          -0.0820    3.8832   27.6902 C.ar    1  UNL1        0.0001
     29 C          -4.1098    3.9337   24.0812 C.ar    1  UNL1       -0.0222
     30 C          -2.7112    3.5658   23.6833 C.ar    1  UNL1       -0.0043
     31 C          -1.7018    3.2088   24.7338 C.ar    1  UNL1       -0.0003
     32 C          -2.0910    3.2197   26.1824 C.ar    1  UNL1       -0.0000
     33 C          -3.4897    3.5875   26.5803 C.ar    1  UNL1       -0.0003
     34 C          -4.4990    3.9446   25.5298 C.ar    1  UNL1       -0.0043
     35 C          -6.5782    4.3331   23.3761 C.3     1  UNL1        0.0050
     36 C          -5.1192    4.2907   23.0307 C.3     1  UNL1        0.0264
@<TRIPOS>BOND
     1    35    36    1
     2    36    29    1
     3    29    30   ar
     4    30    31   ar
     5    31    32   ar
     6    32    23    1
     7    23    24   ar
     8    24    25   ar
     9    25    26   ar
    10    26     1    1
    11     1     2    2
    12     1     3   am
    13     3     4    1
    14     5     3    1
    15     5     6    1
    16     6     7    1
    17     7     8    1
    18     8     9   am
    19     9    10    2
    20     9    11   am
    21    11    12    1
    22    12    13    1
    23    13    14    1
    24    14    17    1
    25    17    18    1
    26    18    19    1
    27    19    20    1
    28    20    21    1
    29    21    22    1
    30    14    15    1
    31     8    16    1
    32    26    27   ar
    33    27    28   ar
    34    32    33   ar
    35    33    34   ar
    36    34    29   ar
    37    28    23   ar
    38    16     5    1
    39    15    11    1
    40    22    17    1
@<TRIPOS>MOLECULE
*****
 36 40 0 0 0
SMALL
GASTEIGER

@<TRIPOS>ATOM
      1 C          -0.7750    4.6462   21.5011 C.2     1  UNL1        0.2491
      2 O          -1.3644    5.5519   20.4607 O.2     1  UNL1       -0.2699
      3 N          -1.0151    4.9196   22.9562 N.am    1  UNL1       -0.2742
      4 C          -1.8444    6.0986   23.3710 C.3     1  UNL1        0.1152
      5 C          -0.4257    4.0140   23.9967 C.3     1  UNL1        0.0972
      6 C          -1.1174    2.8547   24.6506 C.3     1  UNL1        0.0431
      7 C          -0.1604    2.2329   25.6240 C.3     1  UNL1        0.0968
      8 N           1.1229    3.0079   25.5716 N.am    1  UNL1       -0.2623
      9 C           2.3540    2.7307   26.3826 C.2     1  UNL1        0.3073
     10 O           3.5686    3.5961   26.2217 O.2     1  UNL1       -0.2523
     11 N           2.3704    1.5882   27.3544 N.am    1  UNL1       -0.2626
     12 C           1.2377    0.6419   27.6219 C.3     1  UNL1        0.0964
     13 C           1.6897   -0.3397   28.6621 C.3     1  UNL1        0.0392
     14 C           3.1017   -0.0001   29.0375 C.3     1  UNL1        0.0793
     15 C           3.5224    1.1914   28.2292 C.3     1  UNL1        0.1109
     16 C           0.9589    4.1086   24.5659 C.3     1  UNL1        0.1147
     17 N           3.9450   -0.7248   30.0443 N.3     1  UNL1       -0.2681
     18 C           3.4449   -0.9117   31.4460 C.3     1  UNL1        0.1046
     19 C           4.2882   -1.6365   32.4528 C.3     1  UNL1        0.1595
     20 O           5.6317   -2.1742   32.0579 O.3     1  UNL1       -0.3508
     21 C           6.1318   -1.9872   30.6562 C.3     1  UNL1        0.1595
     22 C           5.2885   -1.2625   29.6494 C.3     1  UNL1        0.1046
     23 C           1.7131    1.1092   20.2567 C.ar    1  UNL1        0.0000
     24 C           2.3668    2.4366   20.5030 C.ar    1  UNL1        0.0001
     25 C           1.5374    3.6156   20.9178 C.ar    1  UNL1        0.0045
     26 C           0.0544    3.4672   21.0863 C.ar    1  UNL1        0.0536
     27 C          -0.5993    2.1399   20.8400 C.ar    1  UNL1        0.0045
     28 C           0.2300    0.9608   20.4252 C.ar    1  UNL1        0.0001
     29 C           4.2013   -2.4279   19.0123 C.ar    1  UNL1       -0.0222
     30 C           3.6230   -2.3669   20.3950 C.ar    1  UNL1       -0.0043
     31 C           2.7936   -1.1879   20.8098 C.ar    1  UNL1       -0.0003
     32 C           2.5425   -0.0698   19.8419 C.ar    1  UNL1       -0.0000
     33 C           3.1208   -0.1308   18.4592 C.ar    1  UNL1       -0.0003
     34 C           3.9502   -1.3098   18.0445 C.ar    1  UNL1       -0.0043
     35 C           4.5464   -4.9992   18.8747 C.3     1  UNL1        0.0050
     36 C           5.0306   -3.6069   18.5975 C.3     1  UNL1        0.0264
@<TRIPOS>BOND
     1    35    36    1
     2    36    29    1
     3    29    30   ar
     4    30    31   ar
     5    31    32   ar
     6    32    23    1
     7    23    24   ar
     8    24    25   ar
     9    25    26   ar
    10    26     1    1
    11     1     2    2
    12     1     3   am
    13     3     4    1
    14     5     3    1
    15     5     6    1
    16     6     7    1
    17     7     8    1
    18     8     9   am
    19     9    10    2
    20     9    11   am
    21    11    12    1
    22    12    13    1
    23    13    14    1
    24    14    17    1
    25    17    18    1
    26    18    19    1
    27    19    20    1
    28    20    21    1
    29    21    22    1
    30    14    15    1
    31     8    16    1
    32    26    27   ar
    33    27    28   ar
    34    32    33   ar
    35    33    34   ar
    36    34    29   ar
    37    28    23   ar
    38    16     5    1
    39    15    11    1
    40    22    17    1
@<TRIPOS>MOLECULE
*****
 36 40 0 0 0
SMALL
GASTEIGER

@<TRIPOS>ATOM
      1 C          -3.7189    6.0764   21.9827 C.2     1  UNL1        0.2491
      2 O          -4.4492    6.9709   21.0255 O.2     1  UNL1       -0.2699
      3 N          -4.0000    6.1633   23.4536 N.am    1  UNL1       -0.2742
      4 C          -5.0114    7.1449   23.9671 C.3     1  UNL1        0.1152
      5 C          -3.2697    5.2687   24.4109 C.3     1  UNL1        0.0972
      6 C          -3.5028    3.7986   24.5964 C.3     1  UNL1        0.0431
      7 C          -2.5553    3.3086   25.6510 C.3     1  UNL1        0.0968
      8 N          -1.7366    4.4758   26.1172 N.am    1  UNL1       -0.2623
      9 C          -0.6646    4.4382   27.1658 C.2     1  UNL1        0.3073
     10 O           0.0732    5.6926   27.5294 O.2     1  UNL1       -0.2523
     11 N          -0.3304    3.1462   27.8507 N.am    1  UNL1       -0.2626
     12 C          -0.9794    1.8185   27.5937 C.3     1  UNL1        0.0964
     13 C          -0.3387    0.8068   28.4970 C.3     1  UNL1        0.0392
     14 C           0.7062    1.5093   29.3123 C.3     1  UNL1        0.0793
     15 C           0.7113    2.9552   28.9129 C.3     1  UNL1        0.1109
     16 C          -2.1782    5.6873   25.3508 C.3     1  UNL1        0.1147
     17 N           1.5907    0.8770   30.3457 N.3     1  UNL1       -0.2681
     18 C           1.8671    1.5918   31.6351 C.3     1  UNL1        0.1046
     19 C           2.7516    0.9594   32.6685 C.3     1  UNL1        0.1595
     20 O           3.3598   -0.3876   32.4124 O.3     1  UNL1       -0.3508
     21 C           3.0834   -1.1023   31.1229 C.3     1  UNL1        0.1595
     22 C           2.1989   -0.4700   30.0895 C.3     1  UNL1        0.1046
     23 C          -0.6849    3.1318   20.4421 C.ar    1  UNL1        0.0000
     24 C          -2.1462    2.7971   20.3944 C.ar    1  UNL1        0.0001
     25 C          -3.1576    3.7786   20.9080 C.ar    1  UNL1        0.0045
     26 C          -2.7076    5.0948   21.4692 C.ar    1  UNL1        0.0536
     27 C          -1.2462    5.4295   21.5168 C.ar    1  UNL1        0.0045
     28 C          -0.2348    4.4480   21.0032 C.ar    1  UNL1        0.0001
     29 C           2.3492    0.1871   18.9014 C.ar    1  UNL1       -0.0222
     30 C           1.2572   -0.2730   19.8210 C.ar    1  UNL1       -0.0043
     31 C           0.2459    0.7085   20.3346 C.ar    1  UNL1       -0.0003
     32 C           0.3265    2.1502   19.9285 C.ar    1  UNL1       -0.0000
     33 C           1.4185    2.6104   19.0088 C.ar    1  UNL1       -0.0003
     34 C           2.4298    1.6288   18.4953 C.ar    1  UNL1       -0.0043
     35 C           3.7506   -0.7809   16.9395 C.3     1  UNL1        0.0050
     36 C           3.3605   -0.7944   18.3878 C.3     1  UNL1        0.0264
@<TRIPOS>BOND
     1    35    36    1
     2    36    29    1
     3    29    30   ar
     4    30    31   ar
     5    31    32   ar
     6    32    23    1
     7    23    24   ar
     8    24    25   ar
     9    25    26   ar
    10    26     1    1
    11     1     2    2
    12     1     3   am
    13     3     4    1
    14     5     3    1
    15     5     6    1
    16     6     7    1
    17     7     8    1
    18     8     9   am
    19     9    10    2
    20     9    11   am
    21    11    12    1
    22    12    13    1
    23    13    14    1
    24    14    17    1
    25    17    18    1
    26    18    19    1
    27    19    20    1
    28    20    21    1
    29    21    22    1
    30    14    15    1
    31     8    16    1
    32    26    27   ar
    33    27    28   ar
    34    32    33   ar
    35    33    34   ar
    36    34    29   ar
    37    28    23   ar
    38    16     5    1
    39    15    11    1
    40    22    17    1
@<TRIPOS>MOLECULE
*****
 36 40 0 0 0
SMALL
GASTEIGER

@<TRIPOS>ATOM
      1 C           4.9411   -0.6157   18.7238 C.2     1  UNL1        0.2491
      2 O           4.8330   -0.1035   17.3181 O.2     1  UNL1       -0.2699
      3 N           5.9896   -1.6295   19.0740 N.am    1  UNL1       -0.2742
      4 C           6.9301   -2.1311   18.0186 C.3     1  UNL1        0.1152
      5 C           6.0977   -2.1418   20.4797 C.3     1  UNL1        0.0972
      6 C           6.2117   -3.5808   20.8874 C.3     1  UNL1        0.0431
      7 C           6.2953   -3.6334   22.3841 C.3     1  UNL1        0.0968
      8 N           6.2330   -2.2268   22.9015 N.am    1  UNL1       -0.2623
      9 C           6.2838   -1.8144   24.3428 C.2     1  UNL1        0.3073
     10 O           6.2105   -0.3620   24.7104 O.2     1  UNL1       -0.2523
     11 N           6.4079   -2.8545   25.4166 N.am    1  UNL1       -0.2626
     12 C           6.4913   -4.3369   25.2027 C.3     1  UNL1        0.0964
     13 C           6.6054   -4.9933   26.5466 C.3     1  UNL1        0.0392
     14 C           6.5924   -3.9167   27.5910 C.3     1  UNL1        0.0793
     15 C           6.4704   -2.5948   26.8926 C.3     1  UNL1        0.1109
     16 C           6.1109   -1.3050   21.7245 C.3     1  UNL1        0.1147
     17 N           6.6852   -4.1253   29.0735 N.3     1  UNL1       -0.2681
     18 C           6.5390   -2.9592   30.0055 C.3     1  UNL1        0.1046
     19 C           6.6318   -3.1678   31.4881 C.3     1  UNL1        0.1595
     20 O           6.8708   -4.5426   32.0386 O.3     1  UNL1       -0.3508
     21 C           7.0170   -5.7086   31.1065 C.3     1  UNL1        0.1595
     22 C           6.9242   -5.5000   29.6239 C.3     1  UNL1        0.1046
     23 C           2.1198    0.8891   21.8901 C.ar    1  UNL1        0.0000
     24 C           3.3068    1.7141   21.4898 C.ar    1  UNL1        0.0001
     25 C           4.2473    1.2125   20.4344 C.ar    1  UNL1        0.0045
     26 C           4.0007   -0.1141   19.7792 C.ar    1  UNL1        0.0536
     27 C           2.8136   -0.9391   20.1795 C.ar    1  UNL1        0.0045
     28 C           1.8732   -0.4374   21.2349 C.ar    1  UNL1        0.0001
     29 C          -0.7015    2.3940   25.0564 C.ar    1  UNL1       -0.0222
     30 C           0.2783    1.3056   25.3809 C.ar    1  UNL1       -0.0043
     31 C           1.2187    0.8040   24.3254 C.ar    1  UNL1       -0.0003
     32 C           1.1794    1.3907   22.9456 C.ar    1  UNL1       -0.0000
     33 C           0.1995    2.4791   22.6211 C.ar    1  UNL1       -0.0003
     34 C          -0.7409    2.9808   23.6766 C.ar    1  UNL1       -0.0043
     35 C          -1.4047    4.2297   26.7551 C.3     1  UNL1        0.0050
     36 C          -1.6420    2.8956   26.1119 C.3     1  UNL1        0.0264
@<TRIPOS>BOND
     1    35    36    1
     2    36    29    1
     3    29    30   ar
     4    30    31   ar
     5    31    32   ar
     6    32    23    1
     7    23    24   ar
     8    24    25   ar
     9    25    26   ar
    10    26     1    1
    11     1     2    2
    12     1     3   am
    13     3     4    1
    14     5     3    1
    15     5     6    1
    16     6     7    1
    17     7     8    1
    18     8     9   am
    19     9    10    2
    20     9    11   am
    21    11    12    1
    22    12    13    1
    23    13    14    1
    24    14    17    1
    25    17    18    1
    26    18    19    1
    27    19    20    1
    28    20    21    1
    29    21    22    1
    30    14    15    1
    31     8    16    1
    32    26    27   ar
    33    27    28   ar
    34    32    33   ar
    35    33    34   ar
    36    34    29   ar
    37    28    23   ar
    38    16     5    1
    39    15    11    1
    40    22    17    1
@<TRIPOS>MOLECULE
*****
 36 40 0 0 0
SMALL
GASTEIGER

@<TRIPOS>ATOM
      1 C          -3.9700    6.1464   22.9584 C.2     1  UNL1        0.2491
      2 O          -5.0025    7.1444   23.3916 O.2     1  UNL1       -0.2699
      3 N          -3.7304    5.9010   21.4981 N.am    1  UNL1       -0.2742
      4 C          -4.5233    6.6538   20.4711 C.3     1  UNL1        0.1152
      5 C          -2.6979    4.9029   21.0648 C.3     1  UNL1        0.0972
      6 C          -2.8969    3.4204   20.9532 C.3     1  UNL1        0.0431
      7 C          -1.6071    2.8134   20.4865 C.3     1  UNL1        0.0968
      8 N          -0.6108    3.9208   20.3096 N.am    1  UNL1       -0.2623
      9 C           0.8101    3.7642   19.8551 C.2     1  UNL1        0.3073
     10 O           1.6928    4.9699   19.7246 O.2     1  UNL1       -0.2523
     11 N           1.3481    2.4020   19.5312 N.am    1  UNL1       -0.2626
     12 C           0.5883    1.1113   19.6141 C.3     1  UNL1        0.0964
     13 C           1.5111    0.0030   19.2017 C.3     1  UNL1        0.0392
     14 C           2.8411    0.6087   18.8639 C.3     1  UNL1        0.0793
     15 C           2.7404    2.0914   19.0676 C.3     1  UNL1        0.1109
     16 C          -1.2850    5.2122   20.6671 C.3     1  UNL1        0.1147
     17 N           4.0582   -0.1373   18.4033 N.3     1  UNL1       -0.2681
     18 C           4.1915   -1.6039   18.6884 C.3     1  UNL1        0.1046
     19 C           5.4086   -2.3499   18.2277 C.3     1  UNL1        0.1595
     20 O           6.4925   -1.6292   17.4821 O.3     1  UNL1       -0.3508
     21 C           6.3591   -0.1627   17.1970 C.3     1  UNL1        0.1595
     22 C           5.1420    0.5833   17.6576 C.3     1  UNL1        0.1046
     23 C          -1.5914    3.8882   26.0394 C.ar    1  UNL1        0.0000
     24 C          -1.0728    5.1860   25.4948 C.ar    1  UNL1        0.0001
     25 C          -1.8657    5.9388   24.4678 C.ar    1  UNL1        0.0045
     26 C          -3.1772    5.3936   23.9854 C.ar    1  UNL1        0.0536
     27 C          -3.6957    4.0958   24.5299 C.ar    1  UNL1        0.0045
     28 C          -2.9029    3.3431   25.5569 C.ar    1  UNL1        0.0001
     29 C           0.7873    1.6300   29.1204 C.ar    1  UNL1       -0.0222
     30 C          -0.1718    0.8982   28.2291 C.ar    1  UNL1       -0.0043
     31 C          -0.9647    1.6509   27.2021 C.ar    1  UNL1       -0.0003
     32 C          -0.7985    3.1355   27.0664 C.ar    1  UNL1       -0.0000
     33 C           0.1607    3.8673   27.9577 C.ar    1  UNL1       -0.0003
     34 C           0.9536    3.1146   28.9847 C.ar    1  UNL1       -0.0043
     35 C           2.0656   -0.5106   29.8508 C.3     1  UNL1        0.0050
     36 C           1.5802    0.8773   30.1474 C.3     1  UNL1        0.0264
@<TRIPOS>BOND
     1    35    36    1
     2    36    29    1
     3    29    30   ar
     4    30    31   ar
     5    31    32   ar
     6    32    23    1
     7    23    24   ar
     8    24    25   ar
     9    25    26   ar
    10    26     1    1
    11     1     2    2
    12     1     3   am
    13     3     4    1
    14     5     3    1
    15     5     6    1
    16     6     7    1
    17     7     8    1
    18     8     9   am
    19     9    10    2
    20     9    11   am
    21    11    12    1
    22    12    13    1
    23    13    14    1
    24    14    17    1
    25    17    18    1
    26    18    19    1
    27    19    20    1
    28    20    21    1
    29    21    22    1
    30    14    15    1
    31     8    16    1
    32    26    27   ar
    33    27    28   ar
    34    32    33   ar
    35    33    34   ar
    36    34    29   ar
    37    28    23   ar
    38    16     5    1
    39    15    11    1
    40    22    17    1
@<TRIPOS>MOLECULE
*****
 36 40 0 0 0
SMALL
GASTEIGER

@<TRIPOS>ATOM
      1 C          -0.2101    4.6700   22.9048 C.2     1  UNL1        0.2491
      2 O          -1.0607    5.5129   22.0015 O.2     1  UNL1       -0.2699
      3 N          -0.1437    4.9748   24.3720 N.am    1  UNL1       -0.2742
      4 C          -0.9279    6.1224   24.9359 C.3     1  UNL1        0.1152
      5 C           0.7069    4.1320   25.2754 C.3     1  UNL1        0.0972
      6 C           2.1678    4.3323   25.5508 C.3     1  UNL1        0.0431
      7 C           2.6097    3.2650   26.5076 C.3     1  UNL1        0.0968
      8 N           1.4220    2.4049   26.8236 N.am    1  UNL1       -0.2623
      9 C           1.4121    1.2176   27.7401 C.2     1  UNL1        0.3073
     10 O           0.1420    0.4505   27.9599 O.2     1  UNL1       -0.2523
     11 N           2.6722    0.7974   28.4369 N.am    1  UNL1       -0.2626
     12 C           4.0109    1.4634   28.3156 C.3     1  UNL1        0.0964
     13 C           4.9809    0.7151   29.1810 C.3     1  UNL1        0.0392
     14 C           4.2419   -0.4134   29.8371 C.3     1  UNL1        0.0793
     15 C           2.8150   -0.3625   29.3772 C.3     1  UNL1        0.1109
     16 C           0.2461    2.9408   26.0620 C.3     1  UNL1        0.1147
     17 N           4.8270   -1.4166   30.7864 N.3     1  UNL1       -0.2681
     18 C           4.2296   -1.5954   32.1507 C.3     1  UNL1        0.1046
     19 C           4.8147   -2.5986   33.1000 C.3     1  UNL1        0.1595
     20 O           5.9972   -3.4231   32.6850 O.3     1  UNL1       -0.3508
     21 C           6.5944   -3.2443   31.3208 C.3     1  UNL1        0.1595
     22 C           6.0094   -2.2411   30.3715 C.3     1  UNL1        0.1046
     23 C           2.1426    1.2271   21.2132 C.ar    1  UNL1        0.0000
     24 C           0.7392    1.0109   21.6967 C.ar    1  UNL1        0.0001
     25 C          -0.0450    2.1585   22.2605 C.ar    1  UNL1        0.0045
     26 C           0.5741    3.5224   22.3410 C.ar    1  UNL1        0.0536
     27 C           1.9775    3.7386   21.8576 C.ar    1  UNL1        0.0045
     28 C           2.7617    2.5910   21.2937 C.ar    1  UNL1        0.0001
     29 C           4.4952   -2.2158   19.5217 C.ar    1  UNL1       -0.0222
     30 C           5.1937   -0.9423   19.8963 C.ar    1  UNL1       -0.0043
     31 C           4.4094    0.2053   20.4602 C.ar    1  UNL1       -0.0003
     32 C           2.9268    0.0795   20.6494 C.ar    1  UNL1       -0.0000
     33 C           2.2283   -1.1940   20.2747 C.ar    1  UNL1       -0.0003
     34 C           3.0126   -2.3416   19.7109 C.ar    1  UNL1       -0.0043
     35 C           4.6253   -4.7007   18.7746 C.3     1  UNL1        0.0050
     36 C           5.2795   -3.3634   18.9578 C.3     1  UNL1        0.0264
@<TRIPOS>BOND
     1    35    36    1
     2    36    29    1
     3    29    30   ar
     4    30    31   ar
     5    31    32   ar
     6    32    23    1
     7    23    24   ar
     8    24    25   ar
     9    25    26   ar
    10    26     1    1
    11     1     2    2
    12     1     3   am
    13     3     4    1
    14     5     3    1
    15     5     6    1
    16     6     7    1
    17     7     8    1
    18     8     9   am
    19     9    10    2
    20     9    11   am
    21    11    12    1
    22    12    13    1
    23    13    14    1
    24    14    17    1
    25    17    18    1
    26    18    19    1
    27    19    20    1
    28    20    21    1
    29    21    22    1
    30    14    15    1
    31     8    16    1
    32    26    27   ar
    33    27    28   ar
    34    32    33   ar
    35    33    34   ar
    36    34    29   ar
    37    28    23   ar
    38    16     5    1
    39    15    11    1
    40    22    17    1
@<TRIPOS>MOLECULE
*****
 36 40 0 0 0
SMALL
GASTEIGER

@<TRIPOS>ATOM
      1 C          -0.9816    4.8780   25.3021 C.2     1  UNL1        0.2491
      2 O          -2.0841    5.7921   24.8563 O.2     1  UNL1       -0.2699
      3 N          -0.5826    4.8334   26.7473 N.am    1  UNL1       -0.2742
      4 C          -1.2863    5.7029   27.7468 C.3     1  UNL1        0.1152
      5 C           0.5200    3.9194   27.1932 C.3     1  UNL1        0.0972
      6 C           1.9651    4.0266   26.8057 C.3     1  UNL1        0.0431
      7 C           2.7093    2.9111   27.4779 C.3     1  UNL1        0.0968
      8 N           1.7241    2.1144   28.2809 N.am    1  UNL1       -0.2623
      9 C           2.0370    0.9067   29.1136 C.2     1  UNL1        0.3073
     10 O           0.9420    0.2100   29.8656 O.2     1  UNL1       -0.2523
     11 N           3.4450    0.3957   29.1944 N.am    1  UNL1       -0.2626
     12 C           4.6379    0.9849   28.5016 C.3     1  UNL1        0.0964
     13 C           5.8374    0.1591   28.8611 C.3     1  UNL1        0.0392
     14 C           5.3858   -0.9404   29.7760 C.3     1  UNL1        0.0793
     15 C           3.9073   -0.7942   29.9820 C.3     1  UNL1        0.1109
     16 C           0.3711    2.7376   28.1050 C.3     1  UNL1        0.1147
     17 N           6.2595   -2.0001   30.3791 N.3     1  UNL1       -0.2681
     18 C           5.7842   -2.7742   31.5728 C.3     1  UNL1        0.1046
     19 C           6.6579   -3.8339   32.1759 C.3     1  UNL1        0.1595
     20 O           8.0068   -4.1196   31.5853 O.3     1  UNL1       -0.3508
     21 C           8.4820   -3.3456   30.3916 C.3     1  UNL1        0.1595
     22 C           7.6084   -2.2858   29.7885 C.3     1  UNL1        0.1046
     23 C           1.1294    2.2696   22.3038 C.ar    1  UNL1        0.0000
     24 C           1.2887    3.7599   22.2450 C.ar    1  UNL1        0.0001
     25 C           0.5851    4.6294   23.2445 C.ar    1  UNL1        0.0045
     26 C          -0.2779    4.0085   24.3026 C.ar    1  UNL1        0.0536
     27 C          -0.4372    2.5182   24.3614 C.ar    1  UNL1        0.0045
     28 C           0.2664    1.6487   23.3619 C.ar    1  UNL1        0.0001
     29 C           3.2404   -0.3388   19.3054 C.ar    1  UNL1       -0.0222
     30 C           2.7192   -0.9324   20.5805 C.ar    1  UNL1       -0.0043
     31 C           2.0156   -0.0630   21.5800 C.ar    1  UNL1       -0.0003
     32 C           1.8331    1.4001   21.3043 C.ar    1  UNL1       -0.0000
     33 C           2.3542    1.9937   20.0292 C.ar    1  UNL1       -0.0003
     34 C           3.0579    1.1243   19.0298 C.ar    1  UNL1       -0.0043
     35 C           3.8507   -0.8950   16.8421 C.3     1  UNL1        0.0050
     36 C           3.9441   -1.2083   18.3060 C.3     1  UNL1        0.0264
@<TRIPOS>BOND
     1    35    36    1
     2    36    29    1
     3    29    30   ar
     4    30    31   ar
     5    31    32   ar
     6    32    23    1
     7    23    24   ar
     8    24    25   ar
     9    25    26   ar
    10    26     1    1
    11     1     2    2
    12     1     3   am
    13     3     4    1
    14     5     3    1
    15     5     6    1
    16     6     7    1
    17     7     8    1
    18     8     9   am
    19     9    10    2
    20     9    11   am
    21    11    12    1
    22    12    13    1
    23    13    14    1
    24    14    17    1
    25    17    18    1
    26    18    19    1
    27    19    20    1
    28    20    21    1
    29    21    22    1
    30    14    15    1
    31     8    16    1
    32    26    27   ar
    33    27    28   ar
    34    32    33   ar
    35    33    34   ar
    36    34    29   ar
    37    28    23   ar
    38    16     5    1
    39    15    11    1
    40    22    17    1
@<TRIPOS>MOLECULE
*****
 36 40 0 0 0
SMALL
GASTEIGER

@<TRIPOS>ATOM
      1 C          -2.7665    5.4547   24.2736 C.2     1  UNL1        0.2491
      2 O          -3.9700    6.2388   24.7058 O.2     1  UNL1       -0.2699
      3 N          -2.3572    5.4438   22.8306 N.am    1  UNL1       -0.2742
      4 C          -3.1513    6.2170   21.8199 C.3     1  UNL1        0.1152
      5 C          -1.1537    4.6597   22.3983 C.3     1  UNL1        0.0972
      6 C           0.2603    5.1594   22.3688 C.3     1  UNL1        0.0431
      7 C           1.1349    4.0468   21.8718 C.3     1  UNL1        0.0968
      8 N           0.2615    2.8592   21.5943 N.am    1  UNL1       -0.2623
      9 C           0.7217    1.5269   21.0814 C.2     1  UNL1        0.3073
     10 O          -0.2728    0.4279   20.8505 O.2     1  UNL1       -0.2523
     11 N           2.1763    1.2935   20.7993 N.am    1  UNL1       -0.2626
     12 C           3.2809    2.2921   20.9810 C.3     1  UNL1        0.0964
     13 C           4.5690    1.6364   20.5801 C.3     1  UNL1        0.0392
     14 C           4.2606    0.2327   20.1507 C.3     1  UNL1        0.0793
     15 C           2.7818    0.0208   20.2862 C.3     1  UNL1        0.1109
     16 C          -1.1530    3.2381   21.9196 C.3     1  UNL1        0.1147
     17 N           5.2561   -0.7812   19.6701 N.3     1  UNL1       -0.2681
     18 C           5.9182   -0.6080   18.3353 C.3     1  UNL1        0.1046
     19 C           6.9137   -1.6220   17.8548 C.3     1  UNL1        0.1595
     20 O           7.2472   -2.8091   18.7090 O.3     1  UNL1       -0.3508
     21 C           6.5851   -2.9822   20.0437 C.3     1  UNL1        0.1595
     22 C           5.5896   -1.9683   20.5243 C.3     1  UNL1        0.1046
     23 C          -0.3843    3.1352   27.3058 C.ar    1  UNL1        0.0000
     24 C          -1.4847    2.4608   26.5415 C.ar    1  UNL1        0.0001
     25 C          -2.2788    3.2340   25.5307 C.ar    1  UNL1        0.0045
     26 C          -1.9725    4.6815   25.2843 C.ar    1  UNL1        0.0536
     27 C          -0.8721    5.3559   26.0487 C.ar    1  UNL1        0.0045
     28 C          -0.0780    4.5827   27.0595 C.ar    1  UNL1        0.0001
     29 C           1.9980    0.8157   30.3381 C.ar    1  UNL1       -0.0222
     30 C           1.3123    0.0971   29.2141 C.ar    1  UNL1       -0.0043
     31 C           0.5182    0.8703   28.2033 C.ar    1  UNL1       -0.0003
     32 C           0.4098    2.3620   28.3166 C.ar    1  UNL1       -0.0000
     33 C           1.0955    3.0806   29.4406 C.ar    1  UNL1       -0.0003
     34 C           1.8896    2.3074   30.4514 C.ar    1  UNL1       -0.0043
     35 C           4.2703    0.2656   31.4712 C.3     1  UNL1        0.0050
     36 C           2.7921    0.0425   31.3489 C.3     1  UNL1        0.0264
@<TRIPOS>BOND
     1    35    36    1
     2    36    29    1
     3    29    30   ar
     4    30    31   ar
     5    31    32   ar
     6    32    23    1
     7    23    24   ar
     8    24    25   ar
     9    25    26   ar
    10    26     1    1
    11     1     2    2
    12     1     3   am
    13     3     4    1
    14     5     3    1
    15     5     6    1
    16     6     7    1
    17     7     8    1
    18     8     9   am
    19     9    10    2
    20     9    11   am
    21    11    12    1
    22    12    13    1
    23    13    14    1
    24    14    17    1
    25    17    18    1
    26    18    19    1
    27    19    20    1
    28    20    21    1
    29    21    22    1
    30    14    15    1
    31     8    16    1
    32    26    27   ar
    33    27    28   ar
    34    32    33   ar
    35    33    34   ar
    36    34    29   ar
    37    28    23   ar
    38    16     5    1
    39    15    11    1
    40    22    17    1
