@<TRIPOS>MOLECULE
*****
 39 43 0 0 0
SMALL
GASTEIGER

@<TRIPOS>ATOM
      1 N           6.0433   -1.5783   32.2278 N.am    1  UNL1       -0.2791
      2 C           4.7748   -1.6803   33.0217 C.2     1  UNL1        0.2495
      3 O           3.8441   -2.8363   32.8031 O.2     1  UNL1       -0.2698
      4 H           6.6541   -0.8196   32.3713 H       1  UNL1        0.1552
      5 C           4.4368   -0.6265   34.0342 C.ar    1  UNL1        0.0537
      6 C           4.9925   -0.7165   35.4245 C.ar    1  UNL1        0.0043
      7 C           4.6545    0.3374   36.4370 C.ar    1  UNL1       -0.0022
      8 C           3.7609    1.4813   36.0592 C.ar    1  UNL1        0.0022
      9 C           3.2051    1.5713   34.6688 C.ar    1  UNL1       -0.0019
     10 C           2.3114    2.7152   34.2909 C.ar    1  UNL1       -0.0003
     11 C           1.7557    2.8052   32.9006 C.ar    1  UNL1       -0.0000
     12 C           2.0936    1.7514   31.8881 C.ar    1  UNL1        0.0000
     13 C           2.9873    0.6075   32.2660 C.ar    1  UNL1        0.0001
     14 C           3.5431    0.5175   33.6563 C.ar    1  UNL1        0.0041
     15 C           3.4229    2.5352   37.0716 C.3     1  UNL1        0.1556
     16 N           2.2380    2.3560   37.9737 N.ar    1  UNL1       -0.2257
     17 C           2.0611    1.2683   38.9914 C.ar    1  UNL1        0.1196
     18 C           0.7357    1.4732   39.6632 C.ar    1  UNL1        0.1441
     19 N           0.0934    2.6875   39.0606 N.ar    1  UNL1       -0.1271
     20 N           1.0219    3.2331   38.0165 N.ar    1  UNL1       -0.0634
     21 C           7.0572   -4.7399   29.1903 C.ar    1  UNL1        0.2251
     22 C           7.3188   -4.9874   30.6464 C.ar    1  UNL1        0.0590
     23 C           6.9809   -3.9336   31.6589 C.ar    1  UNL1        0.0212
     24 C           6.3813   -2.6322   31.2153 C.ar    1  UNL1        0.0732
     25 C           6.1196   -2.3846   29.7592 C.ar    1  UNL1        0.1509
     26 N           6.4575   -3.4385   28.7467 N.ar    1  UNL1       -0.2058
     27 C           5.5200   -1.0833   29.3156 C.2     1  UNL1        0.2649
     28 O           5.9093    0.1937   29.9994 O.2     1  UNL1       -0.2684
     29 N           4.5309   -1.0589   28.1881 N.am    1  UNL1       -0.2996
     30 H           4.2754   -1.8970   27.7393 H       1  UNL1        0.1498
     31 C           3.9312    0.2425   27.7445 C.3     1  UNL1        0.0899
     32 C           2.5470    0.6186   28.1829 C.3     1  UNL1        0.0246
     33 C           1.6312   -0.4243   28.7519 C.3     1  UNL1        0.0338
     34 C           0.2469   -0.0482   29.1903 C.3     1  UNL1        0.1422
     35 O          -0.2217    1.3708   29.0597 O.3     1  UNL1       -0.3538
     36 C           0.6941    2.4136   28.4907 C.3     1  UNL1        0.1422
     37 C           2.0784    2.0375   28.0523 C.3     1  UNL1        0.0338
     38 C           6.7921   -5.7364   26.8057 C.3     1  UNL1        0.2542
     39 O           7.3952   -5.7938   28.1779 O.3     1  UNL1       -0.4561
@<TRIPOS>BOND
     1    38    39    1
     2    39    21    1
     3    21    22   ar
     4    22    23   ar
     5    23    24   ar
     6    24     1    1
     7     1     2   am
     8     2     3    2
     9     2     5    1
    10     5     6   ar
    11     6     7   ar
    12     7     8   ar
    13     8    15    1
    14    15    16    1
    15    16    17   ar
    16    17    18   ar
    17    18    19   ar
    18    19    20   ar
    19     8     9   ar
    20     9    10   ar
    21    10    11   ar
    22    11    12   ar
    23    12    13   ar
    24    13    14   ar
    25    24    25   ar
    26    25    27    1
    27    27    28    2
    28    27    29   am
    29    29    31    1
    30    31    32    1
    31    32    33    1
    32    33    34    1
    33    34    35    1
    34    35    36    1
    35    36    37    1
    36    25    26   ar
    37    26    21   ar
    38    14     5   ar
    39    37    32    1
    40    20    16   ar
    41    14     9   ar
    42     1     4    1
    43    29    30    1
@<TRIPOS>MOLECULE
*****
 39 43 0 0 0
SMALL
GASTEIGER

@<TRIPOS>ATOM
      1 N           3.3675   -1.6173   26.8674 N.am    1  UNL1       -0.2791
      2 C           3.8006   -0.7902   25.6934 C.2     1  UNL1        0.2495
      3 O           4.0523    0.6788   25.8629 O.2     1  UNL1       -0.2698
      4 H           3.2023   -2.5814   26.7561 H       1  UNL1        0.1552
      5 C           3.9820   -1.4321   24.3499 C.ar    1  UNL1        0.0537
      6 C           4.9403   -2.5746   24.1878 C.ar    1  UNL1        0.0043
      7 C           5.1217   -3.2164   22.8442 C.ar    1  UNL1       -0.0022
      8 C           4.3449   -2.7158   21.6628 C.ar    1  UNL1        0.0022
      9 C           3.3866   -1.5732   21.8248 C.ar    1  UNL1       -0.0019
     10 C           2.6098   -1.0725   20.6434 C.ar    1  UNL1       -0.0003
     11 C           1.6515    0.0700   20.8055 C.ar    1  UNL1       -0.0000
     12 C           1.4701    0.7119   22.1490 C.ar    1  UNL1        0.0000
     13 C           2.2469    0.2112   23.3305 C.ar    1  UNL1        0.0001
     14 C           3.2051   -0.9313   23.1684 C.ar    1  UNL1        0.0041
     15 C           4.5264   -3.3576   20.3192 C.3     1  UNL1        0.1556
     16 N           5.6044   -2.8728   19.3959 N.ar    1  UNL1       -0.2257
     17 C           6.9942   -2.4741   19.7955 C.ar    1  UNL1        0.1196
     18 C           7.7307   -2.0564   18.5573 C.ar    1  UNL1        0.1441
     19 N           6.7961   -2.1970   17.3925 N.ar    1  UNL1       -0.1271
     20 N           5.4820   -2.7015   17.9107 N.ar    1  UNL1       -0.0634
     21 C           2.8231    0.3083   30.8980 C.ar    1  UNL1        0.2251
     22 C           1.6896    0.2912   29.9157 C.ar    1  UNL1        0.0590
     23 C           1.8711   -0.3507   28.5722 C.ar    1  UNL1        0.0212
     24 C           3.1860   -0.9754   28.2109 C.ar    1  UNL1        0.0732
     25 C           4.3196   -0.9583   29.1932 C.ar    1  UNL1        0.1509
     26 N           4.1381   -0.3165   30.5367 N.ar    1  UNL1       -0.2058
     27 C           5.6345   -1.5831   28.8319 C.2     1  UNL1        0.2649
     28 O           6.4060   -1.0763   27.6495 O.2     1  UNL1       -0.2684
     29 N           6.1780   -2.7146   29.6530 N.am    1  UNL1       -0.2996
     30 H           5.6716   -3.0473   30.4290 H       1  UNL1        0.1498
     31 C           7.4930   -3.3395   29.2917 C.3     1  UNL1        0.0899
     32 C           7.5255   -4.6350   28.5364 C.3     1  UNL1        0.0246
     33 C           6.8942   -4.7277   27.1788 C.3     1  UNL1        0.0338
     34 C           6.9267   -6.0232   26.4235 C.3     1  UNL1        0.1422
     35 O           7.5904   -7.2261   27.0258 O.3     1  UNL1       -0.3538
     36 C           8.2217   -7.1334   28.3833 C.3     1  UNL1        0.1422
     37 C           8.1892   -5.8378   29.1386 C.3     1  UNL1        0.0338
     38 C           1.5992    2.0119   32.4309 C.3     1  UNL1        0.2542
     39 O           2.6417    0.9501   32.2415 O.3     1  UNL1       -0.4561
@<TRIPOS>BOND
     1    38    39    1
     2    39    21    1
     3    21    22   ar
     4    22    23   ar
     5    23    24   ar
     6    24     1    1
     7     1     2   am
     8     2     3    2
     9     2     5    1
    10     5     6   ar
    11     6     7   ar
    12     7     8   ar
    13     8    15    1
    14    15    16    1
    15    16    17   ar
    16    17    18   ar
    17    18    19   ar
    18    19    20   ar
    19     8     9   ar
    20     9    10   ar
    21    10    11   ar
    22    11    12   ar
    23    12    13   ar
    24    13    14   ar
    25    24    25   ar
    26    25    27    1
    27    27    28    2
    28    27    29   am
    29    29    31    1
    30    31    32    1
    31    32    33    1
    32    33    34    1
    33    34    35    1
    34    35    36    1
    35    36    37    1
    36    25    26   ar
    37    26    21   ar
    38    14     5   ar
    39    37    32    1
    40    20    16   ar
    41    14     9   ar
    42     1     4    1
    43    29    30    1
@<TRIPOS>MOLECULE
*****
 39 43 0 0 0
SMALL
GASTEIGER

@<TRIPOS>ATOM
      1 N           3.4570   -1.6494   26.4963 N.am    1  UNL1       -0.2791
      2 C           3.8485   -0.6721   25.4278 C.2     1  UNL1        0.2495
      3 O           4.2685    0.7188   25.8009 O.2     1  UNL1       -0.2698
      4 H           3.1814   -2.5622   26.2514 H       1  UNL1        0.1552
      5 C           3.8199   -1.0857   23.9862 C.ar    1  UNL1        0.0537
      6 C           2.8135   -0.4815   23.0524 C.ar    1  UNL1        0.0043
      7 C           2.7850   -0.8950   21.6108 C.ar    1  UNL1       -0.0022
      8 C           3.7629   -1.9128   21.1031 C.ar    1  UNL1        0.0022
      9 C           4.7694   -2.5170   22.0369 C.ar    1  UNL1       -0.0019
     10 C           5.7472   -3.5348   21.5291 C.ar    1  UNL1       -0.0003
     11 C           6.7537   -4.1389   22.4629 C.ar    1  UNL1       -0.0000
     12 C           6.7822   -3.7254   23.9044 C.ar    1  UNL1        0.0000
     13 C           5.8043   -2.7077   24.4122 C.ar    1  UNL1        0.0001
     14 C           4.7979   -2.1035   23.4784 C.ar    1  UNL1        0.0041
     15 C           3.7343   -2.3263   19.6615 C.3     1  UNL1        0.1556
     16 N           4.6864   -1.7039   18.6837 N.ar    1  UNL1       -0.2257
     17 C           4.6336   -0.2927   18.1780 C.ar    1  UNL1        0.1196
     18 C           5.7730   -0.1001   17.2217 C.ar    1  UNL1        0.1441
     19 N           6.5301   -1.3923   17.1363 N.ar    1  UNL1       -0.1271
     20 N           5.8585   -2.3835   18.0399 N.ar    1  UNL1       -0.0634
     21 C           3.5427   -0.4087   30.8210 C.ar    1  UNL1        0.2251
     22 C           2.2866   -0.2433   30.0181 C.ar    1  UNL1        0.0590
     23 C           2.2580   -0.6569   28.5765 C.ar    1  UNL1        0.0212
     24 C           3.4856   -1.2358   27.9379 C.ar    1  UNL1        0.0732
     25 C           4.7418   -1.4013   28.7409 C.ar    1  UNL1        0.1509
     26 N           4.7703   -0.9877   30.1824 N.ar    1  UNL1       -0.2058
     27 C           5.9693   -1.9802   28.1022 C.2     1  UNL1        0.2649
     28 O           6.9214   -1.0882   27.3620 O.2     1  UNL1       -0.2684
     29 N           6.2449   -3.4511   28.2039 N.am    1  UNL1       -0.2996
     30 H           5.6200   -4.0366   28.6897 H       1  UNL1        0.1498
     31 C           7.4725   -4.0302   27.5652 C.3     1  UNL1        0.0899
     32 C           7.6454   -5.5180   27.4850 C.3     1  UNL1        0.0246
     33 C           7.0067   -6.2881   26.3675 C.3     1  UNL1        0.0338
     34 C           7.1797   -7.7759   26.2873 C.3     1  UNL1        0.1422
     35 O           7.9914   -8.4936   27.3246 O.3     1  UNL1       -0.3538
     36 C           8.6301   -7.7235   28.4422 C.3     1  UNL1        0.1422
     37 C           8.4571   -6.2356   28.5224 C.3     1  UNL1        0.0338
     38 C           4.0866   -0.9430   33.3047 C.3     1  UNL1        0.2542
     39 O           3.5712    0.0048   32.2626 O.3     1  UNL1       -0.4561
@<TRIPOS>BOND
     1    38    39    1
     2    39    21    1
     3    21    22   ar
     4    22    23   ar
     5    23    24   ar
     6    24     1    1
     7     1     2   am
     8     2     3    2
     9     2     5    1
    10     5     6   ar
    11     6     7   ar
    12     7     8   ar
    13     8    15    1
    14    15    16    1
    15    16    17   ar
    16    17    18   ar
    17    18    19   ar
    18    19    20   ar
    19     8     9   ar
    20     9    10   ar
    21    10    11   ar
    22    11    12   ar
    23    12    13   ar
    24    13    14   ar
    25    24    25   ar
    26    25    27    1
    27    27    28    2
    28    27    29   am
    29    29    31    1
    30    31    32    1
    31    32    33    1
    32    33    34    1
    33    34    35    1
    34    35    36    1
    35    36    37    1
    36    25    26   ar
    37    26    21   ar
    38    14     5   ar
    39    37    32    1
    40    20    16   ar
    41    14     9   ar
    42     1     4    1
    43    29    30    1
@<TRIPOS>MOLECULE
*****
 39 43 0 0 0
SMALL
GASTEIGER

@<TRIPOS>ATOM
      1 N           1.8221    0.2236   25.9674 N.am    1  UNL1       -0.2791
      2 C           2.7647    0.7364   24.9193 C.2     1  UNL1        0.2495
      3 O           3.4927    2.0303   25.1337 O.2     1  UNL1       -0.2698
      4 H           1.3444   -0.6257   25.8267 H       1  UNL1        0.1552
      5 C           2.9795   -0.0447   23.6568 C.ar    1  UNL1        0.0537
      6 C           4.0747   -1.0670   23.5845 C.ar    1  UNL1        0.0043
      7 C           4.2895   -1.8481   22.3220 C.ar    1  UNL1       -0.0022
      8 C           3.4089   -1.6069   21.1319 C.ar    1  UNL1        0.0022
      9 C           2.3136   -0.5845   21.2042 C.ar    1  UNL1       -0.0019
     10 C           1.4330   -0.3433   20.0141 C.ar    1  UNL1       -0.0003
     11 C           0.3378    0.6789   20.0865 C.ar    1  UNL1       -0.0000
     12 C           0.1230    1.4600   21.3489 C.ar    1  UNL1        0.0000
     13 C           1.0036    1.2188   22.5390 C.ar    1  UNL1        0.0001
     14 C           2.0989    0.1965   22.4667 C.ar    1  UNL1        0.0041
     15 C           3.6237   -2.3879   19.8695 C.3     1  UNL1        0.1556
     16 N           4.7724   -2.0515   18.9656 N.ar    1  UNL1       -0.2257
     17 C           5.2881   -0.6741   18.6705 C.ar    1  UNL1        0.1196
     18 C           6.4416   -0.8047   17.7206 C.ar    1  UNL1        0.1441
     19 N           6.6388   -2.2627   17.4285 N.ar    1  UNL1       -0.1271
     20 N           5.6072   -3.0333   18.1979 N.ar    1  UNL1       -0.0634
     21 C           1.1780    2.5668   29.7547 C.ar    1  UNL1        0.2251
     22 C           0.3325    2.8453   28.5475 C.ar    1  UNL1        0.0590
     23 C           0.5472    2.0643   27.2850 C.ar    1  UNL1        0.0212
     24 C           1.6074    1.0046   27.2298 C.ar    1  UNL1        0.0732
     25 C           2.4530    0.7261   28.4371 C.ar    1  UNL1        0.1509
     26 N           2.2383    1.5071   29.6996 N.ar    1  UNL1       -0.2058
     27 C           3.5132   -0.3336   28.3819 C.2     1  UNL1        0.2649
     28 O           3.2566   -1.6135   27.6431 O.2     1  UNL1       -0.2684
     29 N           4.8300   -0.1132   29.0655 N.am    1  UNL1       -0.2996
     30 H           4.9985    0.7269   29.5504 H       1  UNL1        0.1498
     31 C           5.8904   -1.1729   29.0103 C.3     1  UNL1        0.0899
     32 C           6.0450   -2.1390   30.1472 C.3     1  UNL1        0.0246
     33 C           6.6979   -3.4697   29.9171 C.3     1  UNL1        0.0338
     34 C           6.8526   -4.4358   31.0540 C.3     1  UNL1        0.1422
     35 O           6.3544   -4.0713   32.4212 O.3     1  UNL1       -0.3538
     36 C           5.7015   -2.7405   32.6513 C.3     1  UNL1        0.1422
     37 C           5.5469   -1.7744   31.5143 C.3     1  UNL1        0.0338
     38 C           1.2418    2.7141   32.3478 C.3     1  UNL1        0.2542
     39 O           0.9632    3.3479   31.0172 O.3     1  UNL1       -0.4561
@<TRIPOS>BOND
     1    38    39    1
     2    39    21    1
     3    21    22   ar
     4    22    23   ar
     5    23    24   ar
     6    24     1    1
     7     1     2   am
     8     2     3    2
     9     2     5    1
    10     5     6   ar
    11     6     7   ar
    12     7     8   ar
    13     8    15    1
    14    15    16    1
    15    16    17   ar
    16    17    18   ar
    17    18    19   ar
    18    19    20   ar
    19     8     9   ar
    20     9    10   ar
    21    10    11   ar
    22    11    12   ar
    23    12    13   ar
    24    13    14   ar
    25    24    25   ar
    26    25    27    1
    27    27    28    2
    28    27    29   am
    29    29    31    1
    30    31    32    1
    31    32    33    1
    32    33    34    1
    33    34    35    1
    34    35    36    1
    35    36    37    1
    36    25    26   ar
    37    26    21   ar
    38    14     5   ar
    39    37    32    1
    40    20    16   ar
    41    14     9   ar
    42     1     4    1
    43    29    30    1
@<TRIPOS>MOLECULE
*****
 39 43 0 0 0
SMALL
GASTEIGER

@<TRIPOS>ATOM
      1 N           2.7250   -0.9599   27.2338 N.am    1  UNL1       -0.2791
      2 C           3.4304   -0.1261   26.2056 C.2     1  UNL1        0.2495
      3 O           4.3324    0.9921   26.6370 O.2     1  UNL1       -0.2698
      4 H           2.1331   -1.6938   26.9506 H       1  UNL1        0.1552
      5 C           3.2339   -0.4106   24.7460 C.ar    1  UNL1        0.0537
      6 C           4.0239   -1.4984   24.0808 C.ar    1  UNL1        0.0043
      7 C           3.8274   -1.7828   22.6212 C.ar    1  UNL1       -0.0022
      8 C           2.8409   -0.9794   21.8267 C.ar    1  UNL1        0.0022
      9 C           2.0508    0.1085   22.4918 C.ar    1  UNL1       -0.0019
     10 C           1.0643    0.9119   21.6973 C.ar    1  UNL1       -0.0003
     11 C           0.2743    1.9998   22.3625 C.ar    1  UNL1       -0.0000
     12 C           0.4708    2.2842   23.8221 C.ar    1  UNL1        0.0000
     13 C           1.4573    1.4808   24.6166 C.ar    1  UNL1        0.0001
     14 C           2.2473    0.3929   23.9515 C.ar    1  UNL1        0.0041
     15 C           2.6444   -1.2638   20.3671 C.3     1  UNL1        0.1556
     16 N           3.6033   -2.1609   19.6421 N.ar    1  UNL1       -0.2257
     17 C           4.8516   -1.7272   18.9324 C.ar    1  UNL1        0.1196
     18 C           5.5021   -2.9475   18.3511 C.ar    1  UNL1        0.1441
     19 N           4.6558   -4.1353   18.7016 N.ar    1  UNL1       -0.1271
     20 N           3.4823   -3.6492   19.4994 N.ar    1  UNL1       -0.0634
     21 C           3.3145   -0.1066   31.6126 C.ar    1  UNL1        0.2251
     22 C           4.4310   -0.7030   30.8078 C.ar    1  UNL1        0.0590
     23 C           4.2345   -0.9874   29.3481 C.ar    1  UNL1        0.0212
     24 C           2.9215   -0.6755   28.6934 C.ar    1  UNL1        0.0732
     25 C           1.8050   -0.0791   29.4982 C.ar    1  UNL1        0.1509
     26 N           2.0015    0.2053   30.9579 N.ar    1  UNL1       -0.2058
     27 C           0.4920    0.2327   28.8435 C.2     1  UNL1        0.2649
     28 O          -0.6791   -0.6845   29.0367 O.2     1  UNL1       -0.2684
     29 N           0.3501    1.4619   27.9955 N.am    1  UNL1       -0.2996
     30 H           1.1187    2.0639   27.8687 H       1  UNL1        0.1498
     31 C          -0.9630    1.7738   27.3407 C.3     1  UNL1        0.0899
     32 C          -1.2575    3.1700   26.8783 C.3     1  UNL1        0.0246
     33 C          -2.4268    3.4301   25.9755 C.3     1  UNL1        0.0338
     34 C          -2.7213    4.8263   25.5131 C.3     1  UNL1        0.1422
     35 O          -1.8465    5.9625   25.9535 O.3     1  UNL1       -0.3538
     36 C          -0.6772    5.7024   26.8563 C.3     1  UNL1        0.1422
     37 C          -0.3827    4.3061   27.3187 C.3     1  UNL1        0.0338
     38 C           4.3104   -0.7672   33.9195 C.3     1  UNL1        0.2542
     39 O           3.5110    0.1778   33.0722 O.3     1  UNL1       -0.4561
@<TRIPOS>BOND
     1    38    39    1
     2    39    21    1
     3    21    22   ar
     4    22    23   ar
     5    23    24   ar
     6    24     1    1
     7     1     2   am
     8     2     3    2
     9     2     5    1
    10     5     6   ar
    11     6     7   ar
    12     7     8   ar
    13     8    15    1
    14    15    16    1
    15    16    17   ar
    16    17    18   ar
    17    18    19   ar
    18    19    20   ar
    19     8     9   ar
    20     9    10   ar
    21    10    11   ar
    22    11    12   ar
    23    12    13   ar
    24    13    14   ar
    25    24    25   ar
    26    25    27    1
    27    27    28    2
    28    27    29   am
    29    29    31    1
    30    31    32    1
    31    32    33    1
    32    33    34    1
    33    34    35    1
    34    35    36    1
    35    36    37    1
    36    25    26   ar
    37    26    21   ar
    38    14     5   ar
    39    37    32    1
    40    20    16   ar
    41    14     9   ar
    42     1     4    1
    43    29    30    1
@<TRIPOS>MOLECULE
*****
 39 43 0 0 0
SMALL
GASTEIGER

@<TRIPOS>ATOM
      1 N           2.3495   -0.1601   26.3404 N.am    1  UNL1       -0.2791
      2 C           3.1877    0.4210   25.2405 C.2     1  UNL1        0.2495
      3 O           3.9127    1.7166   25.4546 O.2     1  UNL1       -0.2698
      4 H           1.8737   -1.0104   26.1998 H       1  UNL1        0.1552
      5 C           3.3010   -0.2935   23.9265 C.ar    1  UNL1        0.0537
      6 C           4.3582   -1.3393   23.7301 C.ar    1  UNL1        0.0043
      7 C           4.4714   -2.0538   22.4160 C.ar    1  UNL1       -0.0022
      8 C           3.5275   -1.7225   21.2984 C.ar    1  UNL1        0.0022
      9 C           2.4702   -0.6767   21.4948 C.ar    1  UNL1       -0.0019
     10 C           1.5262   -0.3454   20.3771 C.ar    1  UNL1       -0.0003
     11 C           0.4690    0.7004   20.5735 C.ar    1  UNL1       -0.0000
     12 C           0.3557    1.4149   21.8876 C.ar    1  UNL1        0.0000
     13 C           1.2997    1.0836   23.0052 C.ar    1  UNL1        0.0001
     14 C           2.3569    0.0378   22.8088 C.ar    1  UNL1        0.0041
     15 C           3.6407   -2.4370   19.9844 C.3     1  UNL1        0.1556
     16 N           4.7416   -2.0813   19.0297 N.ar    1  UNL1       -0.2257
     17 C           5.1527   -0.6936   18.6355 C.ar    1  UNL1        0.1196
     18 C           6.2899   -0.8055   17.6638 C.ar    1  UNL1        0.1441
     19 N           6.5816   -2.2623   17.4574 N.ar    1  UNL1       -0.1271
     20 N           5.6247   -3.0508   18.3016 N.ar    1  UNL1       -0.0634
     21 C           2.0097    1.9834   30.2825 C.ar    1  UNL1        0.2251
     22 C           3.0118    0.8802   30.1125 C.ar    1  UNL1        0.0590
     23 C           3.1251    0.1657   28.7985 C.ar    1  UNL1        0.0212
     24 C           2.2363    0.5544   27.6544 C.ar    1  UNL1        0.0732
     25 C           1.2341    1.6576   27.8243 C.ar    1  UNL1        0.1509
     26 N           1.1209    2.3720   29.1384 N.ar    1  UNL1       -0.2058
     27 C           0.3453    2.0462   26.6803 C.2     1  UNL1        0.2649
     28 O          -0.4011    0.9914   25.9185 O.2     1  UNL1       -0.2684
     29 N           0.2029    3.4896   26.2980 N.am    1  UNL1       -0.2996
     30 H           0.6928    4.1819   26.7979 H       1  UNL1        0.1498
     31 C          -0.6859    3.8783   25.1538 C.3     1  UNL1        0.0899
     32 C          -2.1767    3.8305   25.3124 C.3     1  UNL1        0.0246
     33 C          -3.0433    3.4560   24.1468 C.3     1  UNL1        0.0338
     34 C          -4.5341    3.4082   24.3054 C.3     1  UNL1        0.1422
     35 O          -5.1584    3.7349   25.6297 O.3     1  UNL1       -0.3538
     36 C          -4.2917    4.1094   26.7953 C.3     1  UNL1        0.1422
     37 C          -2.8009    4.1572   26.6367 C.3     1  UNL1        0.0338
     38 C           2.1374    1.9552   32.8772 C.3     1  UNL1        0.2542
     39 O           1.8965    2.6978   31.5965 O.3     1  UNL1       -0.4561
@<TRIPOS>BOND
     1    38    39    1
     2    39    21    1
     3    21    22   ar
     4    22    23   ar
     5    23    24   ar
     6    24     1    1
     7     1     2   am
     8     2     3    2
     9     2     5    1
    10     5     6   ar
    11     6     7   ar
    12     7     8   ar
    13     8    15    1
    14    15    16    1
    15    16    17   ar
    16    17    18   ar
    17    18    19   ar
    18    19    20   ar
    19     8     9   ar
    20     9    10   ar
    21    10    11   ar
    22    11    12   ar
    23    12    13   ar
    24    13    14   ar
    25    24    25   ar
    26    25    27    1
    27    27    28    2
    28    27    29   am
    29    29    31    1
    30    31    32    1
    31    32    33    1
    32    33    34    1
    33    34    35    1
    34    35    36    1
    35    36    37    1
    36    25    26   ar
    37    26    21   ar
    38    14     5   ar
    39    37    32    1
    40    20    16   ar
    41    14     9   ar
    42     1     4    1
    43    29    30    1
@<TRIPOS>MOLECULE
*****
 39 43 0 0 0
SMALL
GASTEIGER

@<TRIPOS>ATOM
      1 N           4.3531   -2.2852   25.2853 N.am    1  UNL1       -0.2791
      2 C           5.6692   -1.9652   25.9297 C.2     1  UNL1        0.2495
      3 O           6.7727   -1.3539   25.1180 O.2     1  UNL1       -0.2698
      4 H           3.6288   -2.6864   25.8181 H       1  UNL1        0.1552
      5 C           5.8820   -2.2564   27.3857 C.ar    1  UNL1        0.0537
      6 C           5.5260   -1.2264   28.4164 C.ar    1  UNL1        0.0043
      7 C           5.7388   -1.5176   29.8724 C.ar    1  UNL1       -0.0022
      8 C           6.3075   -2.8388   30.2977 C.ar    1  UNL1        0.0022
      9 C           6.6635   -3.8689   29.2670 C.ar    1  UNL1       -0.0019
     10 C           7.2322   -5.1901   29.6923 C.ar    1  UNL1       -0.0003
     11 C           7.5881   -6.2201   28.6616 C.ar    1  UNL1       -0.0000
     12 C           7.3754   -5.9289   27.2056 C.ar    1  UNL1        0.0000
     13 C           6.8067   -4.6077   26.7803 C.ar    1  UNL1        0.0001
     14 C           6.4507   -3.5777   27.8110 C.ar    1  UNL1        0.0041
     15 C           6.5203   -3.1299   31.7537 C.3     1  UNL1        0.1556
     16 N           5.6921   -2.4270   32.7880 N.ar    1  UNL1       -0.2257
     17 C           6.1031   -1.2168   33.5733 C.ar    1  UNL1        0.1196
     18 C           4.9725   -0.8526   34.4893 C.ar    1  UNL1        0.1441
     19 N           3.8626   -1.8377   34.2700 N.ar    1  UNL1       -0.1271
     20 N           4.3074   -2.8106   33.2186 N.ar    1  UNL1       -0.0634
     21 C           3.7148   -1.4117   20.9173 C.ar    1  UNL1        0.2251
     22 C           4.3903   -2.6834   21.3369 C.ar    1  UNL1        0.0590
     23 C           4.6031   -2.9746   22.7929 C.ar    1  UNL1        0.0212
     24 C           4.1403   -1.9940   23.8293 C.ar    1  UNL1        0.0732
     25 C           3.4646   -0.7222   23.4098 C.ar    1  UNL1        0.1509
     26 N           3.2519   -0.4310   21.9538 N.ar    1  UNL1       -0.2058
     27 C           3.0018    0.2584   24.4462 C.2     1  UNL1        0.2649
     28 O           4.0060    1.0285   25.2515 O.2     1  UNL1       -0.2684
     29 N           1.5348    0.4689   24.6773 N.am    1  UNL1       -0.2996
     30 H           0.8757   -0.0366   24.1488 H       1  UNL1        0.1498
     31 C           1.0719    1.4495   25.7138 C.3     1  UNL1        0.0899
     32 C           0.7130    0.9728   27.0900 C.3     1  UNL1        0.0246
     33 C          -0.7099    1.0404   27.5598 C.3     1  UNL1        0.0338
     34 C          -1.0688    0.5637   28.9360 C.3     1  UNL1        0.1422
     35 O          -0.0047    0.0194   29.8424 O.3     1  UNL1       -0.3538
     36 C           1.4182   -0.0482   29.3726 C.3     1  UNL1        0.1422
     37 C           1.7771    0.4286   27.9963 C.3     1  UNL1        0.0338
     38 C           4.6555   -0.6848   18.6072 C.3     1  UNL1        0.2542
     39 O           3.5020   -1.1205   19.4613 O.3     1  UNL1       -0.4561
@<TRIPOS>BOND
     1    38    39    1
     2    39    21    1
     3    21    22   ar
     4    22    23   ar
     5    23    24   ar
     6    24     1    1
     7     1     2   am
     8     2     3    2
     9     2     5    1
    10     5     6   ar
    11     6     7   ar
    12     7     8   ar
    13     8    15    1
    14    15    16    1
    15    16    17   ar
    16    17    18   ar
    17    18    19   ar
    18    19    20   ar
    19     8     9   ar
    20     9    10   ar
    21    10    11   ar
    22    11    12   ar
    23    12    13   ar
    24    13    14   ar
    25    24    25   ar
    26    25    27    1
    27    27    28    2
    28    27    29   am
    29    29    31    1
    30    31    32    1
    31    32    33    1
    32    33    34    1
    33    34    35    1
    34    35    36    1
    35    36    37    1
    36    25    26   ar
    37    26    21   ar
    38    14     5   ar
    39    37    32    1
    40    20    16   ar
    41    14     9   ar
    42     1     4    1
    43    29    30    1
@<TRIPOS>MOLECULE
*****
 39 43 0 0 0
SMALL
GASTEIGER

@<TRIPOS>ATOM
      1 N           2.1067    1.2322   31.6498 N.am    1  UNL1       -0.2791
      2 C           3.1336    2.1112   32.2999 C.2     1  UNL1        0.2495
      3 O           4.1786    2.7887   31.4638 O.2     1  UNL1       -0.2698
      4 H           1.4209    0.7876   32.1986 H       1  UNL1        0.1552
      5 C           3.1157    2.3128   33.7862 C.ar    1  UNL1        0.0537
      6 C           2.2150    3.3481   34.3918 C.ar    1  UNL1        0.0043
      7 C           2.1971    3.5497   35.8781 C.ar    1  UNL1       -0.0022
      8 C           3.0797    2.7159   36.7588 C.ar    1  UNL1        0.0022
      9 C           3.9804    1.6805   36.1532 C.ar    1  UNL1       -0.0019
     10 C           4.8631    0.8467   37.0338 C.ar    1  UNL1       -0.0003
     11 C           5.7638   -0.1887   36.4282 C.ar    1  UNL1       -0.0000
     12 C           5.7817   -0.3903   34.9419 C.ar    1  UNL1        0.0000
     13 C           4.8991    0.4435   34.0613 C.ar    1  UNL1        0.0001
     14 C           3.9984    1.4789   34.6669 C.ar    1  UNL1        0.0041
     15 C           3.0617    2.9174   38.2451 C.3     1  UNL1        0.1556
     16 N           2.1610    2.0809   39.1046 N.ar    1  UNL1       -0.2257
     17 C           1.8181    0.6380   38.8796 C.ar    1  UNL1        0.1196
     18 C           0.8901    0.2057   39.9759 C.ar    1  UNL1        0.1441
     19 N           0.6594    1.3815   40.8784 N.ar    1  UNL1       -0.1271
     20 N           1.4449    2.5404   40.3399 N.ar    1  UNL1       -0.0634
     21 C           2.1606    0.6275   27.1909 C.ar    1  UNL1        0.2251
     22 C           1.2382    1.6420   27.7991 C.ar    1  UNL1        0.0590
     23 C           1.2202    1.8436   29.2854 C.ar    1  UNL1        0.0212
     24 C           2.1247    1.0307   30.1635 C.ar    1  UNL1        0.0732
     25 C           3.0472    0.0161   29.5553 C.ar    1  UNL1        0.1509
     26 N           3.0651   -0.1855   28.0690 N.ar    1  UNL1       -0.2058
     27 C           3.9516   -0.7968   30.4334 C.2     1  UNL1        0.2649
     28 O           3.3900   -1.5265   31.6176 O.2     1  UNL1       -0.2684
     29 N           5.4176   -0.8801   30.1274 N.am    1  UNL1       -0.2996
     30 H           5.7862   -0.4012   29.3502 H       1  UNL1        0.1498
     31 C           6.3222   -1.6931   31.0055 C.3     1  UNL1        0.0899
     32 C           6.5155   -3.1555   30.7336 C.3     1  UNL1        0.0246
     33 C           6.7533   -4.1046   31.8705 C.3     1  UNL1        0.0338
     34 C           6.9467   -5.5670   31.5987 C.3     1  UNL1        0.1422
     35 O           6.9022   -6.0803   30.1899 O.3     1  UNL1       -0.3538
     36 C           6.6644   -5.1312   29.0530 C.3     1  UNL1        0.1422
     37 C           6.4710   -3.6687   29.3249 C.3     1  UNL1        0.0338
     38 C           3.3891   -0.1619   25.0421 C.3     1  UNL1        0.2542
     39 O           2.1786    0.4260   25.7046 O.3     1  UNL1       -0.4561
@<TRIPOS>BOND
     1    38    39    1
     2    39    21    1
     3    21    22   ar
     4    22    23   ar
     5    23    24   ar
     6    24     1    1
     7     1     2   am
     8     2     3    2
     9     2     5    1
    10     5     6   ar
    11     6     7   ar
    12     7     8   ar
    13     8    15    1
    14    15    16    1
    15    16    17   ar
    16    17    18   ar
    17    18    19   ar
    18    19    20   ar
    19     8     9   ar
    20     9    10   ar
    21    10    11   ar
    22    11    12   ar
    23    12    13   ar
    24    13    14   ar
    25    24    25   ar
    26    25    27    1
    27    27    28    2
    28    27    29   am
    29    29    31    1
    30    31    32    1
    31    32    33    1
    32    33    34    1
    33    34    35    1
    34    35    36    1
    35    36    37    1
    36    25    26   ar
    37    26    21   ar
    38    14     5   ar
    39    37    32    1
    40    20    16   ar
    41    14     9   ar
    42     1     4    1
    43    29    30    1
@<TRIPOS>MOLECULE
*****
 39 43 0 0 0
SMALL
GASTEIGER

@<TRIPOS>ATOM
      1 N           2.7075   -0.9263   27.1264 N.am    1  UNL1       -0.2791
      2 C           3.4350   -0.1121   26.0980 C.2     1  UNL1        0.2495
      3 O           4.4150    0.9386   26.5290 O.2     1  UNL1       -0.2698
      4 H           2.0644   -1.6159   26.8435 H       1  UNL1        0.1552
      5 C           3.1826   -0.3485   24.6384 C.ar    1  UNL1        0.0537
      6 C           2.1915    0.5025   23.9012 C.ar    1  UNL1        0.0043
      7 C           1.9391    0.2661   22.4416 C.ar    1  UNL1       -0.0022
      8 C           2.6777   -0.8214   21.7192 C.ar    1  UNL1        0.0022
      9 C           3.6688   -1.6725   22.4564 C.ar    1  UNL1       -0.0019
     10 C           4.4074   -2.7599   21.7341 C.ar    1  UNL1       -0.0003
     11 C           5.3984   -3.6110   22.4713 C.ar    1  UNL1       -0.0000
     12 C           5.6508   -3.3746   23.9308 C.ar    1  UNL1        0.0000
     13 C           4.9122   -2.2871   24.6532 C.ar    1  UNL1        0.0001
     14 C           3.9212   -1.4361   23.9160 C.ar    1  UNL1        0.0041
     15 C           2.4252   -1.0578   20.2596 C.3     1  UNL1        0.1556
     16 N           3.3415   -0.4600   19.2335 N.ar    1  UNL1       -0.2257
     17 C           3.8290   -1.1357   17.9862 C.ar    1  UNL1        0.1196
     18 C           4.7200   -0.1748   17.2564 C.ar    1  UNL1        0.1441
     19 N           4.7833    1.0948   18.0527 N.ar    1  UNL1       -0.1271
     20 N           3.9314    0.9186   19.2746 N.ar    1  UNL1       -0.0634
     21 C           3.4649   -0.2171   31.5052 C.ar    1  UNL1        0.2251
     22 C           4.5541   -0.7718   30.6358 C.ar    1  UNL1        0.0590
     23 C           4.3017   -1.0082   29.1763 C.ar    1  UNL1        0.0212
     24 C           2.9600   -0.6899   28.5860 C.ar    1  UNL1        0.0732
     25 C           1.8706   -0.1352   29.4553 C.ar    1  UNL1        0.1509
     26 N           2.1231    0.1012   30.9149 N.ar    1  UNL1       -0.2058
     27 C           0.5289    0.1831   28.8651 C.2     1  UNL1        0.2649
     28 O          -0.6508   -0.6921   29.1689 O.2     1  UNL1       -0.2684
     29 N           0.3669    1.3765   27.9710 N.am    1  UNL1       -0.2996
     30 H           1.1412    1.9509   27.7716 H       1  UNL1        0.1498
     31 C          -0.9749    1.6948   27.3807 C.3     1  UNL1        0.0899
     32 C          -1.0980    2.7546   26.3263 C.3     1  UNL1        0.0246
     33 C          -0.6673    2.4659   24.9188 C.3     1  UNL1        0.0338
     34 C          -0.7905    3.5257   23.8645 C.3     1  UNL1        0.1422
     35 O          -1.3445    4.8742   24.2176 O.3     1  UNL1       -0.3538
     36 C          -1.7752    5.1629   25.6252 C.3     1  UNL1        0.1422
     37 C          -1.6519    4.1030   26.6795 C.3     1  UNL1        0.0338
     38 C           3.2129    1.2707   33.6201 C.3     1  UNL1        0.2542
     39 O           3.7173    0.0193   32.9647 O.3     1  UNL1       -0.4561
@<TRIPOS>BOND
     1    38    39    1
     2    39    21    1
     3    21    22   ar
     4    22    23   ar
     5    23    24   ar
     6    24     1    1
     7     1     2   am
     8     2     3    2
     9     2     5    1
    10     5     6   ar
    11     6     7   ar
    12     7     8   ar
    13     8    15    1
    14    15    16    1
    15    16    17   ar
    16    17    18   ar
    17    18    19   ar
    18    19    20   ar
    19     8     9   ar
    20     9    10   ar
    21    10    11   ar
    22    11    12   ar
    23    12    13   ar
    24    13    14   ar
    25    24    25   ar
    26    25    27    1
    27    27    28    2
    28    27    29   am
    29    29    31    1
    30    31    32    1
    31    32    33    1
    32    33    34    1
    33    34    35    1
    34    35    36    1
    35    36    37    1
    36    25    26   ar
    37    26    21   ar
    38    14     5   ar
    39    37    32    1
    40    20    16   ar
    41    14     9   ar
    42     1     4    1
    43    29    30    1
