@<TRIPOS>MOLECULE
*****
 28 31 0 0 0
SMALL
GASTEIGER

@<TRIPOS>ATOM
      1 N           0.7529    1.5552   20.6108 N.ar    1  UNL1       -0.3048
      2 C          -0.0845    2.5330   19.8410 C.ar    1  UNL1        0.0833
      3 C          -0.9009    3.3186   20.8239 C.ar    1  UNL1        0.0579
      4 C          -0.5682    2.8263   22.2012 C.ar    1  UNL1        0.0207
      5 C          -1.0639    3.2296   23.5582 C.ar    1  UNL1        0.0016
      6 C          -0.5374    2.5430   24.7835 C.ar    1  UNL1        0.0001
      7 C           0.4847    1.4531   24.6518 C.ar    1  UNL1        0.0015
      8 C           0.9804    1.0498   23.2948 C.ar    1  UNL1        0.0175
      9 C           0.4539    1.7364   22.0695 C.ar    1  UNL1        0.0641
     10 C           3.6529   -1.4029   18.8528 C.ar    1  UNL1        0.0141
     11 C           2.9306   -1.7271   20.1268 C.ar    1  UNL1        0.0026
     12 C           1.9639   -0.7411   20.7128 C.ar    1  UNL1        0.0176
     13 C           1.7195    0.5691   20.0248 C.ar    1  UNL1        0.0640
     14 C           2.4419    0.8934   18.7507 C.ar    1  UNL1        0.0176
     15 C           3.4085   -0.0926   18.1647 C.ar    1  UNL1        0.0026
     16 O           4.4828   -3.8495   18.5794 O.co2   1  UNL1       -0.5446
     17 C           4.6195   -2.3889   18.2668 C.2     1  UNL1        0.0729
     18 O           5.7228   -1.9142   17.3682 O.co2   1  UNL1       -0.5446
     19 C          -1.8786    4.4057   20.4885 C.2     1  UNL1        0.1987
     20 O          -1.5741    5.8277   20.8558 O.2     1  UNL1       -0.2865
     21 C          -3.1608    4.0706   19.7857 C.ar    1  UNL1        0.0601
     22 C          -4.3643    3.6551   20.5787 C.ar    1  UNL1        0.0615
     23 CL         -4.2856    3.5745   22.0745 Cl      1  UNL1       -0.0821
     24 C          -5.6464    3.3200   19.8760 C.ar    1  UNL1        0.0115
     25 C          -5.7250    3.4006   18.3802 C.ar    1  UNL1        0.0017
     26 C          -4.5216    3.8162   17.5872 C.ar    1  UNL1        0.0115
     27 C          -3.2394    4.1512   18.2899 C.ar    1  UNL1        0.0615
     28 CL         -2.0359    4.5668   17.4969 Cl      1  UNL1       -0.0821
@<TRIPOS>UNITY_ATOM_ATTR
16 1
charge -1
@<TRIPOS>BOND
     1    16    17   ar
     2    17    18   ar
     3    17    10    1
     4    10    11   ar
     5    11    12   ar
     6    12    13   ar
     7    13     1    1
     8     1     2   ar
     9     2     3   ar
    10     3    19    1
    11    19    20    2
    12    19    21    1
    13    21    22   ar
    14    22    23    1
    15    22    24   ar
    16    24    25   ar
    17    25    26   ar
    18    26    27   ar
    19    27    28    1
    20     3     4   ar
    21     4     5   ar
    22     5     6   ar
    23     6     7   ar
    24     7     8   ar
    25     8     9   ar
    26    13    14   ar
    27    14    15   ar
    28    15    10   ar
    29     9     1   ar
    30    27    21   ar
    31     9     4   ar
@<TRIPOS>MOLECULE
*****
 28 31 0 0 0
SMALL
GASTEIGER

@<TRIPOS>ATOM
      1 N           0.7180    1.5569   20.6487 N.ar    1  UNL1       -0.3048
      2 C          -0.1222    2.5312   19.8775 C.ar    1  UNL1        0.0833
      3 C          -0.9342    3.3221   20.8598 C.ar    1  UNL1        0.0579
      4 C          -0.5960    2.8366   22.2382 C.ar    1  UNL1        0.0207
      5 C          -1.0858    3.2470   23.5952 C.ar    1  UNL1        0.0016
      6 C          -0.5546    2.5664   24.8218 C.ar    1  UNL1        0.0001
      7 C           0.4665    1.4754   24.6913 C.ar    1  UNL1        0.0015
      8 C           0.9564    1.0650   23.3343 C.ar    1  UNL1        0.0175
      9 C           0.4252    1.7456   22.1077 C.ar    1  UNL1        0.0641
     10 C           3.6093   -1.4113   18.8936 C.ar    1  UNL1        0.0141
     11 C           3.0017   -1.6632   20.2417 C.ar    1  UNL1        0.0026
     12 C           2.0379   -0.6738   20.8267 C.ar    1  UNL1        0.0176
     13 C           1.6817    0.5675   20.0637 C.ar    1  UNL1        0.0640
     14 C           2.2893    0.8194   18.7155 C.ar    1  UNL1        0.0176
     15 C           3.2531   -0.1700   18.1305 C.ar    1  UNL1        0.0026
     16 O           5.6614   -1.9333   17.3883 O.co2   1  UNL1       -0.5446
     17 C           4.5731   -2.4007   18.3086 C.2     1  UNL1        0.0729
     18 O           4.4484   -3.8574   18.6439 O.co2   1  UNL1       -0.5446
     19 C          -1.9128    4.4079   20.5230 C.2     1  UNL1        0.1987
     20 O          -1.6224    5.8268   20.9133 O.2     1  UNL1       -0.2865
     21 C          -3.1818    4.0748   19.7957 C.ar    1  UNL1        0.0601
     22 C          -3.2371    4.1737   18.3000 C.ar    1  UNL1        0.0615
     23 CL         -2.0235    4.6057   17.5316 Cl      1  UNL1       -0.0821
     24 C          -4.5060    3.8407   17.5728 C.ar    1  UNL1        0.0115
     25 C          -5.7196    3.4087   18.3413 C.ar    1  UNL1        0.0017
     26 C          -5.6642    3.3098   19.8370 C.ar    1  UNL1        0.0115
     27 C          -4.3954    3.6429   20.5643 C.ar    1  UNL1        0.0615
     28 CL         -4.3400    3.5440   22.0600 Cl      1  UNL1       -0.0821
@<TRIPOS>UNITY_ATOM_ATTR
16 1
charge -1
@<TRIPOS>BOND
     1    16    17   ar
     2    17    18   ar
     3    17    10    1
     4    10    11   ar
     5    11    12   ar
     6    12    13   ar
     7    13     1    1
     8     1     2   ar
     9     2     3   ar
    10     3    19    1
    11    19    20    2
    12    19    21    1
    13    21    22   ar
    14    22    23    1
    15    22    24   ar
    16    24    25   ar
    17    25    26   ar
    18    26    27   ar
    19    27    28    1
    20     3     4   ar
    21     4     5   ar
    22     5     6   ar
    23     6     7   ar
    24     7     8   ar
    25     8     9   ar
    26    13    14   ar
    27    14    15   ar
    28    15    10   ar
    29     9     1   ar
    30    27    21   ar
    31     9     4   ar
@<TRIPOS>MOLECULE
*****
 28 31 0 0 0
SMALL
GASTEIGER

@<TRIPOS>ATOM
      1 N           2.0051    0.3765   22.5257 N.ar    1  UNL1       -0.3048
      2 C           2.2920    0.6372   23.9747 C.ar    1  UNL1        0.0833
      3 C           1.3624    1.7167   24.4443 C.ar    1  UNL1        0.0579
      4 C           0.5010    2.1232   23.2855 C.ar    1  UNL1        0.0207
      5 C          -0.5937    3.1405   23.1569 C.ar    1  UNL1        0.0016
      6 C          -1.2912    3.3295   21.8425 C.ar    1  UNL1        0.0001
      7 C          -0.8940    2.5012   20.6567 C.ar    1  UNL1        0.0015
      8 C           0.2007    1.4839   20.7853 C.ar    1  UNL1        0.0175
      9 C           0.8982    1.2949   22.0997 C.ar    1  UNL1        0.0641
     10 C           4.0977   -2.6326   19.9148 C.ar    1  UNL1        0.0141
     11 C           3.1775   -1.6190   19.3018 C.ar    1  UNL1        0.0026
     12 C           2.4800   -0.6160   20.1721 C.ar    1  UNL1        0.0176
     13 C           2.7026   -0.6265   21.6553 C.ar    1  UNL1        0.0640
     14 C           3.6228   -1.6402   22.2684 C.ar    1  UNL1        0.0176
     15 C           4.3203   -2.6432   21.3981 C.ar    1  UNL1        0.0026
     16 O           5.5661   -3.1776   17.8420 O.co2   1  UNL1       -0.5446
     17 C           4.7952   -3.6356   19.0444 C.2     1  UNL1        0.0729
     18 O           4.7217   -5.0965   19.3765 O.co2   1  UNL1       -0.5446
     19 C           1.3044    2.2893   25.8295 C.2     1  UNL1        0.1987
     20 O           1.8189    3.6737   26.0910 O.2     1  UNL1       -0.2865
     21 C           0.7317    1.4773   26.9533 C.ar    1  UNL1        0.0601
     22 C           1.6165    0.5561   27.7397 C.ar    1  UNL1        0.0615
     23 CL          3.0741    0.4469   27.4023 Cl      1  UNL1       -0.0821
     24 C           1.0440   -0.2558   28.8635 C.ar    1  UNL1        0.0115
     25 C          -0.4135   -0.1465   29.2008 C.ar    1  UNL1        0.0017
     26 C          -1.2983    0.7746   28.4144 C.ar    1  UNL1        0.0115
     27 C          -0.7258    1.5866   27.2907 C.ar    1  UNL1        0.0615
     28 CL         -1.6106    2.5078   26.5042 Cl      1  UNL1       -0.0821
@<TRIPOS>UNITY_ATOM_ATTR
16 1
charge -1
@<TRIPOS>BOND
     1    16    17   ar
     2    17    18   ar
     3    17    10    1
     4    10    11   ar
     5    11    12   ar
     6    12    13   ar
     7    13     1    1
     8     1     2   ar
     9     2     3   ar
    10     3    19    1
    11    19    20    2
    12    19    21    1
    13    21    22   ar
    14    22    23    1
    15    22    24   ar
    16    24    25   ar
    17    25    26   ar
    18    26    27   ar
    19    27    28    1
    20     3     4   ar
    21     4     5   ar
    22     5     6   ar
    23     6     7   ar
    24     7     8   ar
    25     8     9   ar
    26    13    14   ar
    27    14    15   ar
    28    15    10   ar
    29     9     1   ar
    30    27    21   ar
    31     9     4   ar
@<TRIPOS>MOLECULE
*****
 28 31 0 0 0
SMALL
GASTEIGER

@<TRIPOS>ATOM
      1 N           1.4575    1.5112   22.0907 N.ar    1  UNL1       -0.3048
      2 C           1.9573    1.6258   23.5003 C.ar    1  UNL1        0.0833
      3 C           0.9630    2.4338   24.2804 C.ar    1  UNL1        0.0579
      4 C          -0.1513    2.8186   23.3529 C.ar    1  UNL1        0.0207
      5 C          -1.4047    3.6145   23.5659 C.ar    1  UNL1        0.0016
      6 C          -2.3526    3.8402   22.4255 C.ar    1  UNL1        0.0001
      7 C          -2.0470    3.2700   21.0721 C.ar    1  UNL1        0.0015
      8 C          -0.7936    2.4741   20.8592 C.ar    1  UNL1        0.0175
      9 C           0.1543    2.2484   21.9996 C.ar    1  UNL1        0.0641
     10 C           3.5075   -0.6626   18.7258 C.ar    1  UNL1        0.0141
     11 C           3.5564    0.8352   18.7911 C.ar    1  UNL1        0.0026
     12 C           2.8730    1.5598   19.9127 C.ar    1  UNL1        0.0176
     13 C           2.1408    0.7867   20.9691 C.ar    1  UNL1        0.0640
     14 C           2.0919   -0.7112   20.9038 C.ar    1  UNL1        0.0176
     15 C           2.7753   -1.4358   19.7822 C.ar    1  UNL1        0.0026
     16 O           5.2409   -2.4151   17.9051 O.co2   1  UNL1       -0.5446
     17 C           4.1909   -1.3871   17.6042 C.2     1  UNL1        0.0729
     18 O           3.8242   -1.0836   16.1817 O.co2   1  UNL1       -0.5446
     19 C           1.0651    2.7938   25.7330 C.2     1  UNL1        0.1987
     20 O           1.5348    4.1602   26.1358 O.2     1  UNL1       -0.2865
     21 C           0.6975    1.7874   26.7828 C.ar    1  UNL1        0.0601
     22 C          -0.7084    1.7247   27.3020 C.ar    1  UNL1        0.0615
     23 CL         -1.7466    2.6684   26.7715 Cl      1  UNL1       -0.0821
     24 C          -1.0760    0.7183   28.3518 C.ar    1  UNL1        0.0115
     25 C          -0.0378   -0.2254   28.8823 C.ar    1  UNL1        0.0017
     26 C           1.3681   -0.1627   28.3631 C.ar    1  UNL1        0.0115
     27 C           1.7358    0.8437   27.3133 C.ar    1  UNL1        0.0615
     28 CL          3.1416    0.9064   26.7941 Cl      1  UNL1       -0.0821
@<TRIPOS>UNITY_ATOM_ATTR
16 1
charge -1
@<TRIPOS>BOND
     1    16    17   ar
     2    17    18   ar
     3    17    10    1
     4    10    11   ar
     5    11    12   ar
     6    12    13   ar
     7    13     1    1
     8     1     2   ar
     9     2     3   ar
    10     3    19    1
    11    19    20    2
    12    19    21    1
    13    21    22   ar
    14    22    23    1
    15    22    24   ar
    16    24    25   ar
    17    25    26   ar
    18    26    27   ar
    19    27    28    1
    20     3     4   ar
    21     4     5   ar
    22     5     6   ar
    23     6     7   ar
    24     7     8   ar
    25     8     9   ar
    26    13    14   ar
    27    14    15   ar
    28    15    10   ar
    29     9     1   ar
    30    27    21   ar
    31     9     4   ar
@<TRIPOS>MOLECULE
*****
 28 31 0 0 0
SMALL
GASTEIGER

@<TRIPOS>ATOM
      1 N           2.1392    0.2874   23.6248 N.ar    1  UNL1       -0.3048
      2 C           3.1624   -0.8086   23.6667 C.ar    1  UNL1        0.0833
      3 C           3.3182   -1.3507   22.2768 C.ar    1  UNL1        0.0579
      4 C           2.3913   -0.5897   21.3758 C.ar    1  UNL1        0.0207
      5 C           2.1167   -0.6878   19.9045 C.ar    1  UNL1        0.0016
      6 C           1.1133    0.2265   19.2663 C.ar    1  UNL1        0.0001
      7 C           0.3846    1.2388   20.0994 C.ar    1  UNL1        0.0015
      8 C           0.6593    1.3370   21.5707 C.ar    1  UNL1        0.0175
      9 C           1.6626    0.4227   22.2089 C.ar    1  UNL1        0.0641
     10 C           0.7440    2.7391   27.1309 C.ar    1  UNL1        0.0141
     11 C           2.2006    2.7003   26.7750 C.ar    1  UNL1        0.0026
     12 C           2.6657    1.8831   25.6063 C.ar    1  UNL1        0.0176
     13 C           1.6742    1.1046   24.7935 C.ar    1  UNL1        0.0640
     14 C           0.2174    1.1434   25.1494 C.ar    1  UNL1        0.0176
     15 C          -0.2476    1.9607   26.3181 C.ar    1  UNL1        0.0026
     16 O          -0.4825    4.8281   28.0698 O.co2   1  UNL1       -0.5446
     17 C           0.2790    3.5564   28.2996 C.2     1  UNL1        0.0729
     18 O           0.5754    3.1019   29.6980 O.co2   1  UNL1       -0.5446
     19 C           4.2393   -2.4591   21.8608 C.2     1  UNL1        0.1987
     20 O           4.3461   -3.6993   22.6976 O.2     1  UNL1       -0.2865
     21 C           5.0535   -2.3273   20.6079 C.ar    1  UNL1        0.0601
     22 C           6.2542   -1.4285   20.5848 C.ar    1  UNL1        0.0615
     23 CL          6.6406   -0.6615   21.8147 Cl      1  UNL1       -0.0821
     24 C           7.0684   -1.2966   19.3320 C.ar    1  UNL1        0.0115
     25 C           6.6820   -2.0636   18.1022 C.ar    1  UNL1        0.0017
     26 C           5.4813   -2.9624   18.1253 C.ar    1  UNL1        0.0115
     27 C           4.6671   -3.0943   19.3781 C.ar    1  UNL1        0.0615
     28 CL          3.4664   -3.9931   19.4012 Cl      1  UNL1       -0.0821
@<TRIPOS>UNITY_ATOM_ATTR
16 1
charge -1
@<TRIPOS>BOND
     1    16    17   ar
     2    17    18   ar
     3    17    10    1
     4    10    11   ar
     5    11    12   ar
     6    12    13   ar
     7    13     1    1
     8     1     2   ar
     9     2     3   ar
    10     3    19    1
    11    19    20    2
    12    19    21    1
    13    21    22   ar
    14    22    23    1
    15    22    24   ar
    16    24    25   ar
    17    25    26   ar
    18    26    27   ar
    19    27    28    1
    20     3     4   ar
    21     4     5   ar
    22     5     6   ar
    23     6     7   ar
    24     7     8   ar
    25     8     9   ar
    26    13    14   ar
    27    14    15   ar
    28    15    10   ar
    29     9     1   ar
    30    27    21   ar
    31     9     4   ar
@<TRIPOS>MOLECULE
*****
 28 31 0 0 0
SMALL
GASTEIGER

@<TRIPOS>ATOM
      1 N           7.3121   -3.9098   25.4171 N.ar    1  UNL1       -0.3048
      2 C           6.8904   -2.6776   24.6729 C.ar    1  UNL1        0.0833
      3 C           7.1688   -2.8983   23.2156 C.ar    1  UNL1        0.0579
      4 C           7.7627   -4.2669   23.0591 C.ar    1  UNL1        0.0207
      5 C           8.2342   -5.0245   21.8535 C.ar    1  UNL1        0.0016
      6 C           8.7942   -6.4074   22.0086 C.ar    1  UNL1        0.0001
      7 C           8.8828   -7.0325   23.3692 C.ar    1  UNL1        0.0015
      8 C           8.4113   -6.2748   24.5748 C.ar    1  UNL1        0.0175
      9 C           7.8512   -4.8920   24.4198 C.ar    1  UNL1        0.0641
     10 C           7.0127   -4.5477   29.8616 C.ar    1  UNL1        0.0141
     11 C           6.6148   -5.6438   28.9181 C.ar    1  UNL1        0.0026
     12 C           6.7146   -5.4311   27.4366 C.ar    1  UNL1        0.0176
     13 C           7.2123   -4.1224   26.8986 C.ar    1  UNL1        0.0640
     14 C           7.6103   -3.0263   27.8422 C.ar    1  UNL1        0.0176
     15 C           7.5104   -3.2390   29.3237 C.ar    1  UNL1        0.0026
     16 O           6.6650   -6.1356   31.8883 O.co2   1  UNL1       -0.5446
     17 C           6.9129   -4.7604   31.3431 C.2     1  UNL1        0.0729
     18 O           7.0610   -3.5978   32.2794 O.co2   1  UNL1       -0.5446
     19 C           6.9006   -1.9219   22.1089 C.2     1  UNL1        0.1987
     20 O           7.5515   -0.5707   22.1267 O.2     1  UNL1       -0.2865
     21 C           5.9813   -2.2967   20.9844 C.ar    1  UNL1        0.0601
     22 C           6.5417   -2.5966   19.6257 C.ar    1  UNL1        0.0615
     23 CL          8.0214   -2.5215   19.3916 Cl      1  UNL1       -0.0821
     24 C           5.6225   -2.9714   18.5012 C.ar    1  UNL1        0.0115
     25 C           4.1428   -3.0464   18.7355 C.ar    1  UNL1        0.0017
     26 C           3.5824   -2.7466   20.0941 C.ar    1  UNL1        0.0115
     27 C           4.5016   -2.3718   21.2186 C.ar    1  UNL1        0.0615
     28 CL          3.9411   -2.0720   22.5773 Cl      1  UNL1       -0.0821
@<TRIPOS>UNITY_ATOM_ATTR
16 1
charge -1
@<TRIPOS>BOND
     1    16    17   ar
     2    17    18   ar
     3    17    10    1
     4    10    11   ar
     5    11    12   ar
     6    12    13   ar
     7    13     1    1
     8     1     2   ar
     9     2     3   ar
    10     3    19    1
    11    19    20    2
    12    19    21    1
    13    21    22   ar
    14    22    23    1
    15    22    24   ar
    16    24    25   ar
    17    25    26   ar
    18    26    27   ar
    19    27    28    1
    20     3     4   ar
    21     4     5   ar
    22     5     6   ar
    23     6     7   ar
    24     7     8   ar
    25     8     9   ar
    26    13    14   ar
    27    14    15   ar
    28    15    10   ar
    29     9     1   ar
    30    27    21   ar
    31     9     4   ar
@<TRIPOS>MOLECULE
*****
 28 31 0 0 0
SMALL
GASTEIGER

@<TRIPOS>ATOM
      1 N           0.3124    1.9136   21.3640 N.ar    1  UNL1       -0.3048
      2 C          -0.7221    2.9094   20.9302 C.ar    1  UNL1        0.0833
      3 C          -1.3843    3.4555   22.1603 C.ar    1  UNL1        0.0579
      4 C          -0.7592    2.7971   23.3544 C.ar    1  UNL1        0.0207
      5 C          -1.0094    2.9422   24.8262 C.ar    1  UNL1        0.0016
      6 C          -0.2109    2.1344   25.8059 C.ar    1  UNL1        0.0001
      7 C           0.8378    1.1815   25.3137 C.ar    1  UNL1        0.0015
      8 C           1.0879    1.0363   23.8419 C.ar    1  UNL1        0.0175
      9 C           0.2894    1.8441   22.8623 C.ar    1  UNL1        0.0641
     10 C           3.0109   -0.4507   18.6477 C.ar    1  UNL1        0.0141
     11 C           2.3448   -1.1215   19.8123 C.ar    1  UNL1        0.0026
     12 C           1.4453   -0.3334   20.7177 C.ar    1  UNL1        0.0176
     13 C           1.2119    1.1255   20.4586 C.ar    1  UNL1        0.0640
     14 C           1.8780    1.7963   19.2939 C.ar    1  UNL1        0.0176
     15 C           2.7775    1.0082   18.3885 C.ar    1  UNL1        0.0026
     16 O           3.8973   -0.9830   16.2643 O.co2   1  UNL1       -0.5446
     17 C           3.9104   -1.2388   17.7422 C.2     1  UNL1        0.0729
     18 O           4.8229   -2.2826   18.3148 O.co2   1  UNL1       -0.5446
     19 C          -2.4795    4.4800   22.1911 C.2     1  UNL1        0.1987
     20 O          -2.7323    5.3438   20.9912 O.2     1  UNL1       -0.2865
     21 C          -3.3219    4.6407   23.4218 C.ar    1  UNL1        0.0601
     22 C          -4.5264    3.7702   23.6252 C.ar    1  UNL1        0.0615
     23 CL         -4.8885    2.7390   22.5978 Cl      1  UNL1       -0.0821
     24 C          -5.3688    3.9309   24.8558 C.ar    1  UNL1        0.0115
     25 C          -5.0067    4.9621   25.8831 C.ar    1  UNL1        0.0017
     26 C          -3.8022    5.8326   25.6798 C.ar    1  UNL1        0.0115
     27 C          -2.9598    5.6720   24.4491 C.ar    1  UNL1        0.0615
     28 CL         -1.7553    6.5425   24.2458 Cl      1  UNL1       -0.0821
@<TRIPOS>UNITY_ATOM_ATTR
16 1
charge -1
@<TRIPOS>BOND
     1    16    17   ar
     2    17    18   ar
     3    17    10    1
     4    10    11   ar
     5    11    12   ar
     6    12    13   ar
     7    13     1    1
     8     1     2   ar
     9     2     3   ar
    10     3    19    1
    11    19    20    2
    12    19    21    1
    13    21    22   ar
    14    22    23    1
    15    22    24   ar
    16    24    25   ar
    17    25    26   ar
    18    26    27   ar
    19    27    28    1
    20     3     4   ar
    21     4     5   ar
    22     5     6   ar
    23     6     7   ar
    24     7     8   ar
    25     8     9   ar
    26    13    14   ar
    27    14    15   ar
    28    15    10   ar
    29     9     1   ar
    30    27    21   ar
    31     9     4   ar
@<TRIPOS>MOLECULE
*****
 28 31 0 0 0
SMALL
GASTEIGER

@<TRIPOS>ATOM
      1 N          -2.0728    3.2419   24.3324 N.ar    1  UNL1       -0.3048
      2 C          -1.1797    3.3121   23.1293 C.ar    1  UNL1        0.0833
      3 C           0.1540    2.7396   23.5081 C.ar    1  UNL1        0.0579
      4 C           0.0852    2.3156   24.9453 C.ar    1  UNL1        0.0207
      5 C           1.0978    1.6869   25.8559 C.ar    1  UNL1        0.0016
      6 C           0.7343    1.3686   27.2759 C.ar    1  UNL1        0.0001
      7 C          -0.6420    1.6791   27.7853 C.ar    1  UNL1        0.0015
      8 C          -1.6547    2.3077   26.8748 C.ar    1  UNL1        0.0175
      9 C          -1.2911    2.6260   25.4548 C.ar    1  UNL1        0.0641
     10 C          -6.3470    4.6344   24.5385 C.ar    1  UNL1        0.0141
     11 C          -5.4096    4.9198   25.6742 C.ar    1  UNL1        0.0026
     12 C          -3.9849    4.4557   25.6054 C.ar    1  UNL1        0.0176
     13 C          -3.4975    3.7061   24.4011 C.ar    1  UNL1        0.0640
     14 C          -4.4350    3.4205   23.2654 C.ar    1  UNL1        0.0176
     15 C          -5.8597    3.8847   23.3341 C.ar    1  UNL1        0.0026
     16 O          -8.1293    6.3033   25.4262 O.co2   1  UNL1       -0.5446
     17 C          -7.7718    5.0985   24.6072 C.2     1  UNL1        0.0729
     18 O          -8.8389    4.3579   23.8570 O.co2   1  UNL1       -0.5446
     19 C           1.3471    2.6133   22.6078 C.2     1  UNL1        0.1987
     20 O           2.3192    3.7492   22.4871 O.2     1  UNL1       -0.2865
     21 C           1.5681    1.3510   21.8282 C.ar    1  UNL1        0.0601
     22 C           0.7871    1.0985   20.5727 C.ar    1  UNL1        0.0615
     23 CL         -0.2148    2.1083   20.0968 Cl      1  UNL1       -0.0821
     24 C           1.0081   -0.1638   19.7930 C.ar    1  UNL1        0.0115
     25 C           2.0101   -1.1735   20.2689 C.ar    1  UNL1        0.0017
     26 C           2.7910   -0.9210   21.5244 C.ar    1  UNL1        0.0115
     27 C           2.5701    0.3412   22.3041 C.ar    1  UNL1        0.0615
     28 CL          3.3511    0.5938   23.5596 Cl      1  UNL1       -0.0821
@<TRIPOS>UNITY_ATOM_ATTR
16 1
charge -1
@<TRIPOS>BOND
     1    16    17   ar
     2    17    18   ar
     3    17    10    1
     4    10    11   ar
     5    11    12   ar
     6    12    13   ar
     7    13     1    1
     8     1     2   ar
     9     2     3   ar
    10     3    19    1
    11    19    20    2
    12    19    21    1
    13    21    22   ar
    14    22    23    1
    15    22    24   ar
    16    24    25   ar
    17    25    26   ar
    18    26    27   ar
    19    27    28    1
    20     3     4   ar
    21     4     5   ar
    22     5     6   ar
    23     6     7   ar
    24     7     8   ar
    25     8     9   ar
    26    13    14   ar
    27    14    15   ar
    28    15    10   ar
    29     9     1   ar
    30    27    21   ar
    31     9     4   ar
@<TRIPOS>MOLECULE
*****
 28 31 0 0 0
SMALL
GASTEIGER

@<TRIPOS>ATOM
      1 N           4.3496   -1.4058   24.8853 N.ar    1  UNL1       -0.3048
      2 C           3.4247   -0.3129   25.3327 C.ar    1  UNL1        0.0833
      3 C           3.7385    0.0024   26.7652 C.ar    1  UNL1        0.0579
      4 C           4.8574   -0.8956   27.2032 C.ar    1  UNL1        0.0207
      5 C           5.5811   -1.0332   28.5098 C.ar    1  UNL1        0.0016
      6 C           6.6825   -2.0411   28.6545 C.ar    1  UNL1        0.0001
      7 C           7.0602   -2.9114   27.4927 C.ar    1  UNL1        0.0015
      8 C           6.3365   -2.7738   26.1861 C.ar    1  UNL1        0.0175
      9 C           5.2351   -1.7659   26.0413 C.ar    1  UNL1        0.0641
     10 C           4.4505   -3.2760   20.7935 C.ar    1  UNL1        0.0141
     11 C           3.7840   -1.9473   20.9947 C.ar    1  UNL1        0.0026
     12 C           3.7504   -1.3239   22.3586 C.ar    1  UNL1        0.0176
     13 C           4.3832   -2.0291   23.5214 C.ar    1  UNL1        0.0640
     14 C           5.0497   -3.3579   23.3202 C.ar    1  UNL1        0.0176
     15 C           5.0833   -3.9813   21.9563 C.ar    1  UNL1        0.0026
     16 O           4.3691   -5.3876   19.2823 O.co2   1  UNL1       -0.5446
     17 C           4.4840   -3.8993   19.4296 C.2     1  UNL1        0.0729
     18 O           4.6325   -3.0344   18.2131 O.co2   1  UNL1       -0.5446
     19 C           3.0537    1.0345   27.6113 C.2     1  UNL1        0.1987
     20 O           3.8399    2.1756   28.1854 O.2     1  UNL1       -0.2865
     21 C           1.5826    0.9254   27.8833 C.ar    1  UNL1        0.0601
     22 C           0.6031    1.6593   27.0161 C.ar    1  UNL1        0.0615
     23 CL          1.0948    2.5023   25.8769 Cl      1  UNL1       -0.0821
     24 C          -0.8680    1.5503   27.2880 C.ar    1  UNL1        0.0115
     25 C          -1.3596    0.7074   28.4272 C.ar    1  UNL1        0.0017
     26 C          -0.3801   -0.0265   29.2944 C.ar    1  UNL1        0.0115
     27 C           1.0909    0.0825   29.0225 C.ar    1  UNL1        0.0615
     28 CL          2.0704   -0.6514   29.8897 Cl      1  UNL1       -0.0821
@<TRIPOS>UNITY_ATOM_ATTR
16 1
charge -1
@<TRIPOS>BOND
     1    16    17   ar
     2    17    18   ar
     3    17    10    1
     4    10    11   ar
     5    11    12   ar
     6    12    13   ar
     7    13     1    1
     8     1     2   ar
     9     2     3   ar
    10     3    19    1
    11    19    20    2
    12    19    21    1
    13    21    22   ar
    14    22    23    1
    15    22    24   ar
    16    24    25   ar
    17    25    26   ar
    18    26    27   ar
    19    27    28    1
    20     3     4   ar
    21     4     5   ar
    22     5     6   ar
    23     6     7   ar
    24     7     8   ar
    25     8     9   ar
    26    13    14   ar
    27    14    15   ar
    28    15    10   ar
    29     9     1   ar
    30    27    21   ar
    31     9     4   ar
