@<TRIPOS>MOLECULE
*****
 29 33 0 0 0
SMALL
GASTEIGER

@<TRIPOS>ATOM
      1 CL         -9.0548  -14.6231   27.8658 Cl      1  UNL1       -0.0822
      2 C          -7.9396  -15.0990   26.9827 C.ar    1  UNL1        0.0578
      3 C          -6.5229  -14.7142   27.2905 C.ar    1  UNL1        0.0129
      4 C          -5.4077  -15.1901   26.4075 C.ar    1  UNL1        0.0200
      5 C          -5.7092  -16.0508   25.2165 C.ar    1  UNL1        0.0827
      6 N          -4.5940  -16.5267   24.3335 N.ar    1  UNL1       -0.2306
      7 C          -4.8955  -17.3874   23.1426 C.ar    1  UNL1        0.1346
      8 C          -6.3123  -17.7722   22.8347 C.ar    1  UNL1        0.0687
      9 C          -7.4275  -17.2963   23.7178 C.ar    1  UNL1        0.0072
     10 C          -7.1259  -16.4356   24.9087 C.ar    1  UNL1        0.0187
     11 C          -8.2411  -15.9597   25.7918 C.ar    1  UNL1        0.0129
     12 N          -3.7803  -17.8633   22.2595 N.pl3   1  UNL1       -0.2932
     13 C          -3.5635  -19.3329   22.0513 C.3     1  UNL1        0.0922
     14 C          -2.4483  -19.8088   21.1682 C.3     1  UNL1        0.0215
     15 C          -1.5499  -18.8150   20.4933 C.3     1  UNL1        0.0035
     16 C          -1.7667  -17.3455   20.7015 C.3     1  UNL1        0.0215
     17 C          -2.8819  -16.8696   21.5846 C.3     1  UNL1        0.0922
     18 C          -6.6138  -18.6328   21.6438 C.ar    1  UNL1        0.1833
     19 N          -6.8260  -20.1177   21.6601 N.ar    1  UNL1       -0.1083
     20 N          -7.0994  -20.5623   20.2538 N.ar    1  UNL1       -0.0229
     21 N          -7.0562  -19.3522   19.3684 N.ar    1  UNL1       -0.0464
     22 N          -6.7560  -18.1598   20.2275 N.ar    1  UNL1       -0.2387
     23 H          -6.6679  -17.2299   19.9163 H       1  UNL1        0.1923
     24 C          -8.8442  -17.6810   23.4099 C.ar    1  UNL1        0.0002
     25 C          -9.6781  -16.8160   22.5119 C.ar    1  UNL1        0.0000
     26 C         -11.0949  -17.2009   22.2041 C.ar    1  UNL1        0.0000
     27 C         -11.6778  -18.4506   22.7943 C.ar    1  UNL1        0.0000
     28 C         -10.8439  -19.3156   23.6923 C.ar    1  UNL1        0.0000
     29 C          -9.4271  -18.9308   24.0001 C.ar    1  UNL1        0.0000
@<TRIPOS>BOND
     1     1     2    1
     2     2     3   ar
     3     3     4   ar
     4     4     5   ar
     5     5     6   ar
     6     6     7   ar
     7     7    12    1
     8    12    13    1
     9    13    14    1
    10    14    15    1
    11    15    16    1
    12    16    17    1
    13     7     8   ar
    14     8    18    1
    15    18    19   ar
    16    19    20   ar
    17    20    21   ar
    18    21    22   ar
    19     8     9   ar
    20     9    24    1
    21    24    25   ar
    22    25    26   ar
    23    26    27   ar
    24    27    28   ar
    25    28    29   ar
    26     9    10   ar
    27    10    11   ar
    28    11     2   ar
    29    10     5   ar
    30    17    12    1
    31    22    18   ar
    32    29    24   ar
    33    22    23    1
@<TRIPOS>MOLECULE
*****
 29 33 0 0 0
SMALL
GASTEIGER

@<TRIPOS>ATOM
      1 CL         -8.7235  -14.5104   27.7921 Cl      1  UNL1       -0.0822
      2 C          -7.8748  -15.2077   26.7706 C.ar    1  UNL1        0.0578
      3 C          -6.3818  -15.2159   26.9153 C.ar    1  UNL1        0.0129
      4 C          -5.5331  -15.9132   25.8938 C.ar    1  UNL1        0.0200
      5 C          -6.1773  -16.6022   24.7275 C.ar    1  UNL1        0.0827
      6 N          -5.3286  -17.2994   23.7060 N.ar    1  UNL1       -0.2306
      7 C          -5.9729  -17.9884   22.5397 C.ar    1  UNL1        0.1346
      8 C          -7.4659  -17.9801   22.3949 C.ar    1  UNL1        0.0687
      9 C          -8.3146  -17.2829   23.4165 C.ar    1  UNL1        0.0072
     10 C          -7.6703  -16.5939   24.5828 C.ar    1  UNL1        0.0187
     11 C          -8.5190  -15.8966   25.6043 C.ar    1  UNL1        0.0129
     12 N          -5.1241  -18.6856   21.5182 N.pl3   1  UNL1       -0.2932
     13 C          -4.0261  -17.9394   20.8198 C.3     1  UNL1        0.0922
     14 C          -3.1774  -18.6367   19.7983 C.3     1  UNL1        0.0215
     15 C          -3.4267  -20.0802   19.4751 C.3     1  UNL1        0.0035
     16 C          -4.5247  -20.8263   20.1734 C.3     1  UNL1        0.0215
     17 C          -5.3734  -20.1290   21.1950 C.3     1  UNL1        0.0922
     18 C          -8.1101  -18.6691   21.2287 C.ar    1  UNL1        0.1833
     19 N          -9.2784  -19.6076   21.2944 N.ar    1  UNL1       -0.1083
     20 N          -9.5896  -20.0591   19.8983 N.ar    1  UNL1       -0.0229
     21 N          -8.6135  -19.3996   18.9696 N.ar    1  UNL1       -0.0464
     22 N          -7.6992  -18.5406   19.7918 N.ar    1  UNL1       -0.2387
     23 H          -6.9592  -17.9892   19.4487 H       1  UNL1        0.1923
     24 C          -9.8075  -17.2746   23.2717 C.ar    1  UNL1        0.0002
     25 C         -10.6379  -18.2847   24.0066 C.ar    1  UNL1        0.0000
     26 C         -12.1310  -18.2764   23.8619 C.ar    1  UNL1        0.0000
     27 C         -12.7935  -17.2580   22.9822 C.ar    1  UNL1        0.0000
     28 C         -11.9631  -16.2479   22.2473 C.ar    1  UNL1        0.0000
     29 C         -10.4702  -16.2562   22.3920 C.ar    1  UNL1        0.0000
@<TRIPOS>BOND
     1     1     2    1
     2     2     3   ar
     3     3     4   ar
     4     4     5   ar
     5     5     6   ar
     6     6     7   ar
     7     7    12    1
     8    12    13    1
     9    13    14    1
    10    14    15    1
    11    15    16    1
    12    16    17    1
    13     7     8   ar
    14     8    18    1
    15    18    19   ar
    16    19    20   ar
    17    20    21   ar
    18    21    22   ar
    19     8     9   ar
    20     9    24    1
    21    24    25   ar
    22    25    26   ar
    23    26    27   ar
    24    27    28   ar
    25    28    29   ar
    26     9    10   ar
    27    10    11   ar
    28    11     2   ar
    29    10     5   ar
    30    17    12    1
    31    22    18   ar
    32    29    24   ar
    33    22    23    1
@<TRIPOS>MOLECULE
*****
 29 33 0 0 0
SMALL
GASTEIGER

@<TRIPOS>ATOM
      1 CL          1.5356   -0.2629   28.5342 Cl      1  UNL1       -0.0822
      2 C           1.6513    0.4119   29.8689 C.ar    1  UNL1        0.0578
      3 C           0.6551    1.4597   30.2684 C.ar    1  UNL1        0.0129
      4 C           0.7708    2.1344   31.6031 C.ar    1  UNL1        0.0200
      5 C           1.8827    1.7614   32.5382 C.ar    1  UNL1        0.0827
      6 N           1.9984    2.4362   33.8729 N.ar    1  UNL1       -0.2306
      7 C           3.1102    2.0631   34.8080 C.ar    1  UNL1        0.1346
      8 C           4.1065    1.0153   34.4085 C.ar    1  UNL1        0.0687
      9 C           3.9908    0.3405   33.0738 C.ar    1  UNL1        0.0072
     10 C           2.8789    0.7136   32.1387 C.ar    1  UNL1        0.0187
     11 C           2.7632    0.0388   30.8040 C.ar    1  UNL1        0.0129
     12 N           3.2259    2.7379   36.1427 N.pl3   1  UNL1       -0.2932
     13 C           3.9595    4.0408   36.2633 C.3     1  UNL1        0.0922
     14 C           4.0752    4.7155   37.5979 C.3     1  UNL1        0.0215
     15 C           3.4573    4.0874   38.8120 C.3     1  UNL1        0.0035
     16 C           2.7238    2.7846   38.6913 C.3     1  UNL1        0.0215
     17 C           2.6081    2.1099   37.3566 C.3     1  UNL1        0.0922
     18 C           5.2184    0.6422   35.3436 C.ar    1  UNL1        0.1833
     19 N           5.1945   -0.4800   36.3387 N.ar    1  UNL1       -0.1083
     20 N           6.5107   -0.4899   37.0580 N.ar    1  UNL1       -0.0229
     21 N           7.3482    0.6262   36.5074 N.ar    1  UNL1       -0.0464
     22 N           6.5494    1.3259   35.4479 N.ar    1  UNL1       -0.2387
     23 H           6.8467    2.0982   34.9146 H       1  UNL1        0.1923
     24 C           4.9870   -0.7073   32.6743 C.ar    1  UNL1        0.0002
     25 C           6.2401   -0.3134   31.9501 C.ar    1  UNL1        0.0000
     26 C           7.2364   -1.3613   31.5506 C.ar    1  UNL1        0.0000
     27 C           6.9794   -2.8030   31.8753 C.ar    1  UNL1        0.0000
     28 C           5.7263   -3.1969   32.5995 C.ar    1  UNL1        0.0000
     29 C           4.7301   -2.1491   32.9990 C.ar    1  UNL1        0.0000
@<TRIPOS>BOND
     1     1     2    1
     2     2     3   ar
     3     3     4   ar
     4     4     5   ar
     5     5     6   ar
     6     6     7   ar
     7     7    12    1
     8    12    13    1
     9    13    14    1
    10    14    15    1
    11    15    16    1
    12    16    17    1
    13     7     8   ar
    14     8    18    1
    15    18    19   ar
    16    19    20   ar
    17    20    21   ar
    18    21    22   ar
    19     8     9   ar
    20     9    24    1
    21    24    25   ar
    22    25    26   ar
    23    26    27   ar
    24    27    28   ar
    25    28    29   ar
    26     9    10   ar
    27    10    11   ar
    28    11     2   ar
    29    10     5   ar
    30    17    12    1
    31    22    18   ar
    32    29    24   ar
    33    22    23    1
@<TRIPOS>MOLECULE
*****
 29 33 0 0 0
SMALL
GASTEIGER

@<TRIPOS>ATOM
      1 CL        -13.5099  -17.5799   22.8082 Cl      1  UNL1       -0.0822
      2 C         -12.2034  -17.9707   22.1834 C.ar    1  UNL1        0.0578
      3 C         -12.1867  -18.6845   20.8643 C.ar    1  UNL1        0.0129
      4 C         -10.8803  -19.0754   20.2394 C.ar    1  UNL1        0.0200
      5 C          -9.5905  -18.7525   20.9338 C.ar    1  UNL1        0.0827
      6 N          -8.2840  -19.1434   20.3090 N.ar    1  UNL1       -0.2306
      7 C          -6.9943  -18.8205   21.0033 C.ar    1  UNL1        0.1346
      8 C          -7.0109  -18.1067   22.3226 C.ar    1  UNL1        0.0687
      9 C          -8.3173  -17.7158   22.9474 C.ar    1  UNL1        0.0072
     10 C          -9.6072  -18.0388   22.2530 C.ar    1  UNL1        0.0187
     11 C         -10.9136  -17.6479   22.8778 C.ar    1  UNL1        0.0129
     12 N          -5.6878  -19.2114   20.3785 N.pl3   1  UNL1       -0.2932
     13 C          -4.8004  -18.1621   19.7772 C.3     1  UNL1        0.0922
     14 C          -3.4939  -18.5530   19.1524 C.3     1  UNL1        0.0215
     15 C          -3.0749  -19.9931   19.1289 C.3     1  UNL1        0.0035
     16 C          -3.9623  -21.0423   19.7303 C.3     1  UNL1        0.0215
     17 C          -5.2688  -20.6514   20.3551 C.3     1  UNL1        0.0922
     18 C          -5.7211  -17.7838   23.0169 C.ar    1  UNL1        0.1833
     19 N          -4.6627  -18.7698   23.4140 N.ar    1  UNL1       -0.1083
     20 N          -3.5507  -18.0136   24.0786 N.ar    1  UNL1       -0.0229
     21 N          -3.9219  -16.5603   24.0923 N.ar    1  UNL1       -0.0464
     22 N          -5.2633  -16.4183   23.4362 N.ar    1  UNL1       -0.2387
     23 H          -5.7566  -15.5767   23.3039 H       1  UNL1        0.1923
     24 C          -8.3340  -17.0021   24.2666 C.ar    1  UNL1        0.0002
     25 C          -7.9761  -15.5471   24.3367 C.ar    1  UNL1        0.0000
     26 C          -7.9928  -14.8334   25.6559 C.ar    1  UNL1        0.0000
     27 C          -8.3674  -15.5746   26.9050 C.ar    1  UNL1        0.0000
     28 C          -8.7253  -17.0296   26.8349 C.ar    1  UNL1        0.0000
     29 C          -8.7086  -17.7433   25.5157 C.ar    1  UNL1        0.0000
@<TRIPOS>BOND
     1     1     2    1
     2     2     3   ar
     3     3     4   ar
     4     4     5   ar
     5     5     6   ar
     6     6     7   ar
     7     7    12    1
     8    12    13    1
     9    13    14    1
    10    14    15    1
    11    15    16    1
    12    16    17    1
    13     7     8   ar
    14     8    18    1
    15    18    19   ar
    16    19    20   ar
    17    20    21   ar
    18    21    22   ar
    19     8     9   ar
    20     9    24    1
    21    24    25   ar
    22    25    26   ar
    23    26    27   ar
    24    27    28   ar
    25    28    29   ar
    26     9    10   ar
    27    10    11   ar
    28    11     2   ar
    29    10     5   ar
    30    17    12    1
    31    22    18   ar
    32    29    24   ar
    33    22    23    1
@<TRIPOS>MOLECULE
*****
 29 33 0 0 0
SMALL
GASTEIGER

@<TRIPOS>ATOM
      1 CL          7.6143   -5.3092   24.6530 Cl      1  UNL1       -0.0822
      2 C           6.7031   -4.1193   24.7156 C.ar    1  UNL1        0.0578
      3 C           6.5107   -3.3893   26.0117 C.ar    1  UNL1        0.0129
      4 C           5.5995   -2.1994   26.0743 C.ar    1  UNL1        0.0200
      5 C           4.8808   -1.7395   24.8407 C.ar    1  UNL1        0.0827
      6 N           3.9697   -0.5496   24.9032 N.ar    1  UNL1       -0.2306
      7 C           3.2509   -0.0896   23.6696 C.ar    1  UNL1        0.1346
      8 C           3.4433   -0.8196   22.3734 C.ar    1  UNL1        0.0687
      9 C           4.3545   -2.0095   22.3108 C.ar    1  UNL1        0.0072
     10 C           5.0732   -2.4694   23.5445 C.ar    1  UNL1        0.0187
     11 C           5.9844   -3.6593   23.4820 C.ar    1  UNL1        0.0129
     12 N           2.3398    1.1003   23.7322 N.pl3   1  UNL1       -0.2932
     13 C           2.8314    2.4456   23.2867 C.3     1  UNL1        0.0922
     14 C           1.9203    3.6355   23.3492 C.3     1  UNL1        0.0215
     15 C           0.5174    3.4801   23.8573 C.3     1  UNL1        0.0035
     16 C           0.0259    2.1348   24.3028 C.3     1  UNL1        0.0215
     17 C           0.9370    0.9449   24.2402 C.3     1  UNL1        0.0922
     18 C           2.7246   -0.3597   21.1398 C.ar    1  UNL1        0.1833
     19 N           1.3665   -0.8112   20.6906 N.ar    1  UNL1       -0.1083
     20 N           1.0403   -0.0980   19.4119 N.ar    1  UNL1       -0.0229
     21 N           2.1968    0.7943   19.0709 N.ar    1  UNL1       -0.0464
     22 N           3.2377    0.6326   20.1387 N.ar    1  UNL1       -0.2387
     23 H           4.1054    1.0963   20.1761 H       1  UNL1        0.1923
     24 C           4.5469   -2.7395   21.0147 C.ar    1  UNL1        0.0002
     25 C           5.5502   -2.2432   20.0162 C.ar    1  UNL1        0.0000
     26 C           5.7426   -2.9732   18.7199 C.ar    1  UNL1        0.0000
     27 C           4.9317   -4.1995   18.4223 C.ar    1  UNL1        0.0000
     28 C           3.9284   -4.6958   19.4208 C.ar    1  UNL1        0.0000
     29 C           3.7360   -3.9658   20.7169 C.ar    1  UNL1        0.0000
@<TRIPOS>BOND
     1     1     2    1
     2     2     3   ar
     3     3     4   ar
     4     4     5   ar
     5     5     6   ar
     6     6     7   ar
     7     7    12    1
     8    12    13    1
     9    13    14    1
    10    14    15    1
    11    15    16    1
    12    16    17    1
    13     7     8   ar
    14     8    18    1
    15    18    19   ar
    16    19    20   ar
    17    20    21   ar
    18    21    22   ar
    19     8     9   ar
    20     9    24    1
    21    24    25   ar
    22    25    26   ar
    23    26    27   ar
    24    27    28   ar
    25    28    29   ar
    26     9    10   ar
    27    10    11   ar
    28    11     2   ar
    29    10     5   ar
    30    17    12    1
    31    22    18   ar
    32    29    24   ar
    33    22    23    1
@<TRIPOS>MOLECULE
*****
 29 33 0 0 0
SMALL
GASTEIGER

@<TRIPOS>ATOM
      1 CL         -5.0824    4.7444   27.2114 Cl      1  UNL1       -0.0822
      2 C          -4.1268    4.3727   26.1166 C.ar    1  UNL1        0.0578
      3 C          -4.4492    4.7138   24.6919 C.ar    1  UNL1        0.0129
      4 C          -3.4936    4.3421   23.5971 C.ar    1  UNL1        0.0200
      5 C          -2.2156    3.6294   23.9269 C.ar    1  UNL1        0.0827
      6 N          -1.2600    3.2578   22.8320 N.ar    1  UNL1       -0.2306
      7 C           0.0179    2.5450   23.1619 C.ar    1  UNL1        0.1346
      8 C           0.3403    2.2039   24.5866 C.ar    1  UNL1        0.0687
      9 C          -0.6153    2.5756   25.6814 C.ar    1  UNL1        0.0072
     10 C          -1.8933    3.2883   25.3516 C.ar    1  UNL1        0.0187
     11 C          -2.8489    3.6600   26.4464 C.ar    1  UNL1        0.0129
     12 N           0.9736    2.1734   22.0670 N.pl3   1  UNL1       -0.2932
     13 C           2.0833    3.1097   21.6903 C.3     1  UNL1        0.0922
     14 C           3.0390    2.7380   20.5955 C.3     1  UNL1        0.0215
     15 C           2.8848    1.4301   19.8773 C.3     1  UNL1        0.0035
     16 C           1.7751    0.4939   20.2541 C.3     1  UNL1        0.0215
     17 C           0.8194    0.8655   21.3489 C.3     1  UNL1        0.0922
     18 C           1.6183    1.4912   24.9164 C.ar    1  UNL1        0.1833
     19 N           2.9016    2.1366   25.3485 N.ar    1  UNL1       -0.1083
     20 N           3.9138    1.0522   25.5712 N.ar    1  UNL1       -0.0229
     21 N           3.2560   -0.2634   25.2768 N.ar    1  UNL1       -0.0464
     22 N           1.8373    0.0080   24.8721 N.ar    1  UNL1       -0.2387
     23 H           1.1676   -0.6686   24.6214 H       1  UNL1        0.1923
     24 C          -0.2929    2.2345   27.1061 C.ar    1  UNL1        0.0002
     25 C           0.4533    3.2149   27.9616 C.ar    1  UNL1        0.0000
     26 C           0.7756    2.8738   29.3864 C.ar    1  UNL1        0.0000
     27 C           0.3517    1.5523   29.9555 C.ar    1  UNL1        0.0000
     28 C          -0.3945    0.5719   29.1000 C.ar    1  UNL1        0.0000
     29 C          -0.7168    0.9130   27.6753 C.ar    1  UNL1        0.0000
@<TRIPOS>BOND
     1     1     2    1
     2     2     3   ar
     3     3     4   ar
     4     4     5   ar
     5     5     6   ar
     6     6     7   ar
     7     7    12    1
     8    12    13    1
     9    13    14    1
    10    14    15    1
    11    15    16    1
    12    16    17    1
    13     7     8   ar
    14     8    18    1
    15    18    19   ar
    16    19    20   ar
    17    20    21   ar
    18    21    22   ar
    19     8     9   ar
    20     9    24    1
    21    24    25   ar
    22    25    26   ar
    23    26    27   ar
    24    27    28   ar
    25    28    29   ar
    26     9    10   ar
    27    10    11   ar
    28    11     2   ar
    29    10     5   ar
    30    17    12    1
    31    22    18   ar
    32    29    24   ar
    33    22    23    1
@<TRIPOS>MOLECULE
*****
 29 33 0 0 0
SMALL
GASTEIGER

@<TRIPOS>ATOM
      1 CL          0.2212    0.5278   20.3031 Cl      1  UNL1       -0.0822
      2 C           1.2150    0.3130   21.4059 C.ar    1  UNL1        0.0578
      3 C           1.1122    1.1082   22.6735 C.ar    1  UNL1        0.0129
      4 C           2.1061    0.8934   23.7763 C.ar    1  UNL1        0.0200
      5 C           3.2028   -0.1165   23.6114 C.ar    1  UNL1        0.0827
      6 N           4.1966   -0.3313   24.7142 N.ar    1  UNL1       -0.2306
      7 C           5.2933   -1.3412   24.5492 C.ar    1  UNL1        0.1346
      8 C           5.3962   -2.1365   23.2815 C.ar    1  UNL1        0.0687
      9 C           4.4023   -1.9217   22.1787 C.ar    1  UNL1        0.0072
     10 C           3.3056   -0.9117   22.3437 C.ar    1  UNL1        0.0187
     11 C           2.3117   -0.6969   21.2409 C.ar    1  UNL1        0.0129
     12 N           6.2872   -1.5560   25.6520 N.pl3   1  UNL1       -0.2932
     13 C           5.9995   -2.5502   26.7379 C.3     1  UNL1        0.0922
     14 C           6.9933   -2.7649   27.8406 C.3     1  UNL1        0.0215
     15 C           8.2749   -1.9856   27.8576 C.3     1  UNL1        0.0035
     16 C           8.5626   -0.9915   26.7717 C.3     1  UNL1        0.0215
     17 C           7.5687   -0.7767   25.6690 C.3     1  UNL1        0.0922
     18 C           6.4928   -3.1464   23.1166 C.ar    1  UNL1        0.1833
     19 N           6.3880   -4.6159   23.3988 N.ar    1  UNL1       -0.1083
     20 N           7.7173   -5.2419   23.0972 N.ar    1  UNL1       -0.0229
     21 N           8.6437   -4.1593   22.6284 N.ar    1  UNL1       -0.0464
     22 N           7.8870   -2.8642   22.6405 N.ar    1  UNL1       -0.2387
     23 H           8.2428   -1.9836   22.3813 H       1  UNL1        0.1923
     24 C           4.5051   -2.7169   20.9110 C.ar    1  UNL1        0.0002
     25 C           5.2702   -2.1699   19.7425 C.ar    1  UNL1        0.0000
     26 C           5.3730   -2.9651   18.4748 C.ar    1  UNL1        0.0000
     27 C           4.7107   -4.3073   18.3756 C.ar    1  UNL1        0.0000
     28 C           3.9456   -4.8543   19.5441 C.ar    1  UNL1        0.0000
     29 C           3.8428   -4.0591   20.8118 C.ar    1  UNL1        0.0000
@<TRIPOS>BOND
     1     1     2    1
     2     2     3   ar
     3     3     4   ar
     4     4     5   ar
     5     5     6   ar
     6     6     7   ar
     7     7    12    1
     8    12    13    1
     9    13    14    1
    10    14    15    1
    11    15    16    1
    12    16    17    1
    13     7     8   ar
    14     8    18    1
    15    18    19   ar
    16    19    20   ar
    17    20    21   ar
    18    21    22   ar
    19     8     9   ar
    20     9    24    1
    21    24    25   ar
    22    25    26   ar
    23    26    27   ar
    24    27    28   ar
    25    28    29   ar
    26     9    10   ar
    27    10    11   ar
    28    11     2   ar
    29    10     5   ar
    30    17    12    1
    31    22    18   ar
    32    29    24   ar
    33    22    23    1
@<TRIPOS>MOLECULE
*****
 29 33 0 0 0
SMALL
GASTEIGER

@<TRIPOS>ATOM
      1 CL          2.1958   -0.1320   18.2387 Cl      1  UNL1       -0.0822
      2 C           1.8158    0.2762   19.6312 C.ar    1  UNL1        0.0578
      3 C           0.6151    1.1465   19.8564 C.ar    1  UNL1        0.0129
      4 C           0.2352    1.5546   21.2489 C.ar    1  UNL1        0.0200
      5 C           1.0560    1.0925   22.4162 C.ar    1  UNL1        0.0827
      6 N           0.6760    1.5007   23.8087 N.ar    1  UNL1       -0.2306
      7 C           1.4968    1.0386   24.9760 C.ar    1  UNL1        0.1346
      8 C           2.6976    0.1682   24.7509 C.ar    1  UNL1        0.0687
      9 C           3.0776   -0.2400   23.3584 C.ar    1  UNL1        0.0072
     10 C           2.2567    0.2222   22.1910 C.ar    1  UNL1        0.0187
     11 C           2.6366   -0.1860   20.7985 C.ar    1  UNL1        0.0129
     12 N           1.1169    1.4467   26.3685 N.pl3   1  UNL1       -0.2932
     13 C           1.7876    2.6226   27.0147 C.3     1  UNL1        0.0922
     14 C           1.4077    3.0308   28.4072 C.3     1  UNL1        0.0215
     15 C           0.3570    2.2631   29.1535 C.3     1  UNL1        0.0035
     16 C          -0.3136    1.0873   28.5073 C.3     1  UNL1        0.0215
     17 C           0.0663    0.6791   27.1148 C.3     1  UNL1        0.0922
     18 C           3.5184   -0.2939   25.9182 C.ar    1  UNL1        0.1833
     19 N           4.6279    0.4730   26.5746 N.ar    1  UNL1       -0.1083
     20 N           5.1691   -0.3632   27.6962 N.ar    1  UNL1       -0.0229
     21 N           4.3940   -1.6470   27.7329 N.ar    1  UNL1       -0.0464
     22 N           3.3739   -1.6041   26.6341 N.ar    1  UNL1       -0.2387
     23 H           2.7236   -2.3117   26.4202 H       1  UNL1        0.1923
     24 C           4.2783   -1.1103   23.1332 C.ar    1  UNL1        0.0002
     25 C           5.6279   -0.4882   22.9290 C.ar    1  UNL1        0.0000
     26 C           6.8286   -1.3586   22.7038 C.ar    1  UNL1        0.0000
     27 C           6.6798   -2.8510   22.6828 C.ar    1  UNL1        0.0000
     28 C           5.3303   -3.4731   22.8870 C.ar    1  UNL1        0.0000
     29 C           4.1295   -2.6028   23.1122 C.ar    1  UNL1        0.0000
@<TRIPOS>BOND
     1     1     2    1
     2     2     3   ar
     3     3     4   ar
     4     4     5   ar
     5     5     6   ar
     6     6     7   ar
     7     7    12    1
     8    12    13    1
     9    13    14    1
    10    14    15    1
    11    15    16    1
    12    16    17    1
    13     7     8   ar
    14     8    18    1
    15    18    19   ar
    16    19    20   ar
    17    20    21   ar
    18    21    22   ar
    19     8     9   ar
    20     9    24    1
    21    24    25   ar
    22    25    26   ar
    23    26    27   ar
    24    27    28   ar
    25    28    29   ar
    26     9    10   ar
    27    10    11   ar
    28    11     2   ar
    29    10     5   ar
    30    17    12    1
    31    22    18   ar
    32    29    24   ar
    33    22    23    1
@<TRIPOS>MOLECULE
*****
 29 33 0 0 0
SMALL
GASTEIGER

@<TRIPOS>ATOM
      1 CL          3.3243    0.2086   25.5083 Cl      1  UNL1       -0.0822
      2 C           2.0190    0.9440   25.4344 C.ar    1  UNL1        0.0578
      3 C           1.2663    1.2640   26.6918 C.ar    1  UNL1        0.0129
      4 C          -0.0390    1.9994   26.6179 C.ar    1  UNL1        0.0200
      5 C          -0.5916    2.4147   25.2867 C.ar    1  UNL1        0.0827
      6 N          -1.8968    3.1501   25.2128 N.ar    1  UNL1       -0.2306
      7 C          -2.4494    3.5654   23.8816 C.ar    1  UNL1        0.1346
      8 C          -1.6967    3.2453   22.6242 C.ar    1  UNL1        0.0687
      9 C          -0.3914    2.5100   22.6981 C.ar    1  UNL1        0.0072
     10 C           0.1612    2.0947   24.0294 C.ar    1  UNL1        0.0187
     11 C           1.4665    1.3593   24.1032 C.ar    1  UNL1        0.0129
     12 N          -3.7547    4.3008   23.8077 N.pl3   1  UNL1       -0.2932
     13 C          -3.7770    5.7987   23.8847 C.3     1  UNL1        0.0922
     14 C          -5.0823    6.5341   23.8108 C.3     1  UNL1        0.0215
     15 C          -6.3653    5.7715   23.6600 C.3     1  UNL1        0.0035
     16 C          -6.3429    4.2737   23.5830 C.3     1  UNL1        0.0215
     17 C          -5.0376    3.5383   23.6569 C.3     1  UNL1        0.0922
     18 C          -2.2492    3.6607   21.2930 C.ar    1  UNL1        0.1833
     19 N          -1.9182    4.9248   20.5565 N.ar    1  UNL1       -0.1083
     20 N          -2.6942    4.9302   19.2728 N.ar    1  UNL1       -0.0229
     21 N          -3.5048    3.6694   19.2160 N.ar    1  UNL1       -0.0464
     22 N          -3.2298    2.8848   20.4645 N.ar    1  UNL1       -0.2387
     23 H          -3.6237    2.0135   20.6990 H       1  UNL1        0.1923
     24 C           0.3614    2.1899   21.4407 C.ar    1  UNL1        0.0002
     25 C           1.3614    3.1663   20.8961 C.ar    1  UNL1        0.0000
     26 C           2.1141    2.8462   19.6387 C.ar    1  UNL1        0.0000
     27 C           1.8669    1.5498   18.9260 C.ar    1  UNL1        0.0000
     28 C           0.8669    0.5733   19.4706 C.ar    1  UNL1        0.0000
     29 C           0.1141    0.8934   20.7280 C.ar    1  UNL1        0.0000
@<TRIPOS>BOND
     1     1     2    1
     2     2     3   ar
     3     3     4   ar
     4     4     5   ar
     5     5     6   ar
     6     6     7   ar
     7     7    12    1
     8    12    13    1
     9    13    14    1
    10    14    15    1
    11    15    16    1
    12    16    17    1
    13     7     8   ar
    14     8    18    1
    15    18    19   ar
    16    19    20   ar
    17    20    21   ar
    18    21    22   ar
    19     8     9   ar
    20     9    24    1
    21    24    25   ar
    22    25    26   ar
    23    26    27   ar
    24    27    28   ar
    25    28    29   ar
    26     9    10   ar
    27    10    11   ar
    28    11     2   ar
    29    10     5   ar
    30    17    12    1
    31    22    18   ar
    32    29    24   ar
    33    22    23    1
