@<TRIPOS>MOLECULE
*****
 25 27 0 0 0
SMALL
GASTEIGER

@<TRIPOS>ATOM
      1 C          -6.5122  -18.8157   21.4183 C.3     1  UNL1        0.1319
      2 C          -6.9214  -20.1067   22.0631 C.3     1  UNL1        0.0270
      3 N          -3.9282  -18.2828   21.8476 N.ar    1  UNL1       -0.3137
      4 C          -5.0952  -18.6188   20.9671 C.ar    1  UNL1        0.1363
      5 N          -4.5965  -18.7232   19.5563 N.ar    1  UNL1       -0.2280
      6 C          -3.1213  -18.4518   19.5648 C.ar    1  UNL1        0.1175
      7 C          -2.1008  -18.4174   18.4661 C.ar    1  UNL1        0.1194
      8 N          -0.6672  -18.1108   18.7834 N.ar    1  UNL1       -0.2406
      9 C          -0.2541  -17.8386   20.1995 C.ar    1  UNL1        0.1005
     10 C          -1.2746  -17.8731   21.2982 C.ar    1  UNL1        0.0394
     11 C          -2.7082  -18.1797   20.9809 C.ar    1  UNL1        0.0817
     12 C          -4.5228  -16.8113   23.9045 C.3     1  UNL1        0.0265
     13 C          -3.9731  -18.0849   23.3338 C.3     1  UNL1        0.1073
     14 N          -7.5198  -17.7216   21.2247 N.3     1  UNL1       -0.1736
     15 H          -7.6787  -17.6419   20.2203 H       1  UNL1        0.1492
     16 S          -8.8701  -17.8228   21.8700 S.O2    1  UNL1        0.0606
     17 O          -8.2936  -17.3112   23.1568 O.2     1  UNL1       -0.1530
     18 O          -9.4467  -18.3343   20.5832 O.2     1  UNL1       -0.1530
     19 C         -10.2205  -17.9240   22.5152 C.ar    1  UNL1        0.1220
     20 C         -10.3785  -18.6601   23.8126 C.ar    1  UNL1        0.0208
     21 C         -11.7288  -18.7613   24.4579 C.ar    1  UNL1        0.0128
     22 C         -12.9211  -18.1264   23.8058 C.ar    1  UNL1        0.0578
     23 CL        -14.2714  -18.2276   24.4511 Cl      1  UNL1       -0.0822
     24 C         -12.7631  -17.3903   22.5084 C.ar    1  UNL1        0.0128
     25 C         -11.4128  -17.2891   21.8631 C.ar    1  UNL1        0.0208
@<TRIPOS>BOND
     1    12    13    1
     2    13     3    1
     3     3     4   ar
     4     4     1    1
     5     1     2    1
     6     1    14    1
     7    14    16    1
     8    16    17    2
     9    16    18    2
    10    16    19    1
    11    19    20   ar
    12    20    21   ar
    13    21    22   ar
    14    22    23    1
    15    22    24   ar
    16    24    25   ar
    17     4     5   ar
    18     5     6   ar
    19     6     7   ar
    20     7     8   ar
    21     8     9   ar
    22     9    10   ar
    23    10    11   ar
    24    11     3   ar
    25    25    19   ar
    26    11     6   ar
    27    14    15    1
@<TRIPOS>MOLECULE
*****
 25 27 0 0 0
SMALL
GASTEIGER

@<TRIPOS>ATOM
      1 C          -8.5409  -18.8447   20.4844 C.3     1  UNL1        0.1319
      2 C          -8.6164  -19.7387   19.2823 C.3     1  UNL1        0.0270
      3 N         -11.0204  -18.0534   21.0934 N.ar    1  UNL1       -0.3137
      4 C          -9.7177  -18.7276   21.4071 C.ar    1  UNL1        0.1363
      5 N          -9.7985  -19.2642   22.8055 N.ar    1  UNL1       -0.2280
      6 C         -11.1511  -18.9216   23.3560 C.ar    1  UNL1        0.1175
      7 C         -11.7926  -19.1943   24.6842 C.ar    1  UNL1        0.1194
      8 N         -13.1894  -18.7188   24.9542 N.ar    1  UNL1       -0.2406
      9 C         -13.9445  -17.9704   23.8960 C.ar    1  UNL1        0.1005
     10 C         -13.3030  -17.6977   22.5679 C.ar    1  UNL1        0.0394
     11 C         -11.9063  -18.1733   22.2979 C.ar    1  UNL1        0.0817
     12 C         -11.4884  -15.8834   19.7436 C.3     1  UNL1        0.0265
     13 C         -11.3750  -17.3779   19.8019 C.3     1  UNL1        0.1073
     14 N          -7.2886  -18.0679   20.7638 N.3     1  UNL1       -0.1736
     15 H          -7.2280  -17.3407   20.0511 H       1  UNL1        0.1492
     16 S          -7.1060  -17.3910   22.0898 S.O2    1  UNL1        0.0606
     17 O          -6.3828  -18.5991   22.6070 O.2     1  UNL1       -0.1530
     18 O          -7.8292  -16.1829   21.5727 O.2     1  UNL1       -0.1530
     19 C          -6.9234  -16.7141   23.4159 C.ar    1  UNL1        0.1220
     20 C          -8.1103  -16.4567   24.2963 C.ar    1  UNL1        0.0208
     21 C          -7.9277  -15.7798   25.6223 C.ar    1  UNL1        0.0128
     22 C          -6.5583  -15.3603   26.0680 C.ar    1  UNL1        0.0578
     23 CL         -6.3757  -14.6834   27.3941 Cl      1  UNL1       -0.0822
     24 C          -5.3713  -15.6177   25.1876 C.ar    1  UNL1        0.0128
     25 C          -5.5539  -16.2946   23.8616 C.ar    1  UNL1        0.0208
@<TRIPOS>BOND
     1    12    13    1
     2    13     3    1
     3     3     4   ar
     4     4     1    1
     5     1     2    1
     6     1    14    1
     7    14    16    1
     8    16    17    2
     9    16    18    2
    10    16    19    1
    11    19    20   ar
    12    20    21   ar
    13    21    22   ar
    14    22    23    1
    15    22    24   ar
    16    24    25   ar
    17     4     5   ar
    18     5     6   ar
    19     6     7   ar
    20     7     8   ar
    21     8     9   ar
    22     9    10   ar
    23    10    11   ar
    24    11     3   ar
    25    25    19   ar
    26    11     6   ar
    27    14    15    1
@<TRIPOS>MOLECULE
*****
 25 27 0 0 0
SMALL
GASTEIGER

@<TRIPOS>ATOM
      1 C          -8.6383  -18.5046   21.6716 C.3     1  UNL1        0.1319
      2 C          -9.9090  -18.1773   20.9449 C.3     1  UNL1        0.0270
      3 N          -8.9420  -17.6574   24.1885 N.ar    1  UNL1       -0.3137
      4 C          -8.2300  -17.6986   22.8689 C.ar    1  UNL1        0.1363
      5 N          -7.0381  -16.7922   22.9569 N.ar    1  UNL1       -0.2280
      6 C          -7.0134  -16.1908   24.3309 C.ar    1  UNL1        0.1175
      7 C          -6.0716  -15.2254   24.9872 C.ar    1  UNL1        0.1194
      8 N          -6.3064  -14.7947   26.4046 N.ar    1  UNL1       -0.2406
      9 C          -7.4831  -15.3294   27.1658 C.ar    1  UNL1        0.1005
     10 C          -8.4250  -16.2948   26.5095 C.ar    1  UNL1        0.0394
     11 C          -8.1902  -16.7255   25.0920 C.ar    1  UNL1        0.0817
     12 C         -10.1221  -19.8937   24.7852 C.3     1  UNL1        0.0265
     13 C         -10.1873  -18.4150   24.5425 C.3     1  UNL1        0.1073
     14 N          -7.7758  -19.6380   21.2010 N.3     1  UNL1       -0.1736
     15 H          -8.1527  -19.9416   20.3031 H       1  UNL1        0.1492
     16 S          -6.3036  -19.4286   21.0041 S.O2    1  UNL1        0.0606
     17 O          -6.5889  -18.4863   19.8725 O.2     1  UNL1       -0.1530
     18 O          -6.0183  -20.3709   22.1358 O.2     1  UNL1       -0.1530
     19 C          -4.8314  -19.2192   20.8073 C.ar    1  UNL1        0.1220
     20 C          -4.3082  -18.7799   19.4719 C.ar    1  UNL1        0.0208
     21 C          -2.8360  -18.5705   19.2751 C.ar    1  UNL1        0.0128
     22 C          -1.8870  -18.8004   20.4137 C.ar    1  UNL1        0.0578
     23 CL         -0.4147  -18.5909   20.2169 Cl      1  UNL1       -0.0822
     24 C          -2.4101  -19.2397   21.7492 C.ar    1  UNL1        0.0128
     25 C          -3.8823  -19.4491   21.9460 C.ar    1  UNL1        0.0208
@<TRIPOS>BOND
     1    12    13    1
     2    13     3    1
     3     3     4   ar
     4     4     1    1
     5     1     2    1
     6     1    14    1
     7    14    16    1
     8    16    17    2
     9    16    18    2
    10    16    19    1
    11    19    20   ar
    12    20    21   ar
    13    21    22   ar
    14    22    23    1
    15    22    24   ar
    16    24    25   ar
    17     4     5   ar
    18     5     6   ar
    19     6     7   ar
    20     7     8   ar
    21     8     9   ar
    22     9    10   ar
    23    10    11   ar
    24    11     3   ar
    25    25    19   ar
    26    11     6   ar
    27    14    15    1
@<TRIPOS>MOLECULE
*****
 25 27 0 0 0
SMALL
GASTEIGER

@<TRIPOS>ATOM
      1 C          -8.0720  -19.5428   20.9081 C.3     1  UNL1        0.1319
      2 C          -8.0467  -19.2877   19.4302 C.3     1  UNL1        0.0270
      3 N         -10.5298  -18.5308   21.1910 N.ar    1  UNL1       -0.3137
      4 C          -9.3066  -19.2330   21.7016 C.ar    1  UNL1        0.1363
      5 N          -9.5349  -19.5711   23.1451 N.ar    1  UNL1       -0.2280
      6 C         -10.8991  -19.0778   23.5266 C.ar    1  UNL1        0.1175
      7 C         -11.6608  -19.1310   24.8177 C.ar    1  UNL1        0.1194
      8 N         -13.0375  -18.5413   24.9011 N.ar    1  UNL1       -0.2406
      9 C         -13.6524  -17.8984   23.6934 C.ar    1  UNL1        0.1005
     10 C         -12.8907  -17.8452   22.4023 C.ar    1  UNL1        0.0394
     11 C         -11.5140  -18.4349   22.3189 C.ar    1  UNL1        0.0817
     12 C         -11.2797  -16.6353   19.5803 C.3     1  UNL1        0.0265
     13 C         -10.7332  -18.0151   19.7972 C.3     1  UNL1        0.1073
     14 N          -6.8627  -20.1077   21.5924 N.3     1  UNL1       -0.1736
     15 H          -6.8547  -21.1088   21.3974 H       1  UNL1        0.1492
     16 S          -5.4971  -19.5892   21.2512 S.O2    1  UNL1        0.0606
     17 O          -5.2436  -20.8078   20.4141 O.2     1  UNL1       -0.1530
     18 O          -5.7506  -18.3706   22.0883 O.2     1  UNL1       -0.1530
     19 C          -4.1316  -19.0707   20.9100 C.ar    1  UNL1        0.1220
     20 C          -3.2279  -18.5663   21.9957 C.ar    1  UNL1        0.0208
     21 C          -1.8624  -18.0478   21.6545 C.ar    1  UNL1        0.0128
     22 C          -1.4005  -18.0338   20.2275 C.ar    1  UNL1        0.0578
     23 CL         -0.0349  -17.5153   19.8863 Cl      1  UNL1       -0.0822
     24 C          -2.3041  -18.5382   19.1416 C.ar    1  UNL1        0.0128
     25 C          -3.6697  -19.0567   19.4829 C.ar    1  UNL1        0.0208
@<TRIPOS>BOND
     1    12    13    1
     2    13     3    1
     3     3     4   ar
     4     4     1    1
     5     1     2    1
     6     1    14    1
     7    14    16    1
     8    16    17    2
     9    16    18    2
    10    16    19    1
    11    19    20   ar
    12    20    21   ar
    13    21    22   ar
    14    22    23    1
    15    22    24   ar
    16    24    25   ar
    17     4     5   ar
    18     5     6   ar
    19     6     7   ar
    20     7     8   ar
    21     8     9   ar
    22     9    10   ar
    23    10    11   ar
    24    11     3   ar
    25    25    19   ar
    26    11     6   ar
    27    14    15    1
@<TRIPOS>MOLECULE
*****
 25 27 0 0 0
SMALL
GASTEIGER

@<TRIPOS>ATOM
      1 C          -8.0447  -19.5161   20.4887 C.3     1  UNL1        0.1319
      2 C          -7.9601  -19.7072   19.0033 C.3     1  UNL1        0.0270
      3 N          -9.9532  -19.2781   22.3450 N.ar    1  UNL1       -0.3137
      4 C          -9.2467  -18.8522   21.0922 C.ar    1  UNL1        0.1363
      5 N          -9.9534  -17.6457   20.5490 N.ar    1  UNL1       -0.2280
      6 C         -11.0966  -17.3261   21.4660 C.ar    1  UNL1        0.1175
      7 C         -12.1376  -16.2467   21.4337 C.ar    1  UNL1        0.1194
      8 N         -13.1785  -16.1761   22.5114 N.ar    1  UNL1       -0.2406
      9 C         -13.1784  -17.1850   23.6214 C.ar    1  UNL1        0.1005
     10 C         -12.1374  -18.2644   23.6537 C.ar    1  UNL1        0.0394
     11 C         -11.0964  -18.3349   22.5761 C.ar    1  UNL1        0.0817
     12 C          -9.7984  -20.3715   24.6967 C.3     1  UNL1        0.0265
     13 C          -9.5816  -20.4428   23.2142 C.3     1  UNL1        0.1073
     14 N          -6.9272  -19.9890   21.3705 N.3     1  UNL1       -0.1736
     15 H          -6.9295  -21.0081   21.3279 H       1  UNL1        0.1492
     16 S          -5.5195  -19.5475   21.0991 S.O2    1  UNL1        0.0606
     17 O          -5.8098  -18.2250   21.7447 O.2     1  UNL1       -0.1530
     18 O          -5.2292  -20.8699   20.4535 O.2     1  UNL1       -0.1530
     19 C          -4.1119  -19.1060   20.8278 C.ar    1  UNL1        0.1220
     20 C          -3.6645  -18.8501   19.4191 C.ar    1  UNL1        0.0208
     21 C          -2.2568  -18.4086   19.1478 C.ar    1  UNL1        0.0128
     22 C          -1.2966  -18.2231   20.2851 C.ar    1  UNL1        0.0578
     23 CL          0.1111  -17.7816   20.0137 Cl      1  UNL1       -0.0822
     24 C          -1.7440  -18.4790   21.6938 C.ar    1  UNL1        0.0128
     25 C          -3.1516  -18.9204   21.9651 C.ar    1  UNL1        0.0208
@<TRIPOS>BOND
     1    12    13    1
     2    13     3    1
     3     3     4   ar
     4     4     1    1
     5     1     2    1
     6     1    14    1
     7    14    16    1
     8    16    17    2
     9    16    18    2
    10    16    19    1
    11    19    20   ar
    12    20    21   ar
    13    21    22   ar
    14    22    23    1
    15    22    24   ar
    16    24    25   ar
    17     4     5   ar
    18     5     6   ar
    19     6     7   ar
    20     7     8   ar
    21     8     9   ar
    22     9    10   ar
    23    10    11   ar
    24    11     3   ar
    25    25    19   ar
    26    11     6   ar
    27    14    15    1
@<TRIPOS>MOLECULE
*****
 25 27 0 0 0
SMALL
GASTEIGER

@<TRIPOS>ATOM
      1 C         -10.0121  -18.7091   21.8383 C.3     1  UNL1        0.1319
      2 C         -11.3716  -18.4332   21.2676 C.3     1  UNL1        0.0270
      3 N          -8.8511  -16.7061   23.1744 N.ar    1  UNL1       -0.3137
      4 C          -9.5722  -18.0190   23.0954 C.ar    1  UNL1        0.1363
      5 N          -9.7763  -18.5206   24.4942 N.ar    1  UNL1       -0.2280
      6 C          -9.1812  -17.5177   25.4377 C.ar    1  UNL1        0.1175
      7 C          -9.0862  -17.4807   26.9342 C.ar    1  UNL1        0.1194
      8 N          -8.4193  -16.3224   27.6150 N.ar    1  UNL1       -0.2406
      9 C          -7.8475  -15.2010   26.7992 C.ar    1  UNL1        0.1005
     10 C          -7.9425  -15.2379   25.3027 C.ar    1  UNL1        0.0394
     11 C          -8.6094  -16.3963   24.6220 C.ar    1  UNL1        0.0817
     12 C          -9.4889  -15.1975   21.1576 C.3     1  UNL1        0.0265
     13 C          -8.4432  -15.8528   22.0101 C.3     1  UNL1        0.1073
     14 N          -9.0926  -19.6752   21.1520 N.3     1  UNL1       -0.1736
     15 H          -9.3272  -19.6506   20.1596 H       1  UNL1        0.1492
     16 S          -7.6067  -19.4951   21.2502 S.O2    1  UNL1        0.0606
     17 O          -7.6246  -18.6657   20.0005 O.2     1  UNL1       -0.1530
     18 O          -7.5888  -20.3245   22.4999 O.2     1  UNL1       -0.1530
     19 C          -6.1208  -19.3151   21.3484 C.ar    1  UNL1        0.1220
     20 C          -5.5320  -18.5527   22.4982 C.ar    1  UNL1        0.0208
     21 C          -4.0461  -18.3727   22.5965 C.ar    1  UNL1        0.0128
     22 C          -3.1489  -18.9549   21.5448 C.ar    1  UNL1        0.0578
     23 CL         -1.6630  -18.7749   21.6430 Cl      1  UNL1       -0.0822
     24 C          -3.7377  -19.7173   20.3949 C.ar    1  UNL1        0.0128
     25 C          -5.2236  -19.8974   20.2966 C.ar    1  UNL1        0.0208
@<TRIPOS>BOND
     1    12    13    1
     2    13     3    1
     3     3     4   ar
     4     4     1    1
     5     1     2    1
     6     1    14    1
     7    14    16    1
     8    16    17    2
     9    16    18    2
    10    16    19    1
    11    19    20   ar
    12    20    21   ar
    13    21    22   ar
    14    22    23    1
    15    22    24   ar
    16    24    25   ar
    17     4     5   ar
    18     5     6   ar
    19     6     7   ar
    20     7     8   ar
    21     8     9   ar
    22     9    10   ar
    23    10    11   ar
    24    11     3   ar
    25    25    19   ar
    26    11     6   ar
    27    14    15    1
@<TRIPOS>MOLECULE
*****
 25 27 0 0 0
SMALL
GASTEIGER

@<TRIPOS>ATOM
      1 C          -7.1341  -20.1426   21.5043 C.3     1  UNL1        0.1319
      2 C          -6.7471  -20.9028   22.7381 C.3     1  UNL1        0.0270
      3 N          -9.1752  -18.8862   20.3209 N.ar    1  UNL1       -0.3137
      4 C          -8.3501  -19.2643   21.5151 C.ar    1  UNL1        0.1363
      5 N          -8.9543  -18.6098   22.7220 N.ar    1  UNL1       -0.2280
      6 C         -10.1530  -17.8273   22.2737 C.ar    1  UNL1        0.1175
      7 C         -11.1377  -16.9813   23.0250 C.ar    1  UNL1        0.1194
      8 N         -12.2589  -16.3061   22.2924 N.ar    1  UNL1       -0.2406
      9 C         -12.3955  -16.4769   20.8084 C.ar    1  UNL1        0.1005
     10 C         -11.4108  -17.3229   20.0571 C.ar    1  UNL1        0.0394
     11 C         -10.2895  -17.9981   20.7897 C.ar    1  UNL1        0.0817
     12 C          -9.2957  -20.7086   18.4731 C.3     1  UNL1        0.0265
     13 C          -8.9294  -19.3201   18.9062 C.3     1  UNL1        0.1073
     14 N          -6.3052  -20.2606   20.2598 N.3     1  UNL1       -0.1736
     15 H          -6.8362  -19.8187   19.5093 H       1  UNL1        0.1492
     16 S          -4.9259  -19.6726   20.2187 S.O2    1  UNL1        0.0606
     17 O          -5.5103  -18.2949   20.3211 O.2     1  UNL1       -0.1530
     18 O          -4.3416  -21.0502   20.1162 O.2     1  UNL1       -0.1530
     19 C          -3.5466  -19.0845   20.1776 C.ar    1  UNL1        0.1220
     20 C          -3.0497  -18.4245   18.9256 C.ar    1  UNL1        0.0208
     21 C          -1.6704  -17.8364   18.8845 C.ar    1  UNL1        0.0128
     22 C          -0.7880  -17.9083   20.0954 C.ar    1  UNL1        0.0578
     23 CL          0.5913  -17.3202   20.0543 Cl      1  UNL1       -0.0822
     24 C          -1.2850  -18.5682   21.3474 C.ar    1  UNL1        0.0128
     25 C          -2.6643  -19.1563   21.3885 C.ar    1  UNL1        0.0208
@<TRIPOS>BOND
     1    12    13    1
     2    13     3    1
     3     3     4   ar
     4     4     1    1
     5     1     2    1
     6     1    14    1
     7    14    16    1
     8    16    17    2
     9    16    18    2
    10    16    19    1
    11    19    20   ar
    12    20    21   ar
    13    21    22   ar
    14    22    23    1
    15    22    24   ar
    16    24    25   ar
    17     4     5   ar
    18     5     6   ar
    19     6     7   ar
    20     7     8   ar
    21     8     9   ar
    22     9    10   ar
    23    10    11   ar
    24    11     3   ar
    25    25    19   ar
    26    11     6   ar
    27    14    15    1
@<TRIPOS>MOLECULE
*****
 25 27 0 0 0
SMALL
GASTEIGER

@<TRIPOS>ATOM
      1 C          -7.5206  -19.6502   20.9128 C.3     1  UNL1        0.1319
      2 C          -7.4071  -20.3490   19.5905 C.3     1  UNL1        0.0270
      3 N          -8.8272  -17.5945   22.0136 N.ar    1  UNL1       -0.3137
      4 C          -8.7655  -18.8857   21.2527 C.ar    1  UNL1        0.1363
      5 N         -10.1675  -19.2781   20.8914 N.ar    1  UNL1       -0.2280
      6 C         -11.0956  -18.2295   21.4290 C.ar    1  UNL1        0.1175
      7 C         -12.5879  -18.0876   21.3765 C.ar    1  UNL1        0.1194
      8 N         -13.2519  -16.9053   22.0176 N.ar    1  UNL1       -0.2406
      9 C         -12.4235  -15.8647   22.7113 C.ar    1  UNL1        0.1005
     10 C         -10.9312  -16.0066   22.7637 C.ar    1  UNL1        0.0394
     11 C         -10.2672  -17.1889   22.1226 C.ar    1  UNL1        0.0817
     12 C          -7.7006  -16.3078   23.9695 C.3     1  UNL1        0.0265
     13 C          -7.6547  -16.8411   22.5683 C.3     1  UNL1        0.1073
     14 N          -6.3891  -19.7160   21.8953 N.3     1  UNL1       -0.1736
     15 H          -6.2978  -20.6928   22.1744 H       1  UNL1        0.1492
     16 S          -5.0205  -19.2502   21.4954 S.O2    1  UNL1        0.0606
     17 O          -5.5952  -18.6219   20.2604 O.2     1  UNL1       -0.1530
     18 O          -4.4458  -19.8784   22.7303 O.2     1  UNL1       -0.1530
     19 C          -3.6519  -18.7844   21.0954 C.ar    1  UNL1        0.1220
     20 C          -2.6406  -18.4371   22.1474 C.ar    1  UNL1        0.0208
     21 C          -1.2720  -17.9713   21.7475 C.ar    1  UNL1        0.0128
     22 C          -0.9147  -17.8528   20.2955 C.ar    1  UNL1        0.0578
     23 CL          0.4539  -17.3870   19.8956 Cl      1  UNL1       -0.0822
     24 C          -1.9259  -18.2001   19.2434 C.ar    1  UNL1        0.0128
     25 C          -3.2945  -18.6659   19.6434 C.ar    1  UNL1        0.0208
@<TRIPOS>BOND
     1    12    13    1
     2    13     3    1
     3     3     4   ar
     4     4     1    1
     5     1     2    1
     6     1    14    1
     7    14    16    1
     8    16    17    2
     9    16    18    2
    10    16    19    1
    11    19    20   ar
    12    20    21   ar
    13    21    22   ar
    14    22    23    1
    15    22    24   ar
    16    24    25   ar
    17     4     5   ar
    18     5     6   ar
    19     6     7   ar
    20     7     8   ar
    21     8     9   ar
    22     9    10   ar
    23    10    11   ar
    24    11     3   ar
    25    25    19   ar
    26    11     6   ar
    27    14    15    1
@<TRIPOS>MOLECULE
*****
 25 27 0 0 0
SMALL
GASTEIGER

@<TRIPOS>ATOM
      1 C           3.8291   -3.0664   18.9062 C.3     1  UNL1        0.1319
      2 C           3.5832   -4.5347   19.0895 C.3     1  UNL1        0.0270
      3 N           3.6560   -1.7257   21.2122 N.ar    1  UNL1       -0.3137
      4 C           3.1856   -2.0769   19.8318 C.ar    1  UNL1        0.1363
      5 N           1.9587   -1.2650   19.5397 N.ar    1  UNL1       -0.2280
      6 C           1.6708   -0.4119   20.7394 C.ar    1  UNL1        0.1175
      7 C           0.5890    0.5874   21.0242 C.ar    1  UNL1        0.1194
      8 N           0.5563    1.3019   22.3427 N.ar    1  UNL1       -0.2406
      9 C           1.6053    1.0172   23.3763 C.ar    1  UNL1        0.1005
     10 C           2.6871    0.0179   23.0915 C.ar    1  UNL1        0.0394
     11 C           2.7198   -0.6966   21.7731 C.ar    1  UNL1        0.0817
     12 C           4.7328   -3.5959   22.6587 C.3     1  UNL1        0.0265
     13 C           4.8526   -2.3022   21.9092 C.3     1  UNL1        0.1073
     14 N           4.7185   -2.5876   17.7973 N.3     1  UNL1       -0.1736
     15 H           4.2997   -2.9089   16.9244 H       1  UNL1        0.1492
     16 S           4.9898   -1.1215   17.6334 S.O2    1  UNL1        0.0606
     17 O           6.0508   -1.1997   18.6908 O.2     1  UNL1       -0.1530
     18 O           3.9288   -1.0433   16.5760 O.2     1  UNL1       -0.1530
     19 C           5.2611    0.3446   17.4696 C.ar    1  UNL1        0.1220
     20 C           6.3565    0.8070   16.5551 C.ar    1  UNL1        0.0208
     21 C           6.6279    2.2732   16.3913 C.ar    1  UNL1        0.0128
     22 C           5.8038    3.2769   17.1419 C.ar    1  UNL1        0.0578
     23 CL          6.0752    4.7430   16.9780 Cl      1  UNL1       -0.0822
     24 C           4.7084    2.8145   18.0564 C.ar    1  UNL1        0.0128
     25 C           4.4370    1.3484   18.2202 C.ar    1  UNL1        0.0208
@<TRIPOS>BOND
     1    12    13    1
     2    13     3    1
     3     3     4   ar
     4     4     1    1
     5     1     2    1
     6     1    14    1
     7    14    16    1
     8    16    17    2
     9    16    18    2
    10    16    19    1
    11    19    20   ar
    12    20    21   ar
    13    21    22   ar
    14    22    23    1
    15    22    24   ar
    16    24    25   ar
    17     4     5   ar
    18     5     6   ar
    19     6     7   ar
    20     7     8   ar
    21     8     9   ar
    22     9    10   ar
    23    10    11   ar
    24    11     3   ar
    25    25    19   ar
    26    11     6   ar
    27    14    15    1
