@<TRIPOS>MOLECULE
*****
 30 33 0 0 0
SMALL
GASTEIGER

@<TRIPOS>ATOM
      1 C          -7.5506  -17.1933   23.0552 C.2     1  UNL1        0.0020
      2 C          -8.7539  -17.4356   22.1929 C.2     1  UNL1        0.0130
      3 C         -10.1070  -16.9737   22.6466 C.3     1  UNL1        0.1542
      4 C          -9.9572  -17.6780   21.3307 C.3     1  UNL1        0.0614
      5 C         -11.1604  -17.9203   20.4686 C.3     1  UNL1        0.0725
      6 N         -12.5135  -17.4583   20.9223 N.3     1  UNL1       -0.2972
      7 C         -12.6633  -16.7541   22.2381 C.3     1  UNL1        0.0725
      8 C         -11.4600  -16.5117   23.1003 C.3     1  UNL1        0.0614
      9 O         -10.2567  -16.2694   23.9625 O.3     1  UNL1       -0.4785
     10 C          -9.0534  -16.0270   24.8247 C.ar    1  UNL1        0.1386
     11 C          -9.2032  -15.3227   26.1406 C.ar    1  UNL1        0.0369
     12 C          -7.9999  -15.0804   27.0028 C.ar    1  UNL1        0.0031
     13 C          -6.6469  -15.5424   26.5491 C.ar    1  UNL1        0.0002
     14 C          -6.4971  -16.2466   25.2333 C.ar    1  UNL1        0.0030
     15 C          -7.7004  -16.4890   24.3710 C.ar    1  UNL1        0.0338
     16 H         -13.1091  -18.2854   20.9615 H       1  UNL1        0.1233
     17 C          -3.4914  -18.5792   21.6941 C.ar    1  UNL1        0.0496
     18 C          -3.6073  -17.4956   22.7249 C.ar    1  UNL1        0.0042
     19 C          -4.9604  -17.0337   23.1785 C.ar    1  UNL1        0.0001
     20 C          -6.1975  -17.6552   22.6015 C.ar    1  UNL1       -0.0004
     21 C          -6.0817  -18.7388   21.5707 C.ar    1  UNL1       -0.0041
     22 C          -4.7286  -19.2008   21.1170 C.ar    1  UNL1       -0.0175
     23 C          -4.6127  -20.2843   20.0862 C.3     1  UNL1        0.0312
     24 N          -1.3592  -18.2242   20.2528 N.am    1  UNL1       -0.2761
     25 C          -2.1384  -19.0411   21.2404 C.2     1  UNL1        0.2487
     26 O          -1.5645  -20.3201   21.7744 O.2     1  UNL1       -0.2699
     27 C           1.2157  -17.8920   20.1547 C.3     1  UNL1        0.0233
     28 C          -0.0061  -18.6862   19.7991 C.3     1  UNL1        0.0938
     29 C          -1.9330  -16.9453   19.7188 C.3     1  UNL1        0.0938
     30 C          -2.7647  -16.9600   18.4706 C.3     1  UNL1        0.0233
@<TRIPOS>BOND
     1    27    28    1
     2    28    24    1
     3    24    29    1
     4    29    30    1
     5    24    25   am
     6    25    26    2
     7    25    17    1
     8    17    18   ar
     9    18    19   ar
    10    19    20   ar
    11    20     1    1
    12     1     2    2
    13     2     3    1
    14     3     4    1
    15     4     5    1
    16     5     6    1
    17     6     7    1
    18     7     8    1
    19     3     9    1
    20     9    10    1
    21    10    11   ar
    22    11    12   ar
    23    12    13   ar
    24    13    14   ar
    25    14    15   ar
    26    20    21   ar
    27    21    22   ar
    28    22    23    1
    29    22    17   ar
    30    15     1    1
    31     8     3    1
    32    15    10   ar
    33     6    16    1
@<TRIPOS>MOLECULE
*****
 30 33 0 0 0
SMALL
GASTEIGER

@<TRIPOS>ATOM
      1 C         -13.5190   -4.4375   18.2022 C.2     1  UNL1        0.0020
      2 C         -13.5468   -2.9682   17.9012 C.2     1  UNL1        0.0130
      3 C         -12.2655   -2.1908   17.8399 C.3     1  UNL1        0.1542
      4 C         -13.5746   -1.4990   17.6003 C.3     1  UNL1        0.0614
      5 C         -13.6024   -0.0298   17.2993 C.3     1  UNL1        0.0725
      6 N         -12.3211    0.7476   17.2379 N.3     1  UNL1       -0.2972
      7 C         -11.0119    0.0558   17.4776 C.3     1  UNL1        0.0725
      8 C         -10.9841   -1.4134   17.7785 C.3     1  UNL1        0.0614
      9 O         -10.9563   -2.8827   18.0795 O.3     1  UNL1       -0.4785
     10 C         -10.9285   -4.3519   18.3805 C.ar    1  UNL1        0.1386
     11 C          -9.6193   -5.0438   18.6201 C.ar    1  UNL1        0.0369
     12 C          -9.5915   -6.5130   18.9211 C.ar    1  UNL1        0.0031
     13 C         -10.8728   -7.2904   18.9825 C.ar    1  UNL1        0.0002
     14 C         -12.1820   -6.5986   18.7428 C.ar    1  UNL1        0.0030
     15 C         -12.2098   -5.1293   18.4418 C.ar    1  UNL1        0.0338
     16 H         -12.3934    1.4900   17.9337 H       1  UNL1        0.1233
     17 C         -17.3631   -6.7697   18.3863 C.ar    1  UNL1        0.0496
     18 C         -16.9353   -5.9352   19.5570 C.ar    1  UNL1        0.0042
     19 C         -15.6539   -5.1578   19.4957 C.ar    1  UNL1        0.0001
     20 C         -14.8004   -5.2149   18.2636 C.ar    1  UNL1       -0.0004
     21 C         -15.2281   -6.0494   17.0928 C.ar    1  UNL1       -0.0041
     22 C         -16.5095   -6.8268   17.1541 C.ar    1  UNL1       -0.0175
     23 C         -16.9373   -7.6612   15.9834 C.3     1  UNL1        0.0312
     24 N         -18.6415   -8.9592   18.9534 N.am    1  UNL1       -0.2761
     25 C         -18.6444   -7.5471   18.4477 C.2     1  UNL1        0.2487
     26 O         -19.9288   -6.9122   18.0033 O.2     1  UNL1       -0.2699
     27 C         -20.3247  -10.6120   17.8649 C.3     1  UNL1        0.0233
     28 C         -19.9228   -9.7366   19.0147 C.3     1  UNL1        0.0938
     29 C         -17.3571   -9.5940   19.3978 C.3     1  UNL1        0.0938
     30 C         -16.7012  -10.6377   18.5430 C.3     1  UNL1        0.0233
@<TRIPOS>BOND
     1    27    28    1
     2    28    24    1
     3    24    29    1
     4    29    30    1
     5    24    25   am
     6    25    26    2
     7    25    17    1
     8    17    18   ar
     9    18    19   ar
    10    19    20   ar
    11    20     1    1
    12     1     2    2
    13     2     3    1
    14     3     4    1
    15     4     5    1
    16     5     6    1
    17     6     7    1
    18     7     8    1
    19     3     9    1
    20     9    10    1
    21    10    11   ar
    22    11    12   ar
    23    12    13   ar
    24    13    14   ar
    25    14    15   ar
    26    20    21   ar
    27    21    22   ar
    28    22    23    1
    29    22    17   ar
    30    15     1    1
    31     8     3    1
    32    15    10   ar
    33     6    16    1
@<TRIPOS>MOLECULE
*****
 30 33 0 0 0
SMALL
GASTEIGER

@<TRIPOS>ATOM
      1 C           2.3603   -0.0753   22.5109 C.2     1  UNL1        0.0020
      2 C           3.2161   -1.3004   22.3810 C.2     1  UNL1        0.0130
      3 C           3.4914   -1.8827   21.0264 C.3     1  UNL1        0.1542
      4 C           4.0718   -2.5254   22.2511 C.3     1  UNL1        0.0614
      5 C           4.9275   -3.7505   22.1211 C.3     1  UNL1        0.0725
      6 N           5.2028   -4.3328   20.7664 N.3     1  UNL1       -0.2972
      7 C           4.6224   -3.6901   19.5417 C.3     1  UNL1        0.0725
      8 C           3.7667   -2.4650   19.6717 C.3     1  UNL1        0.0614
      9 O           2.9109   -1.2399   19.8016 O.3     1  UNL1       -0.4785
     10 C           2.0552   -0.0148   19.9316 C.ar    1  UNL1        0.1386
     11 C           1.4747    0.6280   18.7068 C.ar    1  UNL1        0.0369
     12 C           0.6190    1.8530   18.8368 C.ar    1  UNL1        0.0031
     13 C           0.3437    2.4354   20.1915 C.ar    1  UNL1        0.0002
     14 C           0.9241    1.7926   21.4162 C.ar    1  UNL1        0.0030
     15 C           1.7799    0.5675   21.2862 C.ar    1  UNL1        0.0338
     16 H           4.8618   -5.2940   20.7842 H       1  UNL1        0.1233
     17 C           1.5345    1.6717   26.5749 C.ar    1  UNL1        0.0496
     18 C           2.9016    1.1488   26.2471 C.ar    1  UNL1        0.0042
     19 C           3.1769    0.5665   24.8924 C.ar    1  UNL1        0.0001
     20 C           2.0850    0.5071   23.8656 C.ar    1  UNL1       -0.0004
     21 C           0.7178    1.0300   24.1935 C.ar    1  UNL1       -0.0041
     22 C           0.4426    1.6123   25.5481 C.ar    1  UNL1       -0.0175
     23 C          -0.9245    2.1352   25.8760 C.3     1  UNL1        0.0312
     24 N           0.6618    1.3979   29.0067 N.am    1  UNL1       -0.2761
     25 C           1.2592    2.2540   27.9296 C.2     1  UNL1        0.2487
     26 O           1.5814    3.6925   28.2072 O.2     1  UNL1       -0.2699
     27 C           1.4002    1.8400   31.4581 C.3     1  UNL1        0.0233
     28 C           0.3865    1.9802   30.3613 C.3     1  UNL1        0.0938
     29 C           0.3396   -0.0406   28.7291 C.3     1  UNL1        0.0938
     30 C          -1.0879   -0.5012   28.7198 C.3     1  UNL1        0.0233
@<TRIPOS>BOND
     1    27    28    1
     2    28    24    1
     3    24    29    1
     4    29    30    1
     5    24    25   am
     6    25    26    2
     7    25    17    1
     8    17    18   ar
     9    18    19   ar
    10    19    20   ar
    11    20     1    1
    12     1     2    2
    13     2     3    1
    14     3     4    1
    15     4     5    1
    16     5     6    1
    17     6     7    1
    18     7     8    1
    19     3     9    1
    20     9    10    1
    21    10    11   ar
    22    11    12   ar
    23    12    13   ar
    24    13    14   ar
    25    14    15   ar
    26    20    21   ar
    27    21    22   ar
    28    22    23    1
    29    22    17   ar
    30    15     1    1
    31     8     3    1
    32    15    10   ar
    33     6    16    1
@<TRIPOS>MOLECULE
*****
 30 33 0 0 0
SMALL
GASTEIGER

@<TRIPOS>ATOM
      1 C           6.9686   -3.9584   24.6701 C.2     1  UNL1        0.0020
      2 C           6.5377   -3.1498   25.8579 C.2     1  UNL1        0.0130
      3 C           6.7896   -3.6619   27.2451 C.3     1  UNL1        0.1542
      4 C           6.1068   -2.3413   27.0455 C.3     1  UNL1        0.0614
      5 C           5.6759   -1.5329   28.2332 C.3     1  UNL1        0.0725
      6 N           5.9278   -2.0449   29.6204 N.3     1  UNL1       -0.2972
      7 C           6.6107   -3.3655   29.8199 C.3     1  UNL1        0.0725
      8 C           7.0415   -4.1740   28.6323 C.3     1  UNL1        0.0614
      9 O           7.4725   -4.9825   27.4445 O.3     1  UNL1       -0.4785
     10 C           7.9033   -5.7910   26.2569 C.ar    1  UNL1        0.1386
     11 C           8.5862   -7.1117   26.4564 C.ar    1  UNL1        0.0369
     12 C           9.0171   -7.9202   25.2687 C.ar    1  UNL1        0.0031
     13 C           8.7651   -7.4081   23.8815 C.ar    1  UNL1        0.0002
     14 C           8.0823   -6.0876   23.6820 C.ar    1  UNL1        0.0030
     15 C           7.6514   -5.2790   24.8697 C.ar    1  UNL1        0.0338
     16 H           5.0194   -2.1108   30.0794 H       1  UNL1        0.1233
     17 C           6.2128   -2.4223   20.5085 C.ar    1  UNL1        0.0496
     18 C           7.3711   -1.8964   21.3033 C.ar    1  UNL1        0.0042
     19 C           7.6230   -2.4084   22.6905 C.ar    1  UNL1        0.0001
     20 C           6.7167   -3.4464   23.2829 C.ar    1  UNL1       -0.0004
     21 C           5.5583   -3.9723   22.4882 C.ar    1  UNL1       -0.0041
     22 C           5.3063   -3.4603   21.1010 C.ar    1  UNL1       -0.0175
     23 C           4.1480   -3.9862   20.3062 C.3     1  UNL1        0.0312
     24 N           5.0279   -0.7556   18.9060 N.am    1  UNL1       -0.2761
     25 C           5.9609   -1.9102   19.1213 C.2     1  UNL1        0.2487
     26 O           6.6420   -2.5528   17.9494 O.2     1  UNL1       -0.2699
     27 C           3.6868   -0.8476   16.6826 C.3     1  UNL1        0.0233
     28 C           4.7760   -0.2436   17.5188 C.3     1  UNL1        0.0938
     29 C           4.3468   -0.1130   20.0779 C.3     1  UNL1        0.0938
     30 C           2.9122   -0.4315   20.3788 C.3     1  UNL1        0.0233
@<TRIPOS>BOND
     1    27    28    1
     2    28    24    1
     3    24    29    1
     4    29    30    1
     5    24    25   am
     6    25    26    2
     7    25    17    1
     8    17    18   ar
     9    18    19   ar
    10    19    20   ar
    11    20     1    1
    12     1     2    2
    13     2     3    1
    14     3     4    1
    15     4     5    1
    16     5     6    1
    17     6     7    1
    18     7     8    1
    19     3     9    1
    20     9    10    1
    21    10    11   ar
    22    11    12   ar
    23    12    13   ar
    24    13    14   ar
    25    14    15   ar
    26    20    21   ar
    27    21    22   ar
    28    22    23    1
    29    22    17   ar
    30    15     1    1
    31     8     3    1
    32    15    10   ar
    33     6    16    1
@<TRIPOS>MOLECULE
*****
 30 33 0 0 0
SMALL
GASTEIGER

@<TRIPOS>ATOM
      1 C          -1.9965    3.4693   25.8753 C.2     1  UNL1        0.0020
      2 C          -3.2931    4.1652   26.1665 C.2     1  UNL1        0.0130
      3 C          -4.1485    4.6604   25.0382 C.3     1  UNL1        0.1542
      4 C          -4.5895    4.8611   26.4577 C.3     1  UNL1        0.0614
      5 C          -5.8860    5.5570   26.7489 C.3     1  UNL1        0.0725
      6 N          -6.7414    6.0522   25.6206 N.3     1  UNL1       -0.2972
      7 C          -6.3003    5.8514   24.2011 C.3     1  UNL1        0.0725
      8 C          -5.0038    5.1555   23.9099 C.3     1  UNL1        0.0614
      9 O          -3.7073    4.4596   23.6186 O.3     1  UNL1       -0.4785
     10 C          -2.4108    3.7637   23.3274 C.ar    1  UNL1        0.1386
     11 C          -1.9697    3.5630   21.9078 C.ar    1  UNL1        0.0369
     12 C          -0.6732    2.8671   21.6166 C.ar    1  UNL1        0.0031
     13 C           0.1822    2.3719   22.7450 C.ar    1  UNL1        0.0002
     14 C          -0.2589    2.5726   24.1645 C.ar    1  UNL1        0.0030
     15 C          -1.5554    3.2686   24.4558 C.ar    1  UNL1        0.0338
     16 H          -6.8532    7.0571   25.7549 H       1  UNL1        0.1233
     17 C           0.5696    1.9838   29.2603 C.ar    1  UNL1        0.0496
     18 C           0.6811    3.4083   28.8039 C.ar    1  UNL1        0.0042
     19 C          -0.1743    3.9035   27.6755 C.ar    1  UNL1        0.0001
     20 C          -1.1412    2.9741   27.0036 C.ar    1  UNL1       -0.0004
     21 C          -1.2527    1.5496   27.4600 C.ar    1  UNL1       -0.0041
     22 C          -0.3973    1.0544   28.5884 C.ar    1  UNL1       -0.0175
     23 C          -0.5087   -0.3701   29.0448 C.3     1  UNL1        0.0312
     24 N           2.7712    0.8919   30.1032 N.am    1  UNL1       -0.2761
     25 C           1.4250    1.4887   30.3886 C.2     1  UNL1        0.2487
     26 O           0.9341    1.5902   31.8024 O.2     1  UNL1       -0.2699
     27 C           3.5835   -1.0497   31.6265 C.3     1  UNL1        0.0233
     28 C           3.6266    0.3968   31.2316 C.3     1  UNL1        0.0938
     29 C           3.2622    0.7903   28.6894 C.3     1  UNL1        0.0938
     30 C           3.0845   -0.4872   27.9238 C.3     1  UNL1        0.0233
@<TRIPOS>BOND
     1    27    28    1
     2    28    24    1
     3    24    29    1
     4    29    30    1
     5    24    25   am
     6    25    26    2
     7    25    17    1
     8    17    18   ar
     9    18    19   ar
    10    19    20   ar
    11    20     1    1
    12     1     2    2
    13     2     3    1
    14     3     4    1
    15     4     5    1
    16     5     6    1
    17     6     7    1
    18     7     8    1
    19     3     9    1
    20     9    10    1
    21    10    11   ar
    22    11    12   ar
    23    12    13   ar
    24    13    14   ar
    25    14    15   ar
    26    20    21   ar
    27    21    22   ar
    28    22    23    1
    29    22    17   ar
    30    15     1    1
    31     8     3    1
    32    15    10   ar
    33     6    16    1
@<TRIPOS>MOLECULE
*****
 30 33 0 0 0
SMALL
GASTEIGER

@<TRIPOS>ATOM
      1 C          -0.2022    2.1701   21.4619 C.2     1  UNL1        0.0020
      2 C          -1.3134    2.9013   20.7685 C.2     1  UNL1        0.0130
      3 C          -2.3214    3.6692   21.5711 C.3     1  UNL1        0.1542
      4 C          -2.4245    3.6325   20.0752 C.3     1  UNL1        0.0614
      5 C          -3.5356    4.3637   19.3818 C.3     1  UNL1        0.0725
      6 N          -4.5437    5.1315   20.1845 N.3     1  UNL1       -0.2972
      7 C          -4.4406    5.1682   21.6805 C.3     1  UNL1        0.0725
      8 C          -3.3295    4.4370   22.3738 C.3     1  UNL1        0.0614
      9 O          -2.2183    3.7058   23.0672 O.3     1  UNL1       -0.4785
     10 C          -1.1072    2.9746   23.7605 C.ar    1  UNL1        0.1386
     11 C          -1.0041    3.0112   25.2566 C.ar    1  UNL1        0.0369
     12 C           0.1070    2.2800   25.9499 C.ar    1  UNL1        0.0031
     13 C           1.1151    1.5122   25.1473 C.ar    1  UNL1        0.0002
     14 C           1.0120    1.4756   23.6513 C.ar    1  UNL1        0.0030
     15 C          -0.0991    2.2068   22.9579 C.ar    1  UNL1        0.0338
     16 H          -5.4583    4.7387   19.9619 H       1  UNL1        0.1233
     17 C           2.8220   -0.1333   19.0540 C.ar    1  UNL1        0.0496
     18 C           1.6705   -0.8498   19.6948 C.ar    1  UNL1        0.0042
     19 C           0.6625   -0.0820   20.4974 C.ar    1  UNL1        0.0001
     20 C           0.8059    1.4023   20.6593 C.ar    1  UNL1       -0.0004
     21 C           1.9574    2.1189   20.0184 C.ar    1  UNL1       -0.0041
     22 C           2.9655    1.3510   19.2158 C.ar    1  UNL1       -0.0175
     23 C           4.1169    2.0675   18.5749 C.3     1  UNL1        0.0312
     24 N           4.9870   -1.5648   18.9376 N.am    1  UNL1       -0.2761
     25 C           3.8301   -0.9012   18.2513 C.2     1  UNL1        0.2487
     26 O           3.6811   -1.0054   16.7623 O.2     1  UNL1       -0.2699
     27 C           7.4517   -2.2505   18.4841 C.3     1  UNL1        0.0233
     28 C           5.9951   -2.3326   18.1349 C.3     1  UNL1        0.0938
     29 C           5.1360   -1.4605   20.4266 C.3     1  UNL1        0.0938
     30 C           4.6263   -2.5603   21.3101 C.3     1  UNL1        0.0233
@<TRIPOS>BOND
     1    27    28    1
     2    28    24    1
     3    24    29    1
     4    29    30    1
     5    24    25   am
     6    25    26    2
     7    25    17    1
     8    17    18   ar
     9    18    19   ar
    10    19    20   ar
    11    20     1    1
    12     1     2    2
    13     2     3    1
    14     3     4    1
    15     4     5    1
    16     5     6    1
    17     6     7    1
    18     7     8    1
    19     3     9    1
    20     9    10    1
    21    10    11   ar
    22    11    12   ar
    23    12    13   ar
    24    13    14   ar
    25    14    15   ar
    26    20    21   ar
    27    21    22   ar
    28    22    23    1
    29    22    17   ar
    30    15     1    1
    31     8     3    1
    32    15    10   ar
    33     6    16    1
@<TRIPOS>MOLECULE
*****
 30 33 0 0 0
SMALL
GASTEIGER

@<TRIPOS>ATOM
      1 C           6.1341   -2.9720   25.4506 C.2     1  UNL1        0.0020
      2 C           6.7121   -4.2616   25.9537 C.2     1  UNL1        0.0130
      3 C           6.7454   -4.5444   27.4264 C.3     1  UNL1        0.1542
      4 C           7.2900   -5.5510   26.4569 C.3     1  UNL1        0.0614
      5 C           7.8679   -6.8405   26.9600 C.3     1  UNL1        0.0725
      6 N           7.9013   -7.1234   28.4327 N.3     1  UNL1       -0.2972
      7 C           7.3567   -6.1168   29.4023 C.3     1  UNL1        0.0725
      8 C           6.7788   -4.8273   28.8992 C.3     1  UNL1        0.0614
      9 O           6.2008   -3.5377   28.3961 O.3     1  UNL1       -0.4785
     10 C           5.6229   -2.2483   27.8929 C.ar    1  UNL1        0.1386
     11 C           5.0783   -1.2416   28.8625 C.ar    1  UNL1        0.0369
     12 C           4.5004    0.0479   28.3594 C.ar    1  UNL1        0.0031
     13 C           4.4670    0.3308   26.8867 C.ar    1  UNL1        0.0002
     14 C           5.0116   -0.6758   25.9171 C.ar    1  UNL1        0.0030
     15 C           5.5895   -1.9654   26.4202 C.ar    1  UNL1        0.0338
     16 H           8.8790   -7.2731   28.6817 H       1  UNL1        0.1233
     17 C           6.0340   -2.1234   21.0325 C.ar    1  UNL1        0.0496
     18 C           6.9462   -1.3372   21.9268 C.ar    1  UNL1        0.0042
     19 C           6.9796   -1.6201   23.3995 C.ar    1  UNL1        0.0001
     20 C           6.1007   -2.6891   23.9779 C.ar    1  UNL1       -0.0004
     21 C           5.1884   -3.4754   23.0837 C.ar    1  UNL1       -0.0041
     22 C           5.1551   -3.1925   21.6110 C.ar    1  UNL1       -0.0175
     23 C           4.2428   -3.9787   20.7167 C.3     1  UNL1        0.0312
     24 N           5.0317   -0.8357   19.0109 N.am    1  UNL1       -0.2761
     25 C           6.0006   -1.8405   19.5598 C.2     1  UNL1        0.2487
     26 O           6.9363   -2.5625   18.6360 O.2     1  UNL1       -0.2699
     27 C           3.7749   -0.8881   16.7376 C.3     1  UNL1        0.0233
     28 C           4.9983   -0.5528   17.5382 C.3     1  UNL1        0.0938
     29 C           4.0960   -0.1136   19.9346 C.3     1  UNL1        0.0938
     30 C           2.7000   -0.6235   20.1370 C.3     1  UNL1        0.0233
@<TRIPOS>BOND
     1    27    28    1
     2    28    24    1
     3    24    29    1
     4    29    30    1
     5    24    25   am
     6    25    26    2
     7    25    17    1
     8    17    18   ar
     9    18    19   ar
    10    19    20   ar
    11    20     1    1
    12     1     2    2
    13     2     3    1
    14     3     4    1
    15     4     5    1
    16     5     6    1
    17     6     7    1
    18     7     8    1
    19     3     9    1
    20     9    10    1
    21    10    11   ar
    22    11    12   ar
    23    12    13   ar
    24    13    14   ar
    25    14    15   ar
    26    20    21   ar
    27    21    22   ar
    28    22    23    1
    29    22    17   ar
    30    15     1    1
    31     8     3    1
    32    15    10   ar
    33     6    16    1
@<TRIPOS>MOLECULE
*****
 30 33 0 0 0
SMALL
GASTEIGER

@<TRIPOS>ATOM
      1 C           1.7193    1.7568   31.1882 C.2     1  UNL1        0.0020
      2 C           2.6262    0.5940   31.4633 C.2     1  UNL1        0.0130
      3 C           3.2731    0.4493   32.8089 C.3     1  UNL1        0.1542
      4 C           3.5330   -0.5686   31.7383 C.3     1  UNL1        0.0614
      5 C           4.4399   -1.7313   32.0134 C.3     1  UNL1        0.0725
      6 N           5.0868   -1.8760   33.3590 N.3     1  UNL1       -0.2972
      7 C           4.8268   -0.8580   34.4295 C.3     1  UNL1        0.0725
      8 C           3.9199    0.3046   34.1545 C.3     1  UNL1        0.0614
      9 O           3.0130    1.4674   33.8794 O.3     1  UNL1       -0.4785
     10 C           2.1062    2.6301   33.6043 C.ar    1  UNL1        0.1386
     11 C           1.8461    3.6482   34.6749 C.ar    1  UNL1        0.0369
     12 C           0.9393    4.8109   34.3998 C.ar    1  UNL1        0.0031
     13 C           0.2924    4.9556   33.0542 C.ar    1  UNL1        0.0002
     14 C           0.5524    3.9376   31.9837 C.ar    1  UNL1        0.0030
     15 C           1.4593    2.7748   32.2587 C.ar    1  UNL1        0.0338
     16 H           6.0945   -1.8870   33.2016 H       1  UNL1        0.1233
     17 C          -0.2213    2.1909   27.1514 C.ar    1  UNL1        0.0496
     18 C          -0.7550    1.1939   28.1368 C.ar    1  UNL1        0.0042
     19 C          -0.1082    1.0492   29.4824 C.ar    1  UNL1        0.0001
     20 C           1.0724    1.9015   29.8426 C.ar    1  UNL1       -0.0004
     21 C           1.6062    2.8986   28.8572 C.ar    1  UNL1       -0.0041
     22 C           0.9594    3.0433   27.5116 C.ar    1  UNL1       -0.0175
     23 C           1.4931    4.0402   26.5261 C.3     1  UNL1        0.0312
     24 N          -2.0209    3.2782   25.6253 N.am    1  UNL1       -0.2761
     25 C          -0.8682    2.3356   25.8058 C.2     1  UNL1        0.2487
     26 O          -0.3622    1.5377   24.6407 O.2     1  UNL1       -0.2699
     27 C          -4.1633    3.4333   24.1637 C.3     1  UNL1        0.0233
     28 C          -2.6678    3.4229   24.2797 C.3     1  UNL1        0.0938
     29 C          -2.5269    4.0761   26.7904 C.3     1  UNL1        0.0938
     30 C          -2.0187    5.4680   27.0234 C.3     1  UNL1        0.0233
@<TRIPOS>BOND
     1    27    28    1
     2    28    24    1
     3    24    29    1
     4    29    30    1
     5    24    25   am
     6    25    26    2
     7    25    17    1
     8    17    18   ar
     9    18    19   ar
    10    19    20   ar
    11    20     1    1
    12     1     2    2
    13     2     3    1
    14     3     4    1
    15     4     5    1
    16     5     6    1
    17     6     7    1
    18     7     8    1
    19     3     9    1
    20     9    10    1
    21    10    11   ar
    22    11    12   ar
    23    12    13   ar
    24    13    14   ar
    25    14    15   ar
    26    20    21   ar
    27    21    22   ar
    28    22    23    1
    29    22    17   ar
    30    15     1    1
    31     8     3    1
    32    15    10   ar
    33     6    16    1
@<TRIPOS>MOLECULE
*****
 30 33 0 0 0
SMALL
GASTEIGER

@<TRIPOS>ATOM
      1 C           1.1691    2.4249   31.0054 C.2     1  UNL1        0.0020
      2 C           0.8767    3.4639   32.0472 C.2     1  UNL1        0.0130
      3 C           1.4940    3.3541   33.4099 C.3     1  UNL1        0.1542
      4 C           0.5842    4.5027   33.0889 C.3     1  UNL1        0.0614
      5 C           0.2918    5.5415   34.1306 C.3     1  UNL1        0.0725
      6 N           0.9092    5.4318   35.4933 N.3     1  UNL1       -0.2972
      7 C           1.8190    4.2833   35.8142 C.3     1  UNL1        0.0725
      8 C           2.1114    3.2444   34.7725 C.3     1  UNL1        0.0614
      9 O           2.4038    2.2055   33.7308 O.3     1  UNL1       -0.4785
     10 C           2.6963    1.1666   32.6890 C.ar    1  UNL1        0.1386
     11 C           3.6061    0.0180   33.0099 C.ar    1  UNL1        0.0369
     12 C           3.8985   -1.0209   31.9682 C.ar    1  UNL1        0.0031
     13 C           3.2812   -0.9111   30.6056 C.ar    1  UNL1        0.0002
     14 C           2.3714    0.2374   30.2846 C.ar    1  UNL1        0.0030
     15 C           2.0789    1.2764   31.3264 C.ar    1  UNL1        0.0338
     16 H           0.1405    5.3945   36.1627 H       1  UNL1        0.1233
     17 C          -0.6829    2.7541   26.9175 C.ar    1  UNL1        0.0496
     18 C          -0.9055    1.5229   27.7448 C.ar    1  UNL1        0.0042
     19 C          -0.2882    1.4131   29.1074 C.ar    1  UNL1        0.0001
     20 C           0.5518    2.5346   29.6428 C.ar    1  UNL1       -0.0004
     21 C           0.7744    3.7660   28.8155 C.ar    1  UNL1       -0.0041
     22 C           0.1571    3.8757   27.4528 C.ar    1  UNL1       -0.0175
     23 C           0.3796    5.1069   26.6255 C.3     1  UNL1        0.0312
     24 N          -2.6875    3.4136   25.4020 N.am    1  UNL1       -0.2761
     25 C          -1.3003    2.8638   25.5548 C.2     1  UNL1        0.2487
     26 O          -0.5304    2.4237   24.3450 O.2     1  UNL1       -0.2699
     27 C          -4.7565    3.1992   23.8453 C.3     1  UNL1        0.0233
     28 C          -3.3048    3.5233   24.0393 C.3     1  UNL1        0.0938
     29 C          -3.4574    3.8537   26.6118 C.3     1  UNL1        0.0938
     30 C          -3.4478    5.2962   27.0230 C.3     1  UNL1        0.0233
@<TRIPOS>BOND
     1    27    28    1
     2    28    24    1
     3    24    29    1
     4    29    30    1
     5    24    25   am
     6    25    26    2
     7    25    17    1
     8    17    18   ar
     9    18    19   ar
    10    19    20   ar
    11    20     1    1
    12     1     2    2
    13     2     3    1
    14     3     4    1
    15     4     5    1
    16     5     6    1
    17     6     7    1
    18     7     8    1
    19     3     9    1
    20     9    10    1
    21    10    11   ar
    22    11    12   ar
    23    12    13   ar
    24    13    14   ar
    25    14    15   ar
    26    20    21   ar
    27    21    22   ar
    28    22    23    1
    29    22    17   ar
    30    15     1    1
    31     8     3    1
    32    15    10   ar
    33     6    16    1
