@<TRIPOS>MOLECULE
*****
 25 28 0 0 0
SMALL
GASTEIGER

@<TRIPOS>ATOM
      1 C          -9.0820  -19.6799   19.0306 C.3     1  UNL1        0.0523
      2 C          -9.3808  -19.7023   20.5003 C.ar    1  UNL1        0.0656
      3 C         -10.7456  -19.7268   21.1223 C.ar    1  UNL1        0.0739
      4 C         -10.5756  -19.7438   22.6126 C.ar    1  UNL1        0.2434
      5 N          -9.1058  -19.7298   22.9116 N.ar    1  UNL1       -0.1277
      6 N          -8.3674  -19.7042   21.6062 N.ar    1  UNL1       -0.2308
      7 C          -6.8771  -19.6840   21.4364 C.ar    1  UNL1        0.0825
      8 C          -6.2230  -20.5976   20.4426 C.ar    1  UNL1        0.0191
      9 C          -4.7329  -20.5774   20.2728 C.ar    1  UNL1        0.0015
     10 C          -3.8966  -19.6436   21.0968 C.ar    1  UNL1        0.0001
     11 C          -2.4064  -19.6234   20.9270 C.ar    1  UNL1        0.0000
     12 C          -1.5703  -18.6897   21.7509 C.ar    1  UNL1        0.0000
     13 C          -2.2244  -17.7761   22.7447 C.ar    1  UNL1        0.0000
     14 C          -3.7146  -17.7963   22.9145 C.ar    1  UNL1        0.0000
     15 C          -4.5507  -18.7300   22.0906 C.ar    1  UNL1        0.0015
     16 C          -6.0410  -18.7502   22.2604 C.ar    1  UNL1        0.0191
     17 O         -11.6812  -19.7702   23.6258 O.3     1  UNL1       -0.4577
     18 C         -12.2468  -18.4845   24.1523 C.3     1  UNL1        0.2244
     19 C         -12.8500  -17.4878   23.2075 C.3     1  UNL1        0.1202
     20 N         -11.9885  -16.8051   22.1868 N.3     1  UNL1       -0.2653
     21 C         -12.5100  -16.5729   20.7997 C.3     1  UNL1        0.1047
     22 C         -11.6485  -15.8902   19.7791 C.3     1  UNL1        0.1595
     23 O         -10.2656  -15.4397   20.1456 O.3     1  UNL1       -0.3508
     24 C          -9.7440  -15.6719   21.5327 C.3     1  UNL1        0.1595
     25 C         -10.6054  -16.3546   22.5533 C.3     1  UNL1        0.1047
@<TRIPOS>BOND
     1     1     2    1
     2     2     3   ar
     3     3     4   ar
     4     4    17    1
     5    17    18    1
     6    18    19    1
     7    19    20    1
     8    20    21    1
     9    21    22    1
    10    22    23    1
    11    23    24    1
    12    24    25    1
    13     4     5   ar
    14     5     6   ar
    15     6     7    1
    16     7     8   ar
    17     8     9   ar
    18     9    10   ar
    19    10    11   ar
    20    11    12   ar
    21    12    13   ar
    22    13    14   ar
    23    14    15   ar
    24    15    16   ar
    25     6     2   ar
    26    16     7   ar
    27    25    20    1
    28    15    10   ar
@<TRIPOS>MOLECULE
*****
 25 28 0 0 0
SMALL
GASTEIGER

@<TRIPOS>ATOM
      1 C          -7.2227  -15.4914   26.6571 C.3     1  UNL1        0.0523
      2 C          -6.5361  -15.7140   25.3422 C.ar    1  UNL1        0.0656
      3 C          -5.1120  -15.3686   25.0215 C.ar    1  UNL1        0.0739
      4 C          -4.8488  -15.7622   23.5982 C.ar    1  UNL1        0.2434
      5 N          -6.1102  -16.3509   23.0392 N.ar    1  UNL1       -0.1277
      6 N          -7.1530  -16.3211   24.1170 N.ar    1  UNL1       -0.2308
      7 C          -8.5648  -16.8122   23.9918 C.ar    1  UNL1        0.0825
      8 C          -9.1477  -17.6979   25.0528 C.ar    1  UNL1        0.0191
      9 C         -10.5594  -18.1889   24.9276 C.ar    1  UNL1        0.0015
     10 C         -11.3884  -17.7943   23.7413 C.ar    1  UNL1        0.0001
     11 C         -12.8002  -18.2854   23.6161 C.ar    1  UNL1        0.0000
     12 C         -13.6290  -17.8907   22.4299 C.ar    1  UNL1        0.0000
     13 C         -13.0462  -17.0050   21.3689 C.ar    1  UNL1        0.0000
     14 C         -11.6344  -16.5139   21.4941 C.ar    1  UNL1        0.0000
     15 C         -10.8055  -16.9086   22.6803 C.ar    1  UNL1        0.0015
     16 C          -9.3937  -16.4175   22.8056 C.ar    1  UNL1        0.0191
     17 O          -3.5520  -15.5963   22.8630 O.3     1  UNL1       -0.4577
     18 C          -2.7345  -16.8013   22.5030 C.3     1  UNL1        0.2244
     19 C          -3.1613  -18.1628   22.9657 C.3     1  UNL1        0.1202
     20 N          -3.8839  -19.0819   22.0260 N.3     1  UNL1       -0.2653
     21 C          -3.1672  -19.6577   20.8407 C.3     1  UNL1        0.1047
     22 C          -3.8899  -20.5768   19.9011 C.3     1  UNL1        0.1595
     23 O          -5.3291  -20.9201   20.1466 O.3     1  UNL1       -0.3508
     24 C          -6.0459  -20.3444   21.3319 C.3     1  UNL1        0.1595
     25 C          -5.3233  -19.4253   22.2716 C.3     1  UNL1        0.1047
@<TRIPOS>BOND
     1     1     2    1
     2     2     3   ar
     3     3     4   ar
     4     4    17    1
     5    17    18    1
     6    18    19    1
     7    19    20    1
     8    20    21    1
     9    21    22    1
    10    22    23    1
    11    23    24    1
    12    24    25    1
    13     4     5   ar
    14     5     6   ar
    15     6     7    1
    16     7     8   ar
    17     8     9   ar
    18     9    10   ar
    19    10    11   ar
    20    11    12   ar
    21    12    13   ar
    22    13    14   ar
    23    14    15   ar
    24    15    16   ar
    25     6     2   ar
    26    16     7   ar
    27    25    20    1
    28    15    10   ar
@<TRIPOS>MOLECULE
*****
 25 28 0 0 0
SMALL
GASTEIGER

@<TRIPOS>ATOM
      1 C          -8.2031  -20.0260   19.0502 C.3     1  UNL1        0.0523
      2 C          -7.3792  -19.3943   20.1329 C.ar    1  UNL1        0.0656
      3 C          -5.8809  -19.3739   20.2023 C.ar    1  UNL1        0.0739
      4 C          -5.4846  -18.6391   21.4486 C.ar    1  UNL1        0.2434
      5 N          -6.7379  -18.2053   22.1493 N.ar    1  UNL1       -0.1277
      6 N          -7.9088  -18.6721   21.3362 N.ar    1  UNL1       -0.2308
      7 C          -9.3554  -18.4548   21.6680 C.ar    1  UNL1        0.0825
      8 C         -10.2953  -17.9351   20.6208 C.ar    1  UNL1        0.0191
      9 C         -11.7418  -17.7178   20.9526 C.ar    1  UNL1        0.0015
     10 C         -12.2487  -18.0201   22.3316 C.ar    1  UNL1        0.0001
     11 C         -13.6953  -17.8028   22.6634 C.ar    1  UNL1        0.0000
     12 C         -14.2020  -18.1052   24.0424 C.ar    1  UNL1        0.0000
     13 C         -13.2622  -18.6248   25.0897 C.ar    1  UNL1        0.0000
     14 C         -11.8156  -18.8422   24.7579 C.ar    1  UNL1        0.0000
     15 C         -11.3089  -18.5398   23.3789 C.ar    1  UNL1        0.0015
     16 C          -9.8622  -18.7571   23.0470 C.ar    1  UNL1        0.0191
     17 O          -4.0814  -18.3830   21.9126 O.3     1  UNL1       -0.4577
     18 C          -3.8377  -17.7474   23.2492 C.3     1  UNL1        0.2244
     19 C          -4.1507  -16.2953   23.4576 C.3     1  UNL1        0.1202
     20 N          -5.2978  -15.8939   24.3368 N.3     1  UNL1       -0.2653
     21 C          -5.1631  -15.9743   25.8286 C.3     1  UNL1        0.1047
     22 C          -6.3102  -15.5729   26.7078 C.3     1  UNL1        0.1595
     23 O          -7.5918  -15.0911   26.0954 O.3     1  UNL1       -0.3508
     24 C          -7.7264  -15.0106   24.6036 C.3     1  UNL1        0.1595
     25 C          -6.5794  -15.4120   23.7243 C.3     1  UNL1        0.1047
@<TRIPOS>BOND
     1     1     2    1
     2     2     3   ar
     3     3     4   ar
     4     4    17    1
     5    17    18    1
     6    18    19    1
     7    19    20    1
     8    20    21    1
     9    21    22    1
    10    22    23    1
    11    23    24    1
    12    24    25    1
    13     4     5   ar
    14     5     6   ar
    15     6     7    1
    16     7     8   ar
    17     8     9   ar
    18     9    10   ar
    19    10    11   ar
    20    11    12   ar
    21    12    13   ar
    22    13    14   ar
    23    14    15   ar
    24    15    16   ar
    25     6     2   ar
    26    16     7   ar
    27    25    20    1
    28    15    10   ar
@<TRIPOS>MOLECULE
*****
 25 28 0 0 0
SMALL
GASTEIGER

@<TRIPOS>ATOM
      1 C          -7.9069  -19.9391   19.1826 C.3     1  UNL1        0.0523
      2 C          -7.1286  -19.5549   20.4060 C.ar    1  UNL1        0.0656
      3 C          -5.6493  -19.7153   20.5963 C.ar    1  UNL1        0.0739
      4 C          -5.2994  -19.2023   21.9618 C.ar    1  UNL1        0.2434
      5 N          -6.5623  -18.7249   22.6153 N.ar    1  UNL1       -0.1277
      6 N          -7.6928  -18.9428   21.6538 N.ar    1  UNL1       -0.2308
      7 C          -9.1344  -18.6075   21.8973 C.ar    1  UNL1        0.0825
      8 C          -9.9382  -17.9308   20.8268 C.ar    1  UNL1        0.0191
      9 C         -11.3798  -17.5955   21.0702 C.ar    1  UNL1        0.0015
     10 C         -12.0177  -17.9369   22.3842 C.ar    1  UNL1        0.0001
     11 C         -13.4593  -17.6016   22.6277 C.ar    1  UNL1        0.0000
     12 C         -14.0972  -17.9430   23.9416 C.ar    1  UNL1        0.0000
     13 C         -13.2934  -18.6197   25.0122 C.ar    1  UNL1        0.0000
     14 C         -11.8518  -18.9550   24.7687 C.ar    1  UNL1        0.0000
     15 C         -11.2140  -18.6136   23.4548 C.ar    1  UNL1        0.0015
     16 C          -9.7723  -18.9489   23.2113 C.ar    1  UNL1        0.0191
     17 O          -3.9275  -19.1721   22.5674 O.3     1  UNL1       -0.4577
     18 C          -3.3779  -17.8887   23.1160 C.3     1  UNL1        0.2244
     19 C          -2.8584  -16.8355   22.1827 C.3     1  UNL1        0.1202
     20 N          -2.1004  -17.2326   20.9508 N.3     1  UNL1       -0.2653
     21 C          -2.8099  -17.3318   19.6330 C.3     1  UNL1        0.1047
     22 C          -2.0518  -17.7289   18.4011 C.3     1  UNL1        0.1595
     23 O          -0.5843  -18.0269   18.4870 O.3     1  UNL1       -0.3508
     24 C           0.1252  -17.9278   19.8049 C.3     1  UNL1        0.1595
     25 C          -0.6328  -17.5306   21.0368 C.3     1  UNL1        0.1047
@<TRIPOS>BOND
     1     1     2    1
     2     2     3   ar
     3     3     4   ar
     4     4    17    1
     5    17    18    1
     6    18    19    1
     7    19    20    1
     8    20    21    1
     9    21    22    1
    10    22    23    1
    11    23    24    1
    12    24    25    1
    13     4     5   ar
    14     5     6   ar
    15     6     7    1
    16     7     8   ar
    17     8     9   ar
    18     9    10   ar
    19    10    11   ar
    20    11    12   ar
    21    12    13   ar
    22    13    14   ar
    23    14    15   ar
    24    15    16   ar
    25     6     2   ar
    26    16     7   ar
    27    25    20    1
    28    15    10   ar
@<TRIPOS>MOLECULE
*****
 25 28 0 0 0
SMALL
GASTEIGER

@<TRIPOS>ATOM
      1 C          -7.4877  -21.6010   18.7061 C.3     1  UNL1        0.0523
      2 C          -8.2344  -20.4175   19.2463 C.ar    1  UNL1        0.0656
      3 C          -9.6908  -20.1242   19.0385 C.ar    1  UNL1        0.0739
      4 C         -10.0124  -18.8449   19.7529 C.ar    1  UNL1        0.2434
      5 N          -8.7549  -18.3477   20.4020 N.ar    1  UNL1       -0.1277
      6 N          -7.6561  -19.3196   20.0890 N.ar    1  UNL1       -0.2308
      7 C          -6.2293  -19.2124   20.5395 C.ar    1  UNL1        0.0825
      8 C          -5.8733  -19.4776   21.9723 C.ar    1  UNL1        0.0191
      9 C          -4.4467  -19.3705   22.4228 C.ar    1  UNL1        0.0015
     10 C          -3.3759  -18.9981   21.4405 C.ar    1  UNL1        0.0001
     11 C          -1.9492  -18.8910   21.8910 C.ar    1  UNL1        0.0000
     12 C          -0.8785  -18.5187   20.9087 C.ar    1  UNL1        0.0000
     13 C          -1.2345  -18.2535   19.4759 C.ar    1  UNL1        0.0000
     14 C          -2.6612  -18.3606   19.0254 C.ar    1  UNL1        0.0000
     15 C          -3.7319  -18.7329   20.0077 C.ar    1  UNL1        0.0015
     16 C          -5.1586  -18.8401   19.5572 C.ar    1  UNL1        0.0191
     17 O         -11.3557  -18.1798   19.8083 O.3     1  UNL1       -0.4577
     18 C         -11.4501  -16.6954   20.0027 C.3     1  UNL1        0.2244
     19 C         -11.7630  -16.1349   21.3584 C.3     1  UNL1        0.1202
     20 N         -11.7385  -17.0281   22.5633 N.3     1  UNL1       -0.2653
     21 C         -10.4421  -17.3052   23.2652 C.3     1  UNL1        0.1047
     22 C         -10.4176  -18.1983   24.4700 C.3     1  UNL1        0.1595
     23 O         -11.6894  -18.8143   24.9730 O.3     1  UNL1       -0.3508
     24 C         -12.9858  -18.5372   24.2711 C.3     1  UNL1        0.1595
     25 C         -13.0103  -17.6441   23.0663 C.3     1  UNL1        0.1047
@<TRIPOS>BOND
     1     1     2    1
     2     2     3   ar
     3     3     4   ar
     4     4    17    1
     5    17    18    1
     6    18    19    1
     7    19    20    1
     8    20    21    1
     9    21    22    1
    10    22    23    1
    11    23    24    1
    12    24    25    1
    13     4     5   ar
    14     5     6   ar
    15     6     7    1
    16     7     8   ar
    17     8     9   ar
    18     9    10   ar
    19    10    11   ar
    20    11    12   ar
    21    12    13   ar
    22    13    14   ar
    23    14    15   ar
    24    15    16   ar
    25     6     2   ar
    26    16     7   ar
    27    25    20    1
    28    15    10   ar
@<TRIPOS>MOLECULE
*****
 25 28 0 0 0
SMALL
GASTEIGER

@<TRIPOS>ATOM
      1 C          -7.4848  -15.1367   26.2678 C.3     1  UNL1        0.0523
      2 C          -6.6401  -15.7039   25.1657 C.ar    1  UNL1        0.0656
      3 C          -5.1508  -15.5747   25.0407 C.ar    1  UNL1        0.0739
      4 C          -4.7265  -16.2909   23.7928 C.ar    1  UNL1        0.2434
      5 N          -5.9535  -16.8626   23.1466 N.ar    1  UNL1       -0.1277
      6 N          -7.1361  -16.4999   23.9950 N.ar    1  UNL1       -0.2308
      7 C          -8.5641  -16.8684   23.7210 C.ar    1  UNL1        0.0825
      8 C          -9.3063  -17.7554   24.6762 C.ar    1  UNL1        0.0191
      9 C         -10.7342  -18.1239   24.4022 C.ar    1  UNL1        0.0015
     10 C         -11.4201  -17.6054   23.1730 C.ar    1  UNL1        0.0001
     11 C         -12.8480  -17.9740   22.8991 C.ar    1  UNL1        0.0000
     12 C         -13.5338  -17.4555   21.6699 C.ar    1  UNL1        0.0000
     13 C         -12.7916  -16.5685   20.7148 C.ar    1  UNL1        0.0000
     14 C         -11.3637  -16.1999   20.9887 C.ar    1  UNL1        0.0000
     15 C         -10.6779  -16.7184   22.2179 C.ar    1  UNL1        0.0015
     16 C          -9.2499  -16.3499   22.4919 C.ar    1  UNL1        0.0191
     17 O          -3.3220  -16.4136   23.2810 O.3     1  UNL1       -0.4577
     18 C          -2.6069  -17.7298   23.3612 C.3     1  UNL1        0.2244
     19 C          -2.8056  -18.7581   22.2875 C.3     1  UNL1        0.1202
     20 N          -2.2773  -18.5114   20.9055 N.3     1  UNL1       -0.2653
     21 C          -3.1555  -18.7502   19.7131 C.3     1  UNL1        0.1047
     22 C          -2.6272  -18.5035   18.3311 C.3     1  UNL1        0.1595
     23 O          -1.2208  -18.0180   18.1415 O.3     1  UNL1       -0.3508
     24 C          -0.3426  -17.7791   19.3338 C.3     1  UNL1        0.1595
     25 C          -0.8708  -18.0258   20.7158 C.3     1  UNL1        0.1047
@<TRIPOS>BOND
     1     1     2    1
     2     2     3   ar
     3     3     4   ar
     4     4    17    1
     5    17    18    1
     6    18    19    1
     7    19    20    1
     8    20    21    1
     9    21    22    1
    10    22    23    1
    11    23    24    1
    12    24    25    1
    13     4     5   ar
    14     5     6   ar
    15     6     7    1
    16     7     8   ar
    17     8     9   ar
    18     9    10   ar
    19    10    11   ar
    20    11    12   ar
    21    12    13   ar
    22    13    14   ar
    23    14    15   ar
    24    15    16   ar
    25     6     2   ar
    26    16     7   ar
    27    25    20    1
    28    15    10   ar
@<TRIPOS>MOLECULE
*****
 25 28 0 0 0
SMALL
GASTEIGER

@<TRIPOS>ATOM
      1 C          -7.1035  -14.8351   25.4739 C.3     1  UNL1        0.0523
      2 C          -6.3566  -15.7624   24.5617 C.ar    1  UNL1        0.0656
      3 C          -4.8692  -15.9534   24.5238 C.ar    1  UNL1        0.0739
      4 C          -4.5593  -16.9706   23.4659 C.ar    1  UNL1        0.2434
      5 N          -5.8551  -17.4084   22.8499 N.ar    1  UNL1       -0.1277
      6 N          -6.9658  -16.6617   23.5272 N.ar    1  UNL1       -0.2308
      7 C          -8.4290  -16.7914   23.2233 C.ar    1  UNL1        0.0825
      8 C          -9.0052  -16.1233   22.0101 C.ar    1  UNL1        0.0191
      9 C         -10.4683  -16.2530   21.7062 C.ar    1  UNL1        0.0015
     10 C         -11.3554  -17.0508   22.6155 C.ar    1  UNL1        0.0001
     11 C         -12.8185  -17.1805   22.3115 C.ar    1  UNL1        0.0000
     12 C         -13.7054  -17.9783   23.2208 C.ar    1  UNL1        0.0000
     13 C         -13.1293  -18.6464   24.4339 C.ar    1  UNL1        0.0000
     14 C         -11.6662  -18.5168   24.7378 C.ar    1  UNL1        0.0000
     15 C         -10.7792  -17.7189   23.8286 C.ar    1  UNL1        0.0015
     16 C          -9.3160  -17.5892   24.1325 C.ar    1  UNL1        0.0191
     17 O          -3.1935  -17.4636   23.0899 O.3     1  UNL1       -0.4577
     18 C          -2.9163  -18.9368   23.0362 C.3     1  UNL1        0.2244
     19 C          -2.8514  -19.6400   21.7128 C.3     1  UNL1        0.1202
     20 N          -2.4518  -18.8840   20.4804 N.3     1  UNL1       -0.2653
     21 C          -1.0089  -18.5531   20.2384 C.3     1  UNL1        0.1047
     22 C          -0.6093  -17.7971   19.0060 C.3     1  UNL1        0.1595
     23 O          -1.6525  -17.3720   18.0157 O.3     1  UNL1       -0.3508
     24 C          -3.0954  -17.7029   18.2577 C.3     1  UNL1        0.1595
     25 C          -3.4951  -18.4589   19.4900 C.3     1  UNL1        0.1047
@<TRIPOS>BOND
     1     1     2    1
     2     2     3   ar
     3     3     4   ar
     4     4    17    1
     5    17    18    1
     6    18    19    1
     7    19    20    1
     8    20    21    1
     9    21    22    1
    10    22    23    1
    11    23    24    1
    12    24    25    1
    13     4     5   ar
    14     5     6   ar
    15     6     7    1
    16     7     8   ar
    17     8     9   ar
    18     9    10   ar
    19    10    11   ar
    20    11    12   ar
    21    12    13   ar
    22    13    14   ar
    23    14    15   ar
    24    15    16   ar
    25     6     2   ar
    26    16     7   ar
    27    25    20    1
    28    15    10   ar
@<TRIPOS>MOLECULE
*****
 25 28 0 0 0
SMALL
GASTEIGER

@<TRIPOS>ATOM
      1 C         -11.6094  -16.6177   21.5078 C.3     1  UNL1        0.0523
      2 C         -10.5923  -17.6556   21.1359 C.ar    1  UNL1        0.0656
      3 C         -10.5547  -18.4337   19.8539 C.ar    1  UNL1        0.0739
      4 C          -9.3734  -19.3567   19.9064 C.ar    1  UNL1        0.2434
      5 N          -8.6810  -19.1491   21.2207 N.ar    1  UNL1       -0.1277
      6 N          -9.4343  -18.0978   21.9805 N.ar    1  UNL1       -0.2308
      7 C          -9.0901  -17.5797   23.3455 C.ar    1  UNL1        0.0825
      8 C          -9.9328  -17.9601   24.5267 C.ar    1  UNL1        0.0191
      9 C          -9.5886  -17.4420   25.8916 C.ar    1  UNL1        0.0015
     10 C          -8.4016  -16.5433   26.0754 C.ar    1  UNL1        0.0001
     11 C          -8.0575  -16.0252   27.4403 C.ar    1  UNL1        0.0000
     12 C          -6.8706  -15.1266   27.6241 C.ar    1  UNL1        0.0000
     13 C          -6.0279  -14.7462   26.4429 C.ar    1  UNL1        0.0000
     14 C          -6.3720  -15.2643   25.0780 C.ar    1  UNL1        0.0000
     15 C          -7.5589  -16.1629   24.8942 C.ar    1  UNL1        0.0015
     16 C          -7.9032  -16.6811   23.5293 C.ar    1  UNL1        0.0191
     17 O          -8.9576  -20.3183   18.8330 O.3     1  UNL1       -0.4577
     18 C          -7.5094  -20.6682   18.6594 C.3     1  UNL1        0.2244
     19 C          -6.7643  -21.3501   19.7684 C.3     1  UNL1        0.1202
     20 N          -5.6194  -20.6535   20.4422 N.3     1  UNL1       -0.2653
     21 C          -5.8189  -20.0043   21.7796 C.3     1  UNL1        0.1047
     22 C          -4.6740  -19.3076   22.4533 C.3     1  UNL1        0.1595
     23 O          -3.3297  -19.2603   21.7897 O.3     1  UNL1       -0.3508
     24 C          -3.1302  -19.9095   20.4523 C.3     1  UNL1        0.1595
     25 C          -4.2750  -20.6061   19.7785 C.3     1  UNL1        0.1047
@<TRIPOS>BOND
     1     1     2    1
     2     2     3   ar
     3     3     4   ar
     4     4    17    1
     5    17    18    1
     6    18    19    1
     7    19    20    1
     8    20    21    1
     9    21    22    1
    10    22    23    1
    11    23    24    1
    12    24    25    1
    13     4     5   ar
    14     5     6   ar
    15     6     7    1
    16     7     8   ar
    17     8     9   ar
    18     9    10   ar
    19    10    11   ar
    20    11    12   ar
    21    12    13   ar
    22    13    14   ar
    23    14    15   ar
    24    15    16   ar
    25     6     2   ar
    26    16     7   ar
    27    25    20    1
    28    15    10   ar
@<TRIPOS>MOLECULE
*****
 25 28 0 0 0
SMALL
GASTEIGER

@<TRIPOS>ATOM
      1 C          -6.2188  -21.3648   21.0434 C.3     1  UNL1        0.0523
      2 C          -6.9013  -20.1635   21.6274 C.ar    1  UNL1        0.0656
      3 C          -8.3562  -20.0595   21.9778 C.ar    1  UNL1        0.0739
      4 C          -8.6028  -18.6870   22.5305 C.ar    1  UNL1        0.2434
      5 N          -7.3005  -17.9427   22.5216 N.ar    1  UNL1       -0.1277
      6 N          -6.2490  -18.8552   21.9635 N.ar    1  UNL1       -0.2308
      7 C          -4.7994  -18.5187   21.7746 C.ar    1  UNL1        0.0825
      8 C          -3.9611  -18.1245   22.9544 C.ar    1  UNL1        0.0191
      9 C          -2.5116  -17.7880   22.7656 C.ar    1  UNL1        0.0015
     10 C          -1.9004  -17.8455   21.3969 C.ar    1  UNL1        0.0001
     11 C          -0.4509  -17.5089   21.2080 C.ar    1  UNL1        0.0000
     12 C           0.1602  -17.5665   19.8394 C.ar    1  UNL1        0.0000
     13 C          -0.6781  -17.9606   18.6597 C.ar    1  UNL1        0.0000
     14 C          -2.1276  -18.2972   18.8485 C.ar    1  UNL1        0.0000
     15 C          -2.7387  -18.2396   20.2171 C.ar    1  UNL1        0.0015
     16 C          -4.1883  -18.5762   20.4060 C.ar    1  UNL1        0.0191
     17 O          -9.9204  -18.1526   23.0081 O.3     1  UNL1       -0.4577
     18 C          -9.9969  -17.3864   24.2954 C.3     1  UNL1        0.2244
     19 C          -9.4491  -15.9921   24.3721 C.3     1  UNL1        0.1202
     20 N          -8.1594  -15.7314   25.0922 N.3     1  UNL1       -0.2653
     21 C          -6.9485  -15.2891   24.3255 C.3     1  UNL1        0.1047
     22 C          -5.6587  -15.0283   25.0456 C.3     1  UNL1        0.1595
     23 O          -5.5799  -15.2099   26.5324 O.3     1  UNL1       -0.3508
     24 C          -6.7909  -15.6522   27.2992 C.3     1  UNL1        0.1595
     25 C          -8.0806  -15.9130   26.5791 C.3     1  UNL1        0.1047
@<TRIPOS>BOND
     1     1     2    1
     2     2     3   ar
     3     3     4   ar
     4     4    17    1
     5    17    18    1
     6    18    19    1
     7    19    20    1
     8    20    21    1
     9    21    22    1
    10    22    23    1
    11    23    24    1
    12    24    25    1
    13     4     5   ar
    14     5     6   ar
    15     6     7    1
    16     7     8   ar
    17     8     9   ar
    18     9    10   ar
    19    10    11   ar
    20    11    12   ar
    21    12    13   ar
    22    13    14   ar
    23    14    15   ar
    24    15    16   ar
    25     6     2   ar
    26    16     7   ar
    27    25    20    1
    28    15    10   ar
