@<TRIPOS>MOLECULE
*****
 23 26 0 0 0
SMALL
GASTEIGER

@<TRIPOS>ATOM
      1 C          -8.7821  -17.2266   22.4370 C.3     1  UNL1        0.2082
      2 S          -9.2328  -16.5337   23.6886 S.3     1  UNL1       -0.0753
      3 C          -8.2304  -16.1523   24.7374 C.ar    1  UNL1        0.0443
      4 C          -8.6811  -15.4594   25.9890 C.ar    1  UNL1        0.0077
      5 C          -7.6787  -15.0781   27.0377 C.ar    1  UNL1        0.0006
      6 C          -6.2256  -15.3897   26.8347 C.ar    1  UNL1        0.0015
      7 C          -5.7748  -16.0826   25.5830 C.ar    1  UNL1        0.0182
      8 C          -6.7772  -16.4639   24.5344 C.ar    1  UNL1        0.0768
      9 N          -6.3265  -17.1569   23.2827 N.ar    1  UNL1       -0.2242
     10 C          -7.3289  -17.5382   22.2340 C.ar    1  UNL1        0.2069
     11 N          -6.5932  -18.2076   21.1112 N.ar    1  UNL1       -0.0545
     12 O          -5.1361  -18.2400   21.4660 O.2     1  UNL1       -0.2950
     13 C          -4.9713  -17.5906   22.8081 C.ar    1  UNL1        0.4472
     14 O          -3.6783  -17.4071   23.5459 O.2     1  UNL1       -0.2203
     15 C         -10.2565  -17.1459   22.1735 C.ar    1  UNL1        0.0189
     16 C         -10.7658  -16.3800   20.9885 C.ar    1  UNL1       -0.0007
     17 C         -12.2403  -16.2994   20.7250 C.ar    1  UNL1       -0.0002
     18 C         -13.2054  -16.9845   21.6465 C.ar    1  UNL1       -0.0000
     19 C         -12.6961  -17.7502   22.8314 C.ar    1  UNL1       -0.0002
     20 C         -11.2217  -17.8309   23.0949 C.ar    1  UNL1       -0.0007
     21 O          -8.8433  -17.8915   21.0938 O.3     1  UNL1       -0.3379
     22 C          -9.9703  -19.7744   19.7029 C.3     1  UNL1        0.0347
     23 C          -9.3352  -19.3037   20.9777 C.3     1  UNL1        0.1440
@<TRIPOS>BOND
     1    22    23    1
     2    23    21    1
     3    21     1    1
     4     1    15    1
     5    15    16   ar
     6    16    17   ar
     7    17    18   ar
     8    18    19   ar
     9    19    20   ar
    10     1     2    1
    11     2     3    1
    12     3     4   ar
    13     4     5   ar
    14     5     6   ar
    15     6     7   ar
    16     7     8   ar
    17     8     9    1
    18     9    10   ar
    19    10    11   ar
    20    11    12   ar
    21    12    13   ar
    22    13    14    2
    23    10     1    1
    24    20    15   ar
    25     8     3   ar
    26    13     9   ar
@<TRIPOS>MOLECULE
*****
 23 26 0 0 0
SMALL
GASTEIGER

@<TRIPOS>ATOM
      1 C          -8.3561  -17.6187   22.8723 C.3     1  UNL1        0.2082
      2 S          -7.3481  -18.4739   22.1634 S.3     1  UNL1       -0.0753
      3 C          -5.8828  -18.2628   22.4054 C.ar    1  UNL1        0.0443
      4 C          -4.8748  -19.1180   21.6965 C.ar    1  UNL1        0.0077
      5 C          -3.4096  -18.9069   21.9385 C.ar    1  UNL1        0.0006
      6 C          -2.9524  -17.8406   22.8894 C.ar    1  UNL1        0.0015
      7 C          -3.9605  -16.9855   23.5982 C.ar    1  UNL1        0.0182
      8 C          -5.4256  -17.1966   23.3562 C.ar    1  UNL1        0.0768
      9 N          -6.4338  -16.3414   24.0651 N.ar    1  UNL1       -0.2242
     10 C          -7.8990  -16.5525   23.8231 C.ar    1  UNL1        0.2069
     11 N          -8.6542  -15.5627   24.6597 N.ar    1  UNL1       -0.0545
     12 O          -7.6558  -14.7398   25.4186 O.2     1  UNL1       -0.2950
     13 C          -6.2834  -15.2211   25.0512 C.ar    1  UNL1        0.4472
     14 O          -4.9882  -14.6776   25.5774 O.2     1  UNL1       -0.2203
     15 C          -9.2741  -18.4935   22.0710 C.ar    1  UNL1        0.0189
     16 C         -10.2411  -19.4037   22.7685 C.ar    1  UNL1       -0.0007
     17 C         -11.1591  -20.2785   21.9671 C.ar    1  UNL1       -0.0002
     18 C         -11.1100  -20.2431   20.4684 C.ar    1  UNL1       -0.0000
     19 C         -10.1430  -19.3329   19.7709 C.ar    1  UNL1       -0.0002
     20 C          -9.2251  -18.4581   20.5722 C.ar    1  UNL1       -0.0007
     21 O          -9.6830  -17.0673   23.3028 O.3     1  UNL1       -0.3379
     22 C         -11.9593  -16.0913   22.5179 C.3     1  UNL1        0.0347
     23 C         -10.4699  -16.1933   22.3718 C.3     1  UNL1        0.1440
@<TRIPOS>BOND
     1    22    23    1
     2    23    21    1
     3    21     1    1
     4     1    15    1
     5    15    16   ar
     6    16    17   ar
     7    17    18   ar
     8    18    19   ar
     9    19    20   ar
    10     1     2    1
    11     2     3    1
    12     3     4   ar
    13     4     5   ar
    14     5     6   ar
    15     6     7   ar
    16     7     8   ar
    17     8     9    1
    18     9    10   ar
    19    10    11   ar
    20    11    12   ar
    21    12    13   ar
    22    13    14    2
    23    10     1    1
    24    20    15   ar
    25     8     3   ar
    26    13     9   ar
@<TRIPOS>MOLECULE
*****
 23 26 0 0 0
SMALL
GASTEIGER

@<TRIPOS>ATOM
      1 C          -8.0042  -17.3559   23.1311 C.3     1  UNL1        0.2082
      2 S          -8.1742  -18.5380   22.2235 S.3     1  UNL1       -0.0753
      3 C          -6.9704  -19.2019   21.6231 C.ar    1  UNL1        0.0443
      4 C          -7.1404  -20.3840   20.7156 C.ar    1  UNL1        0.0077
      5 C          -5.9368  -21.0479   20.1153 C.ar    1  UNL1        0.0006
      6 C          -4.5631  -20.5296   20.4225 C.ar    1  UNL1        0.0015
      7 C          -4.3931  -19.3475   21.3301 C.ar    1  UNL1        0.0182
      8 C          -5.5968  -18.6837   21.9304 C.ar    1  UNL1        0.0768
      9 N          -5.4268  -17.5015   22.8380 N.ar    1  UNL1       -0.2242
     10 C          -6.6305  -16.8377   23.4383 C.ar    1  UNL1        0.2069
     11 N          -6.1548  -15.6989   24.2909 N.ar    1  UNL1       -0.0545
     12 O          -4.6572  -15.6590   24.2175 O.2     1  UNL1       -0.2950
     13 C          -4.2072  -16.7731   23.3195 C.ar    1  UNL1        0.4472
     14 O          -2.7870  -17.1011   22.9653 O.2     1  UNL1       -0.2203
     15 C          -9.4991  -17.4784   23.1401 C.ar    1  UNL1        0.0189
     16 C         -10.3442  -16.3931   22.5416 C.ar    1  UNL1       -0.0007
     17 C         -11.8392  -16.5156   22.5506 C.ar    1  UNL1       -0.0002
     18 C         -12.4890  -17.7233   23.1581 C.ar    1  UNL1       -0.0000
     19 C         -11.6440  -18.8085   23.7565 C.ar    1  UNL1       -0.0002
     20 C         -10.1491  -18.6861   23.7475 C.ar    1  UNL1       -0.0007
     21 O          -8.3533  -16.2163   24.0418 O.3     1  UNL1       -0.3379
     22 C          -8.4581  -15.4512   26.5225 C.3     1  UNL1        0.0347
     23 C          -8.7279  -16.4846   25.4693 C.3     1  UNL1        0.1440
@<TRIPOS>BOND
     1    22    23    1
     2    23    21    1
     3    21     1    1
     4     1    15    1
     5    15    16   ar
     6    16    17   ar
     7    17    18   ar
     8    18    19   ar
     9    19    20   ar
    10     1     2    1
    11     2     3    1
    12     3     4   ar
    13     4     5   ar
    14     5     6   ar
    15     6     7   ar
    16     7     8   ar
    17     8     9    1
    18     9    10   ar
    19    10    11   ar
    20    11    12   ar
    21    12    13   ar
    22    13    14    2
    23    10     1    1
    24    20    15   ar
    25     8     3   ar
    26    13     9   ar
@<TRIPOS>MOLECULE
*****
 23 26 0 0 0
SMALL
GASTEIGER

@<TRIPOS>ATOM
      1 C          -6.3299  -18.1484   22.2842 C.3     1  UNL1        0.2082
      2 S          -7.4891  -19.0240   21.9107 S.3     1  UNL1       -0.0753
      3 C          -8.8537  -18.7384   22.4644 C.ar    1  UNL1        0.0443
      4 C         -10.0129  -19.6140   22.0909 C.ar    1  UNL1        0.0077
      5 C         -11.3774  -19.3284   22.6445 C.ar    1  UNL1        0.0006
      6 C         -11.5826  -18.1673   23.5716 C.ar    1  UNL1        0.0015
      7 C         -10.4234  -17.2917   23.9451 C.ar    1  UNL1        0.0182
      8 C          -9.0589  -17.5773   23.3915 C.ar    1  UNL1        0.0768
      9 N          -7.8996  -16.7017   23.7650 N.ar    1  UNL1       -0.2242
     10 C          -6.5351  -16.9873   23.2114 C.ar    1  UNL1        0.2069
     11 N          -5.5897  -15.9571   23.7545 N.ar    1  UNL1       -0.0545
     12 O          -6.3699  -15.0349   24.6437 O.2     1  UNL1       -0.2950
     13 C          -7.7975  -15.4951   24.6502 C.ar    1  UNL1        0.4472
     14 O          -8.9251  -14.8601   25.4088 O.2     1  UNL1       -0.2203
     15 C          -5.6386  -19.1230   21.3775 C.ar    1  UNL1        0.0189
     16 C          -4.5144  -18.6617   20.4979 C.ar    1  UNL1       -0.0007
     17 C          -3.8232  -19.6364   19.5911 C.ar    1  UNL1       -0.0002
     18 C          -4.2561  -21.0723   19.5639 C.ar    1  UNL1       -0.0000
     19 C          -5.3802  -21.5335   20.4434 C.ar    1  UNL1       -0.0002
     20 C          -6.0714  -20.5589   21.3502 C.ar    1  UNL1       -0.0007
     21 O          -4.9306  -17.6113   22.3428 O.3     1  UNL1       -0.3379
     22 C          -2.4788  -17.8560   23.1669 C.3     1  UNL1        0.0347
     23 C          -3.9275  -18.2309   23.2702 C.3     1  UNL1        0.1440
@<TRIPOS>BOND
     1    22    23    1
     2    23    21    1
     3    21     1    1
     4     1    15    1
     5    15    16   ar
     6    16    17   ar
     7    17    18   ar
     8    18    19   ar
     9    19    20   ar
    10     1     2    1
    11     2     3    1
    12     3     4   ar
    13     4     5   ar
    14     5     6   ar
    15     6     7   ar
    16     7     8   ar
    17     8     9    1
    18     9    10   ar
    19    10    11   ar
    20    11    12   ar
    21    12    13   ar
    22    13    14    2
    23    10     1    1
    24    20    15   ar
    25     8     3   ar
    26    13     9   ar
@<TRIPOS>MOLECULE
*****
 23 26 0 0 0
SMALL
GASTEIGER

@<TRIPOS>ATOM
      1 C          -7.8798  -19.0474   21.2924 C.3     1  UNL1        0.2082
      2 S          -6.9449  -18.1592   22.0585 S.3     1  UNL1       -0.0753
      3 C          -7.4902  -17.1697   23.0453 C.ar    1  UNL1        0.0443
      4 C          -6.5553  -16.2815   23.8114 C.ar    1  UNL1        0.0077
      5 C          -7.1006  -15.2921   24.7981 C.ar    1  UNL1        0.0006
      6 C          -8.5808  -15.1909   25.0187 C.ar    1  UNL1        0.0015
      7 C          -9.5158  -16.0790   24.2526 C.ar    1  UNL1        0.0182
      8 C          -8.9704  -17.0685   23.2659 C.ar    1  UNL1        0.0768
      9 N          -9.9054  -17.9567   22.4997 N.ar    1  UNL1       -0.2242
     10 C          -9.3601  -18.9461   21.5130 C.ar    1  UNL1        0.2069
     11 N         -10.5177  -19.6840   20.9085 N.ar    1  UNL1       -0.0545
     12 O         -11.7785  -19.1505   21.5216 O.2     1  UNL1       -0.2950
     13 C         -11.4000  -18.0830   22.5050 C.ar    1  UNL1        0.4472
     14 O         -12.3495  -17.2824   23.3461 O.2     1  UNL1       -0.2203
     15 C          -6.5659  -19.5133   20.7390 C.ar    1  UNL1        0.0189
     16 C          -5.5885  -18.5174   20.1882 C.ar    1  UNL1       -0.0007
     17 C          -4.2745  -18.9834   19.6348 C.ar    1  UNL1       -0.0002
     18 C          -3.9377  -20.4450   19.6322 C.ar    1  UNL1       -0.0000
     19 C          -4.9150  -21.4408   20.1830 C.ar    1  UNL1       -0.0002
     20 C          -6.2290  -20.9749   20.7364 C.ar    1  UNL1       -0.0007
     21 O          -8.3584  -20.0974   20.3340 O.3     1  UNL1       -0.3379
     22 C          -8.9208  -20.8331   17.9066 C.3     1  UNL1        0.0347
     23 C          -8.5562  -19.7576   18.8865 C.3     1  UNL1        0.1440
@<TRIPOS>BOND
     1    22    23    1
     2    23    21    1
     3    21     1    1
     4     1    15    1
     5    15    16   ar
     6    16    17   ar
     7    17    18   ar
     8    18    19   ar
     9    19    20   ar
    10     1     2    1
    11     2     3    1
    12     3     4   ar
    13     4     5   ar
    14     5     6   ar
    15     6     7   ar
    16     7     8   ar
    17     8     9    1
    18     9    10   ar
    19    10    11   ar
    20    11    12   ar
    21    12    13   ar
    22    13    14    2
    23    10     1    1
    24    20    15   ar
    25     8     3   ar
    26    13     9   ar
@<TRIPOS>MOLECULE
*****
 23 26 0 0 0
SMALL
GASTEIGER

@<TRIPOS>ATOM
      1 C          -7.4588  -18.4407   22.4219 C.3     1  UNL1        0.2082
      2 S          -7.0858  -19.5509   21.4849 S.3     1  UNL1       -0.0753
      3 C          -5.6512  -19.7546   21.0966 C.ar    1  UNL1        0.0443
      4 C          -5.2782  -20.8648   20.1596 C.ar    1  UNL1        0.0077
      5 C          -3.8437  -21.0684   19.7714 C.ar    1  UNL1        0.0006
      6 C          -2.7822  -20.1617   20.3202 C.ar    1  UNL1        0.0015
      7 C          -3.1553  -19.0514   21.2573 C.ar    1  UNL1        0.0182
      8 C          -4.5898  -18.8478   21.6455 C.ar    1  UNL1        0.0768
      9 N          -4.9629  -17.7375   22.5826 N.ar    1  UNL1       -0.2242
     10 C          -6.3974  -17.5340   22.9708 C.ar    1  UNL1        0.2069
     11 N          -6.4627  -16.3635   23.9066 N.ar    1  UNL1       -0.0545
     12 O          -5.0685  -15.8438   24.0968 O.2     1  UNL1       -0.2950
     13 C          -4.1416  -16.6930   23.2784 C.ar    1  UNL1        0.4472
     14 O          -2.6545  -16.5267   23.1743 O.2     1  UNL1       -0.2203
     15 C          -8.8131  -19.0333   22.1679 C.ar    1  UNL1        0.0189
     16 C          -9.5848  -19.6517   23.2959 C.ar    1  UNL1       -0.0007
     17 C         -10.9392  -20.2443   23.0418 C.ar    1  UNL1       -0.0002
     18 C         -11.5219  -20.2185   21.6599 C.ar    1  UNL1       -0.0000
     19 C         -10.7502  -19.6001   20.5320 C.ar    1  UNL1       -0.0002
     20 C          -9.3959  -19.0075   20.7860 C.ar    1  UNL1       -0.0007
     21 O          -8.3022  -17.5362   23.2708 O.3     1  UNL1       -0.3379
     22 C         -10.5140  -16.1878   23.0710 C.3     1  UNL1        0.0347
     23 C          -9.1016  -16.4390   22.6328 C.3     1  UNL1        0.1440
@<TRIPOS>BOND
     1    22    23    1
     2    23    21    1
     3    21     1    1
     4     1    15    1
     5    15    16   ar
     6    16    17   ar
     7    17    18   ar
     8    18    19   ar
     9    19    20   ar
    10     1     2    1
    11     2     3    1
    12     3     4   ar
    13     4     5   ar
    14     5     6   ar
    15     6     7   ar
    16     7     8   ar
    17     8     9    1
    18     9    10   ar
    19    10    11   ar
    20    11    12   ar
    21    12    13   ar
    22    13    14    2
    23    10     1    1
    24    20    15   ar
    25     8     3   ar
    26    13     9   ar
@<TRIPOS>MOLECULE
*****
 23 26 0 0 0
SMALL
GASTEIGER

@<TRIPOS>ATOM
      1 C         -11.7134   -3.8420   18.4377 C.3     1  UNL1        0.2082
      2 S         -12.8386   -4.7365   18.8662 S.3     1  UNL1       -0.0753
      3 C         -14.1901   -4.1545   19.1578 C.ar    1  UNL1        0.0443
      4 C         -15.3153   -5.0490   19.5863 C.ar    1  UNL1        0.0077
      5 C         -16.6667   -4.4670   19.8778 C.ar    1  UNL1        0.0006
      6 C         -16.8928   -2.9905   19.7408 C.ar    1  UNL1        0.0015
      7 C         -15.7676   -2.0960   19.3123 C.ar    1  UNL1        0.0182
      8 C         -14.4162   -2.6780   19.0208 C.ar    1  UNL1        0.0768
      9 N         -13.2909   -1.7835   18.5922 N.ar    1  UNL1       -0.2242
     10 C         -11.9395   -2.3655   18.3007 C.ar    1  UNL1        0.2069
     11 N         -11.0283   -1.2434   17.9001 N.ar    1  UNL1       -0.0545
     12 O         -11.8164    0.0320   17.9440 O.2     1  UNL1       -0.2950
     13 C         -13.2149   -0.3018   18.3718 C.ar    1  UNL1        0.4472
     14 O         -14.3397    0.6747   18.5481 O.2     1  UNL1       -0.2203
     15 C         -11.0119   -5.1677   18.4243 C.ar    1  UNL1        0.0189
     16 C          -9.7926   -5.3798   19.2720 C.ar    1  UNL1       -0.0007
     17 C          -9.0910   -6.7056   19.2586 C.ar    1  UNL1       -0.0002
     18 C          -9.6087   -7.8193   18.3975 C.ar    1  UNL1       -0.0000
     19 C         -10.8279   -7.6073   17.5498 C.ar    1  UNL1       -0.0002
     20 C         -11.5294   -6.2816   17.5632 C.ar    1  UNL1       -0.0007
     21 O         -10.3445   -3.4079   18.0045 O.3     1  UNL1       -0.3379
     22 C          -8.6839   -3.8472   16.0553 C.3     1  UNL1        0.0347
     23 C         -10.0069   -3.3373   16.5447 C.3     1  UNL1        0.1440
@<TRIPOS>BOND
     1    22    23    1
     2    23    21    1
     3    21     1    1
     4     1    15    1
     5    15    16   ar
     6    16    17   ar
     7    17    18   ar
     8    18    19   ar
     9    19    20   ar
    10     1     2    1
    11     2     3    1
    12     3     4   ar
    13     4     5   ar
    14     5     6   ar
    15     6     7   ar
    16     7     8   ar
    17     8     9    1
    18     9    10   ar
    19    10    11   ar
    20    11    12   ar
    21    12    13   ar
    22    13    14    2
    23    10     1    1
    24    20    15   ar
    25     8     3   ar
    26    13     9   ar
@<TRIPOS>MOLECULE
*****
 23 26 0 0 0
SMALL
GASTEIGER

@<TRIPOS>ATOM
      1 C         -14.8756   -6.2737   18.9201 C.3     1  UNL1        0.2082
      2 S         -13.6311   -7.1108   18.9029 S.3     1  UNL1       -0.0753
      3 C         -12.2836   -6.4518   18.9235 C.ar    1  UNL1        0.0443
      4 C         -11.0391   -7.2889   18.9062 C.ar    1  UNL1        0.0077
      5 C          -9.6917   -6.6299   18.9269 C.ar    1  UNL1        0.0006
      6 C          -9.5890   -5.1339   18.9647 C.ar    1  UNL1        0.0015
      7 C         -10.8336   -4.2969   18.9820 C.ar    1  UNL1        0.0182
      8 C         -12.1809   -4.9558   18.9613 C.ar    1  UNL1        0.0768
      9 N         -13.4256   -4.1188   18.9786 N.ar    1  UNL1       -0.2242
     10 C         -14.7729   -4.7777   18.9580 C.ar    1  UNL1        0.2069
     11 N         -15.8162   -3.7003   18.9819 N.ar    1  UNL1       -0.0545
     12 O         -15.1137   -2.3755   19.0172 O.2     1  UNL1       -0.2950
     13 C         -13.6361   -2.6341   19.0152 C.ar    1  UNL1        0.4472
     14 O         -12.5584   -1.5912   19.0447 O.2     1  UNL1       -0.2203
     15 C         -15.4840   -7.6443   18.8838 C.ar    1  UNL1        0.0189
     16 C         -14.9916   -8.6575   17.8932 C.ar    1  UNL1       -0.0007
     17 C         -15.6000  -10.0281   17.8570 C.ar    1  UNL1       -0.0002
     18 C         -16.7007  -10.3856   18.8113 C.ar    1  UNL1       -0.0000
     19 C         -17.1930   -9.3724   19.8018 C.ar    1  UNL1       -0.0002
     20 C         -16.5846   -8.0019   19.8381 C.ar    1  UNL1       -0.0007
     21 O         -16.3315   -5.9127   18.9248 O.3     1  UNL1       -0.3379
     22 C         -18.5937   -5.8261   17.6500 C.3     1  UNL1        0.0347
     23 C         -17.0941   -5.8549   17.6344 C.3     1  UNL1        0.1440
@<TRIPOS>BOND
     1    22    23    1
     2    23    21    1
     3    21     1    1
     4     1    15    1
     5    15    16   ar
     6    16    17   ar
     7    17    18   ar
     8    18    19   ar
     9    19    20   ar
    10     1     2    1
    11     2     3    1
    12     3     4   ar
    13     4     5   ar
    14     5     6   ar
    15     6     7   ar
    16     7     8   ar
    17     8     9    1
    18     9    10   ar
    19    10    11   ar
    20    11    12   ar
    21    12    13   ar
    22    13    14    2
    23    10     1    1
    24    20    15   ar
    25     8     3   ar
    26    13     9   ar
@<TRIPOS>MOLECULE
*****
 23 26 0 0 0
SMALL
GASTEIGER

@<TRIPOS>ATOM
      1 C          -6.1873  -18.3902   21.6184 C.3     1  UNL1        0.2082
      2 S          -5.4161  -17.6313   22.6573 S.3     1  UNL1       -0.0753
      3 C          -6.1428  -16.7966   23.6699 C.ar    1  UNL1        0.0443
      4 C          -5.3716  -16.0377   24.7088 C.ar    1  UNL1        0.0077
      5 C          -6.0982  -15.2030   25.7213 C.ar    1  UNL1        0.0006
      6 C          -7.5961  -15.1272   25.6949 C.ar    1  UNL1        0.0015
      7 C          -8.3673  -15.8860   24.6560 C.ar    1  UNL1        0.0182
      8 C          -7.6406  -16.7207   23.6435 C.ar    1  UNL1        0.0768
      9 N          -8.4118  -17.4796   22.6045 N.ar    1  UNL1       -0.2242
     10 C          -7.6852  -18.3143   21.5920 C.ar    1  UNL1        0.2069
     11 N          -8.7066  -18.9473   20.6942 N.ar    1  UNL1       -0.0545
     12 O         -10.0644  -18.5037   21.1518 O.2     1  UNL1       -0.2950
     13 C          -9.8823  -17.5967   22.3325 C.ar    1  UNL1        0.4472
     14 O         -10.9782  -16.9247   23.1054 O.2     1  UNL1       -0.2203
     15 C          -4.7886  -18.7761   21.2381 C.ar    1  UNL1        0.0189
     16 C          -3.8445  -19.2971   22.2810 C.ar    1  UNL1       -0.0007
     17 C          -2.4458  -19.6830   21.9006 C.ar    1  UNL1       -0.0002
     18 C          -1.9912  -19.5480   20.4776 C.ar    1  UNL1       -0.0000
     19 C          -2.9352  -19.0271   19.4349 C.ar    1  UNL1       -0.0002
     20 C          -4.3339  -18.6411   19.8151 C.ar    1  UNL1       -0.0007
     21 O          -6.4728  -19.2830   20.4474 O.3     1  UNL1       -0.3379
     22 C          -6.6440  -21.6659   19.4261 C.3     1  UNL1        0.0347
     23 C          -6.2889  -20.7664   20.5728 C.3     1  UNL1        0.1440
@<TRIPOS>BOND
     1    22    23    1
     2    23    21    1
     3    21     1    1
     4     1    15    1
     5    15    16   ar
     6    16    17   ar
     7    17    18   ar
     8    18    19   ar
     9    19    20   ar
    10     1     2    1
    11     2     3    1
    12     3     4   ar
    13     4     5   ar
    14     5     6   ar
    15     6     7   ar
    16     7     8   ar
    17     8     9    1
    18     9    10   ar
    19    10    11   ar
    20    11    12   ar
    21    12    13   ar
    22    13    14    2
    23    10     1    1
    24    20    15   ar
    25     8     3   ar
    26    13     9   ar
