@<TRIPOS>MOLECULE
*****
 28 31 0 0 0
SMALL
GASTEIGER

@<TRIPOS>ATOM
      1 C          -8.0784  -19.1356   20.3733 C.ar    1  UNL1        0.0284
      2 C          -7.2426  -20.3648   20.1722 C.ar    1  UNL1        0.0027
      3 C          -5.9505  -20.5234   20.9172 C.ar    1  UNL1        0.0339
      4 C          -5.4940  -19.4528   21.8635 C.ar    1  UNL1        0.1311
      5 N          -6.3298  -18.2235   22.0646 N.ar    1  UNL1       -0.2035
      6 C          -7.6220  -18.0648   21.3196 C.ar    1  UNL1        0.2196
      7 F          -8.4577  -16.8356   21.5208 F       1  UNL1       -0.1835
      8 N          -4.2018  -19.6114   22.6085 N.pl3   1  UNL1       -0.3144
      9 H          -4.0403  -20.4193   23.1474 H       1  UNL1        0.1485
     10 C          -3.1557  -18.5390   22.5325 C.3     1  UNL1        0.1155
     11 C          -2.3927  -18.3246   21.2590 C.ar    1  UNL1        0.0028
     12 C          -3.0516  -18.5851   19.9369 C.ar    1  UNL1        0.0182
     13 C          -2.2886  -18.3707   18.6634 C.ar    1  UNL1        0.1010
     14 N          -0.8666  -17.8957   18.7120 N.ar    1  UNL1       -0.2165
     15 C          -0.2077  -17.6353   20.0341 C.ar    1  UNL1        0.2221
     16 F           1.2144  -17.1603   20.0827 F       1  UNL1       -0.1832
     17 C          -0.9707  -17.8497   21.3075 C.ar    1  UNL1        0.0471
     18 C          -9.3706  -18.9769   19.6283 C.3     1  UNL1        0.0603
     19 C         -10.3229  -20.3548   25.2839 C.3     1  UNL1        0.0307
     20 C         -10.9580  -19.5379   24.1979 C.2     1  UNL1        0.0074
     21 C         -12.2237  -18.7810   24.4716 C.2     1  UNL1        0.2278
     22 N         -12.8588  -17.9641   23.3856 N.2     1  UNL1       -0.0314
     23 C         -12.2281  -17.9042   22.0260 C.2     1  UNL1        0.3716
     24 N         -12.6217  -17.1888   20.7676 N.2     1  UNL1       -0.0311
     25 C         -11.5991  -17.5036   19.7163 C.2     1  UNL1        0.2319
     26 C         -10.5736  -18.4135   20.3248 C.2     1  UNL1        0.0328
     27 C         -10.9624  -18.6610   21.7523 C.2     1  UNL1        0.0704
     28 C         -10.3273  -19.4779   22.8383 C.3     1  UNL1        0.0598
@<TRIPOS>BOND
     1    19    20    1
     2    20    21    2
     3    21    22    1
     4    22    23    2
     5    23    24    1
     6    24    25    2
     7    25    26    1
     8    26    18    1
     9    18     1    1
    10     1     2   ar
    11     2     3   ar
    12     3     4   ar
    13     4     8    1
    14     8    10    1
    15    10    11    1
    16    11    12   ar
    17    12    13   ar
    18    13    14   ar
    19    14    15   ar
    20    15    16    1
    21    15    17   ar
    22     4     5   ar
    23     5     6   ar
    24     6     7    1
    25    26    27    2
    26    27    28    1
    27    28    20    1
    28    27    23    1
    29     6     1   ar
    30    17    11   ar
    31     8     9    1
@<TRIPOS>MOLECULE
*****
 28 31 0 0 0
SMALL
GASTEIGER

@<TRIPOS>ATOM
      1 C          -7.0080  -20.1625   21.0143 C.ar    1  UNL1        0.0284
      2 C          -7.4141  -20.3272   22.4488 C.ar    1  UNL1        0.0027
      3 C          -8.6855  -19.7046   22.9446 C.ar    1  UNL1        0.0339
      4 C          -9.5509  -18.9172   22.0059 C.ar    1  UNL1        0.1311
      5 N          -9.1447  -18.7526   20.5713 N.ar    1  UNL1       -0.2035
      6 C          -7.8733  -19.3752   20.0755 C.ar    1  UNL1        0.2196
      7 F          -7.4673  -19.2105   18.6409 F       1  UNL1       -0.1835
      8 N         -10.8223  -18.2946   22.5017 N.pl3   1  UNL1       -0.3144
      9 H         -11.6529  -18.8227   22.5243 H       1  UNL1        0.1485
     10 C         -10.8283  -16.8673   22.9630 C.3     1  UNL1        0.1155
     11 C          -9.5799  -16.2562   23.5268 C.ar    1  UNL1        0.0028
     12 C          -8.5053  -15.7602   22.6053 C.ar    1  UNL1        0.0182
     13 C          -7.2569  -15.1491   23.1691 C.ar    1  UNL1        0.1010
     14 N          -7.0830  -15.0338   24.6545 N.ar    1  UNL1       -0.2165
     15 C          -8.1576  -15.5298   25.5761 C.ar    1  UNL1        0.2221
     16 F          -7.9838  -15.4146   27.0615 F       1  UNL1       -0.1832
     17 C          -9.4060  -16.1409   25.0122 C.ar    1  UNL1        0.0471
     18 C          -5.7366  -20.7851   20.5185 C.3     1  UNL1        0.0603
     19 C          -4.2454  -16.8265   24.6292 C.3     1  UNL1        0.0307
     20 C          -3.7523  -17.3142   23.2991 C.2     1  UNL1        0.0074
     21 C          -2.5181  -16.7163   22.6916 C.2     1  UNL1        0.2278
     22 N          -2.0250  -17.2039   21.3615 N.2     1  UNL1       -0.0314
     23 C          -2.7663  -18.2894   20.6389 C.2     1  UNL1        0.3716
     24 N          -2.5212  -18.9685   19.3241 N.2     1  UNL1       -0.0311
     25 C          -3.6040  -19.9860   19.1189 C.2     1  UNL1        0.2319
     26 C          -4.5184  -19.9359   20.3070 C.2     1  UNL1        0.0328
     27 C          -4.0006  -18.8873   21.2464 C.2     1  UNL1        0.0704
     28 C          -4.4936  -18.3996   22.5765 C.3     1  UNL1        0.0598
@<TRIPOS>BOND
     1    19    20    1
     2    20    21    2
     3    21    22    1
     4    22    23    2
     5    23    24    1
     6    24    25    2
     7    25    26    1
     8    26    18    1
     9    18     1    1
    10     1     2   ar
    11     2     3   ar
    12     3     4   ar
    13     4     8    1
    14     8    10    1
    15    10    11    1
    16    11    12   ar
    17    12    13   ar
    18    13    14   ar
    19    14    15   ar
    20    15    16    1
    21    15    17   ar
    22     4     5   ar
    23     5     6   ar
    24     6     7    1
    25    26    27    2
    26    27    28    1
    27    28    20    1
    28    27    23    1
    29     6     1   ar
    30    17    11   ar
    31     8     9    1
@<TRIPOS>MOLECULE
*****
 28 31 0 0 0
SMALL
GASTEIGER

@<TRIPOS>ATOM
      1 C          -8.7048  -17.1220   24.0984 C.ar    1  UNL1        0.0284
      2 C          -7.9159  -17.9195   23.1027 C.ar    1  UNL1        0.0027
      3 C          -6.4764  -17.5852   22.8455 C.ar    1  UNL1        0.0339
      4 C          -5.8258  -16.4533   23.5840 C.ar    1  UNL1        0.1311
      5 N          -6.6148  -15.6557   24.5797 N.ar    1  UNL1       -0.2035
      6 C          -8.0543  -15.9900   24.8369 C.ar    1  UNL1        0.2196
      7 F          -8.8431  -15.1923   25.8327 F       1  UNL1       -0.1835
      8 N          -4.3864  -16.1190   23.3268 N.pl3   1  UNL1       -0.3144
      9 H          -4.1072  -15.1788   23.2400 H       1  UNL1        0.1485
     10 C          -3.3722  -17.2170   23.2018 C.3     1  UNL1        0.1155
     11 C          -2.8721  -17.6255   21.8479 C.ar    1  UNL1        0.0028
     12 C          -1.7229  -16.8936   21.2205 C.ar    1  UNL1        0.0182
     13 C          -1.2229  -17.3022   19.8666 C.ar    1  UNL1        0.1010
     14 N          -1.8721  -18.4426   19.1400 N.ar    1  UNL1       -0.2165
     15 C          -3.0213  -19.1745   19.7674 C.ar    1  UNL1        0.2221
     16 F          -3.6705  -20.3150   19.0408 F       1  UNL1       -0.1832
     17 C          -3.5213  -18.7660   21.1213 C.ar    1  UNL1        0.0471
     18 C         -10.1443  -17.4563   24.3556 C.3     1  UNL1        0.0603
     19 C          -9.2525  -13.9474   19.6989 C.3     1  UNL1        0.0307
     20 C         -10.2425  -14.9720   20.1681 C.2     1  UNL1        0.0074
     21 C         -11.4203  -15.3254   19.3091 C.2     1  UNL1        0.2278
     22 N         -12.4103  -16.3500   19.7782 N.2     1  UNL1       -0.0314
     23 C         -12.2225  -17.0212   21.1064 C.2     1  UNL1        0.3716
     24 N         -13.0269  -18.0616   21.8279 N.2     1  UNL1       -0.0311
     25 C         -12.3463  -18.3512   23.1329 C.2     1  UNL1        0.2319
     26 C         -11.1213  -17.4898   23.2179 C.2     1  UNL1        0.0328
     27 C         -11.0448  -16.6678   21.9654 C.2     1  UNL1        0.0704
     28 C         -10.0548  -15.6433   21.4963 C.3     1  UNL1        0.0598
@<TRIPOS>BOND
     1    19    20    1
     2    20    21    2
     3    21    22    1
     4    22    23    2
     5    23    24    1
     6    24    25    2
     7    25    26    1
     8    26    18    1
     9    18     1    1
    10     1     2   ar
    11     2     3   ar
    12     3     4   ar
    13     4     8    1
    14     8    10    1
    15    10    11    1
    16    11    12   ar
    17    12    13   ar
    18    13    14   ar
    19    14    15   ar
    20    15    16    1
    21    15    17   ar
    22     4     5   ar
    23     5     6   ar
    24     6     7    1
    25    26    27    2
    26    27    28    1
    27    28    20    1
    28    27    23    1
    29     6     1   ar
    30    17    11   ar
    31     8     9    1
@<TRIPOS>MOLECULE
*****
 28 31 0 0 0
SMALL
GASTEIGER

@<TRIPOS>ATOM
      1 C         -10.2848  -17.7722   24.2194 C.ar    1  UNL1        0.0284
      2 C          -9.9638  -16.3388   23.9161 C.ar    1  UNL1        0.0027
      3 C          -9.1059  -15.5467   24.8577 C.ar    1  UNL1        0.0339
      4 C          -8.5689  -16.1882   26.1028 C.ar    1  UNL1        0.1311
      5 N          -8.8900  -17.6218   26.4061 N.ar    1  UNL1       -0.2035
      6 C          -9.7479  -18.4138   25.4645 C.ar    1  UNL1        0.2196
      7 F         -10.0688  -19.8473   25.7679 F       1  UNL1       -0.1835
      8 N          -7.7110  -15.3962   27.0444 N.pl3   1  UNL1       -0.3144
      9 H          -8.1283  -14.7973   27.7051 H       1  UNL1        0.1485
     10 C          -6.2173  -15.5167   26.9796 C.3     1  UNL1        0.1155
     11 C          -5.5411  -15.7612   25.6632 C.ar    1  UNL1        0.0028
     12 C          -5.7301  -14.7946   24.5319 C.ar    1  UNL1        0.0182
     13 C          -5.0538  -15.0392   23.2155 C.ar    1  UNL1        0.1010
     14 N          -4.1886  -16.2504   23.0304 N.ar    1  UNL1       -0.2165
     15 C          -3.9995  -17.2170   24.1617 C.ar    1  UNL1        0.2221
     16 F          -3.1343  -18.4282   23.9766 F       1  UNL1       -0.1832
     17 C          -4.6758  -16.9725   25.4780 C.ar    1  UNL1        0.0471
     18 C         -11.1427  -18.5642   23.2778 C.3     1  UNL1        0.0603
     19 C          -5.5118  -19.8019   22.0316 C.3     1  UNL1        0.0307
     20 C          -6.8049  -19.5723   21.3070 C.2     1  UNL1        0.0074
     21 C          -6.8485  -19.6443   19.8093 C.2     1  UNL1        0.2278
     22 N          -8.1416  -19.4147   19.0847 N.2     1  UNL1       -0.0314
     23 C          -9.3912  -19.1132   19.8577 C.2     1  UNL1        0.3716
     24 N         -10.8009  -18.8438   19.4216 N.2     1  UNL1       -0.0311
     25 C         -11.6286  -18.6054   20.6496 C.2     1  UNL1        0.2319
     26 C         -10.7305  -18.7274   21.8448 C.2     1  UNL1        0.0328
     27 C          -9.3477  -19.0413   21.3553 C.2     1  UNL1        0.0704
     28 C          -8.0545  -19.2708   22.0800 C.3     1  UNL1        0.0598
@<TRIPOS>BOND
     1    19    20    1
     2    20    21    2
     3    21    22    1
     4    22    23    2
     5    23    24    1
     6    24    25    2
     7    25    26    1
     8    26    18    1
     9    18     1    1
    10     1     2   ar
    11     2     3   ar
    12     3     4   ar
    13     4     8    1
    14     8    10    1
    15    10    11    1
    16    11    12   ar
    17    12    13   ar
    18    13    14   ar
    19    14    15   ar
    20    15    16    1
    21    15    17   ar
    22     4     5   ar
    23     5     6   ar
    24     6     7    1
    25    26    27    2
    26    27    28    1
    27    28    20    1
    28    27    23    1
    29     6     1   ar
    30    17    11   ar
    31     8     9    1
@<TRIPOS>MOLECULE
*****
 28 31 0 0 0
SMALL
GASTEIGER

@<TRIPOS>ATOM
      1 C          -7.1824  -16.4915   23.1047 C.ar    1  UNL1        0.0284
      2 C          -7.2095  -17.7865   22.3484 C.ar    1  UNL1        0.0027
      3 C          -5.9962  -18.6682   22.3270 C.ar    1  UNL1        0.0339
      4 C          -4.7557  -18.2548   23.0620 C.ar    1  UNL1        0.1311
      5 N          -4.7286  -16.9597   23.8184 N.ar    1  UNL1       -0.2035
      6 C          -5.9419  -16.0781   23.8398 C.ar    1  UNL1        0.2196
      7 F          -5.9148  -14.7830   24.5962 F       1  UNL1       -0.1835
      8 N          -3.5423  -19.1365   23.0406 N.pl3   1  UNL1       -0.3144
      9 H          -3.0028  -19.2513   23.8561 H       1  UNL1        0.1485
     10 C          -3.1510  -19.8432   21.7768 C.3     1  UNL1        0.1155
     11 C          -2.4169  -19.1016   20.6993 C.ar    1  UNL1        0.0028
     12 C          -3.0492  -18.9166   19.3517 C.ar    1  UNL1        0.0182
     13 C          -2.3151  -18.1750   18.2742 C.ar    1  UNL1        0.1010
     14 N          -0.9487  -17.6183   18.5442 N.ar    1  UNL1       -0.2165
     15 C          -0.3164  -17.8033   19.8918 C.ar    1  UNL1        0.2221
     16 F           1.0501  -17.2465   20.1618 F       1  UNL1       -0.1832
     17 C          -1.0505  -18.5449   20.9693 C.ar    1  UNL1        0.0471
     18 C          -8.3958  -15.6098   23.1261 C.3     1  UNL1        0.0603
     19 C         -13.1830  -18.7002   24.6504 C.3     1  UNL1        0.0307
     20 C         -12.6418  -17.9718   23.4561 C.2     1  UNL1        0.0074
     21 C         -13.4370  -17.9201   22.1853 C.2     1  UNL1        0.2278
     22 N         -12.8957  -17.1917   20.9909 N.2     1  UNL1       -0.0314
     23 C         -11.5592  -16.5151   21.0673 C.2     1  UNL1        0.3716
     24 N         -10.7739  -15.7276   20.0608 N.2     1  UNL1       -0.0311
     25 C          -9.4932  -15.2927   20.7095 C.2     1  UNL1        0.2319
     26 C          -9.4871  -15.8113   22.1170 C.2     1  UNL1        0.0328
     27 C         -10.7640  -16.5668   22.3381 C.2     1  UNL1        0.0704
     28 C         -11.3053  -17.2952   23.5325 C.3     1  UNL1        0.0598
@<TRIPOS>BOND
     1    19    20    1
     2    20    21    2
     3    21    22    1
     4    22    23    2
     5    23    24    1
     6    24    25    2
     7    25    26    1
     8    26    18    1
     9    18     1    1
    10     1     2   ar
    11     2     3   ar
    12     3     4   ar
    13     4     8    1
    14     8    10    1
    15    10    11    1
    16    11    12   ar
    17    12    13   ar
    18    13    14   ar
    19    14    15   ar
    20    15    16    1
    21    15    17   ar
    22     4     5   ar
    23     5     6   ar
    24     6     7    1
    25    26    27    2
    26    27    28    1
    27    28    20    1
    28    27    23    1
    29     6     1   ar
    30    17    11   ar
    31     8     9    1
@<TRIPOS>MOLECULE
*****
 28 31 0 0 0
SMALL
GASTEIGER

@<TRIPOS>ATOM
      1 C          -7.0761  -19.3126   21.9727 C.ar    1  UNL1        0.0284
      2 C          -6.9912  -18.0113   22.7139 C.ar    1  UNL1        0.0027
      3 C          -5.6566  -17.4791   23.1446 C.ar    1  UNL1        0.0339
      4 C          -4.4068  -18.2482   22.8342 C.ar    1  UNL1        0.1311
      5 N          -4.4917  -19.5496   22.0929 N.ar    1  UNL1       -0.2035
      6 C          -5.8263  -20.0818   21.6622 C.ar    1  UNL1        0.2196
      7 F          -5.9111  -21.3831   20.9210 F       1  UNL1       -0.1835
      8 N          -3.0721  -17.7161   23.2649 N.pl3   1  UNL1       -0.3144
      9 H          -2.6826  -18.0002   24.1232 H       1  UNL1        0.1485
     10 C          -2.3310  -16.7510   22.3878 C.3     1  UNL1        0.1155
     11 C          -1.9135  -17.1611   21.0067 C.ar    1  UNL1        0.0028
     12 C          -0.6619  -17.9637   20.8087 C.ar    1  UNL1        0.0182
     13 C          -0.2445  -18.3738   19.4276 C.ar    1  UNL1        0.1010
     14 N          -1.0787  -17.9813   18.2443 N.ar    1  UNL1       -0.2165
     15 C          -2.3304  -17.1786   18.4423 C.ar    1  UNL1        0.2221
     16 F          -3.1646  -16.7861   17.2591 F       1  UNL1       -0.1832
     17 C          -2.7477  -16.7686   19.8234 C.ar    1  UNL1        0.0471
     18 C          -8.4108  -19.8447   21.5420 C.3     1  UNL1        0.0603
     19 C         -11.8094  -15.6408   19.1824 C.3     1  UNL1        0.0307
     20 C         -11.7792  -16.5189   20.3982 C.2     1  UNL1        0.0074
     21 C         -12.8718  -16.4211   21.4213 C.2     1  UNL1        0.2278
     22 N         -12.8416  -17.2992   22.6370 N.2     1  UNL1       -0.0314
     23 C         -11.7188  -18.2750   22.8297 C.2     1  UNL1        0.3716
     24 N         -11.4234  -19.2628   23.9192 N.2     1  UNL1       -0.0311
     25 C         -10.1482  -19.9710   23.5694 C.2     1  UNL1        0.2319
     26 C          -9.6555  -19.4210   22.2638 C.2     1  UNL1        0.0328
     27 C         -10.6263  -18.3728   21.8066 C.2     1  UNL1        0.0704
     28 C         -10.6565  -17.4947   20.5908 C.3     1  UNL1        0.0598
@<TRIPOS>BOND
     1    19    20    1
     2    20    21    2
     3    21    22    1
     4    22    23    2
     5    23    24    1
     6    24    25    2
     7    25    26    1
     8    26    18    1
     9    18     1    1
    10     1     2   ar
    11     2     3   ar
    12     3     4   ar
    13     4     8    1
    14     8    10    1
    15    10    11    1
    16    11    12   ar
    17    12    13   ar
    18    13    14   ar
    19    14    15   ar
    20    15    16    1
    21    15    17   ar
    22     4     5   ar
    23     5     6   ar
    24     6     7    1
    25    26    27    2
    26    27    28    1
    27    28    20    1
    28    27    23    1
    29     6     1   ar
    30    17    11   ar
    31     8     9    1
@<TRIPOS>MOLECULE
*****
 28 31 0 0 0
SMALL
GASTEIGER

@<TRIPOS>ATOM
      1 C           1.5562    0.8769   18.7379 C.ar    1  UNL1        0.0284
      2 C           1.1678    2.2947   18.4399 C.ar    1  UNL1        0.0027
      3 C           0.0821    2.9578   19.2347 C.ar    1  UNL1        0.0339
      4 C          -0.6151    2.2031   20.3275 C.ar    1  UNL1        0.1311
      5 N          -0.2265    0.7852   20.6255 N.ar    1  UNL1       -0.2035
      6 C           0.8591    0.1221   19.8308 C.ar    1  UNL1        0.2196
      7 F           1.2475   -1.2957   20.1288 F       1  UNL1       -0.1835
      8 N          -1.7007    2.8662   21.1223 N.pl3   1  UNL1       -0.3144
      9 H          -1.5650    3.0553   22.0789 H       1  UNL1        0.1485
     10 C          -2.9929    3.2414   20.4596 C.3     1  UNL1        0.1155
     11 C          -4.2019    3.5476   21.2929 C.ar    1  UNL1        0.0028
     12 C          -5.4419    4.0889   20.6452 C.ar    1  UNL1        0.0182
     13 C          -6.6509    4.3952   21.4786 C.ar    1  UNL1        0.1010
     14 N          -6.6200    4.1602   22.9597 N.ar    1  UNL1       -0.2165
     15 C          -5.3800    3.6188   23.6075 C.ar    1  UNL1        0.2221
     16 F          -5.3491    3.3838   25.0886 F       1  UNL1       -0.1832
     17 C          -4.1711    3.3126   22.7741 C.ar    1  UNL1        0.0471
     18 C           2.6419    0.2138   17.9431 C.3     1  UNL1        0.0603
     19 C           3.9011   -5.3572   19.4163 C.3     1  UNL1        0.0307
     20 C           4.5373   -4.0003   19.4810 C.2     1  UNL1        0.0074
     21 C           5.9074   -3.8417   20.0705 C.2     1  UNL1        0.2278
     22 N           6.5436   -2.4848   20.1352 N.2     1  UNL1       -0.0314
     23 C           5.8097   -1.2866   19.6103 C.2     1  UNL1        0.3716
     24 N           6.1793    0.1654   19.5398 N.2     1  UNL1       -0.0311
     25 C           5.0377    0.9042   18.9066 C.2     1  UNL1        0.2319
     26 C           3.9624   -0.0912   18.5859 C.2     1  UNL1        0.0328
     27 C           4.4395   -1.4452   19.0208 C.2     1  UNL1        0.0704
     28 C           3.8034   -2.8021   18.9561 C.3     1  UNL1        0.0598
@<TRIPOS>BOND
     1    19    20    1
     2    20    21    2
     3    21    22    1
     4    22    23    2
     5    23    24    1
     6    24    25    2
     7    25    26    1
     8    26    18    1
     9    18     1    1
    10     1     2   ar
    11     2     3   ar
    12     3     4   ar
    13     4     8    1
    14     8    10    1
    15    10    11    1
    16    11    12   ar
    17    12    13   ar
    18    13    14   ar
    19    14    15   ar
    20    15    16    1
    21    15    17   ar
    22     4     5   ar
    23     5     6   ar
    24     6     7    1
    25    26    27    2
    26    27    28    1
    27    28    20    1
    28    27    23    1
    29     6     1   ar
    30    17    11   ar
    31     8     9    1
@<TRIPOS>MOLECULE
*****
 28 31 0 0 0
SMALL
GASTEIGER

@<TRIPOS>ATOM
      1 C          -7.2489  -19.3013   22.0102 C.ar    1  UNL1        0.0284
      2 C          -7.3281  -17.9341   22.6221 C.ar    1  UNL1        0.0027
      3 C          -6.0821  -17.2592   23.1140 C.ar    1  UNL1        0.0339
      4 C          -4.7568  -17.9515   22.9940 C.ar    1  UNL1        0.1311
      5 N          -4.6777  -19.3188   22.3820 N.ar    1  UNL1       -0.2035
      6 C          -5.9237  -19.9937   21.8901 C.ar    1  UNL1        0.2196
      7 F          -5.8444  -21.3609   21.2782 F       1  UNL1       -0.1835
      8 N          -3.5108  -17.2766   23.4859 N.pl3   1  UNL1       -0.3144
      9 H          -3.2674  -17.3264   24.4385 H       1  UNL1        0.1485
     10 C          -2.6358  -16.5259   22.5263 C.3     1  UNL1        0.1155
     11 C          -2.2303  -17.1591   21.2284 C.ar    1  UNL1        0.0028
     12 C          -1.3320  -18.3603   21.2282 C.ar    1  UNL1        0.0182
     13 C          -0.9264  -18.9934   19.9303 C.ar    1  UNL1        0.1010
     14 N          -1.4193  -18.4254   18.6324 N.ar    1  UNL1       -0.2165
     15 C          -2.3177  -17.2241   18.6326 C.ar    1  UNL1        0.2221
     16 F          -2.8105  -16.6560   17.3348 F       1  UNL1       -0.1832
     17 C          -2.7231  -16.5910   19.9305 C.ar    1  UNL1        0.0471
     18 C          -8.4949  -19.9762   21.5183 C.3     1  UNL1        0.0603
     19 C         -13.0364  -18.6407   25.0373 C.3     1  UNL1        0.0307
     20 C         -12.5951  -18.4035   23.6234 C.2     1  UNL1        0.0074
     21 C         -13.4572  -17.6029   22.6930 C.2     1  UNL1        0.2278
     22 N         -13.0159  -17.3657   21.2791 N.2     1  UNL1       -0.0314
     23 C         -11.7125  -17.9292   20.7957 C.2     1  UNL1        0.3716
     24 N         -11.0210  -17.8610   19.4664 N.2     1  UNL1       -0.0311
     25 C          -9.7314  -18.6195   19.5753 C.2     1  UNL1        0.2319
     26 C          -9.6261  -19.1565   20.9718 C.2     1  UNL1        0.0328
     27 C         -10.8505  -18.7299   21.7261 C.2     1  UNL1        0.0704
     28 C         -11.2918  -18.9670   23.1400 C.3     1  UNL1        0.0598
@<TRIPOS>BOND
     1    19    20    1
     2    20    21    2
     3    21    22    1
     4    22    23    2
     5    23    24    1
     6    24    25    2
     7    25    26    1
     8    26    18    1
     9    18     1    1
    10     1     2   ar
    11     2     3   ar
    12     3     4   ar
    13     4     8    1
    14     8    10    1
    15    10    11    1
    16    11    12   ar
    17    12    13   ar
    18    13    14   ar
    19    14    15   ar
    20    15    16    1
    21    15    17   ar
    22     4     5   ar
    23     5     6   ar
    24     6     7    1
    25    26    27    2
    26    27    28    1
    27    28    20    1
    28    27    23    1
    29     6     1   ar
    30    17    11   ar
    31     8     9    1
@<TRIPOS>MOLECULE
*****
 28 31 0 0 0
SMALL
GASTEIGER

@<TRIPOS>ATOM
      1 C          -7.3868  -15.7430   24.3803 C.ar    1  UNL1        0.0284
      2 C          -6.2508  -16.1863   25.2537 C.ar    1  UNL1        0.0027
      3 C          -4.8490  -16.1835   24.7200 C.ar    1  UNL1        0.0339
      4 C          -4.5832  -15.7373   23.3127 C.ar    1  UNL1        0.1311
      5 N          -5.7192  -15.2939   22.4393 N.ar    1  UNL1       -0.2035
      6 C          -7.1211  -15.2968   22.9730 C.ar    1  UNL1        0.2196
      7 F          -8.2570  -14.8534   22.0995 F       1  UNL1       -0.1835
      8 N          -3.1813  -15.7344   22.7790 N.pl3   1  UNL1       -0.3144
      9 H          -2.7100  -14.8816   22.6382 H       1  UNL1        0.1485
     10 C          -2.4977  -17.0309   22.4599 C.3     1  UNL1        0.1155
     11 C          -3.2265  -18.0941   21.6930 C.ar    1  UNL1        0.0028
     12 C          -2.8359  -18.3987   20.2771 C.ar    1  UNL1        0.0182
     13 C          -3.5648  -19.4620   19.5102 C.ar    1  UNL1        0.1010
     14 N          -4.6843  -20.2207   20.1591 N.ar    1  UNL1       -0.2165
     15 C          -5.0749  -19.9161   21.5750 C.ar    1  UNL1        0.2221
     16 F          -6.1945  -20.6748   22.2238 F       1  UNL1       -0.1832
     17 C          -4.3461  -18.8528   22.3418 C.ar    1  UNL1        0.0471
     18 C          -8.7887  -15.7459   24.9140 C.3     1  UNL1        0.0603
     19 C         -11.8192  -15.9012   19.8560 C.3     1  UNL1        0.0307
     20 C         -11.6375  -16.7344   21.0899 C.2     1  UNL1        0.0074
     21 C         -12.3809  -18.0289   21.2370 C.2     1  UNL1        0.2278
     22 N         -12.1992  -18.8621   22.4710 N.2     1  UNL1       -0.0314
     23 C         -11.2741  -18.4009   23.5579 C.2     1  UNL1        0.3716
     24 N         -10.8961  -19.0051   24.8778 N.2     1  UNL1       -0.0311
     25 C          -9.9190  -18.0841   25.5464 C.2     1  UNL1        0.2319
     26 C          -9.6932  -16.9106   24.6398 C.2     1  UNL1        0.0328
     27 C         -10.5307  -17.1064   23.4108 C.2     1  UNL1        0.0704
     28 C         -10.7124  -16.2732   22.1768 C.3     1  UNL1        0.0598
@<TRIPOS>BOND
     1    19    20    1
     2    20    21    2
     3    21    22    1
     4    22    23    2
     5    23    24    1
     6    24    25    2
     7    25    26    1
     8    26    18    1
     9    18     1    1
    10     1     2   ar
    11     2     3   ar
    12     3     4   ar
    13     4     8    1
    14     8    10    1
    15    10    11    1
    16    11    12   ar
    17    12    13   ar
    18    13    14   ar
    19    14    15   ar
    20    15    16    1
    21    15    17   ar
    22     4     5   ar
    23     5     6   ar
    24     6     7    1
    25    26    27    2
    26    27    28    1
    27    28    20    1
    28    27    23    1
    29     6     1   ar
    30    17    11   ar
    31     8     9    1
