@<TRIPOS>MOLECULE
*****
 34 36 0 0 0
SMALL
GASTEIGER

@<TRIPOS>ATOM
      1 C           3.5166    0.3278   18.5342 C.ar    1  UNL1        0.0293
      2 C           2.0946    0.8052   18.5227 C.ar    1  UNL1        0.0145
      3 C           1.7970    2.2754   18.5216 C.ar    1  UNL1        0.0505
      4 C           2.9214    3.2682   18.5322 C.ar    1  UNL1        0.0170
      5 C           4.3434    2.7907   18.5438 C.ar    1  UNL1        0.0306
      6 C           4.6410    1.3206   18.5448 C.ar    1  UNL1        0.1380
      7 F           6.0629    0.8432   18.5564 F       1  UNL1       -0.2044
      8 C           3.8747   -2.0350   20.9744 C.3     1  UNL1        0.2354
      9 O           4.1787   -3.4119   20.4630 O.2     1  UNL1       -0.4481
     10 C           4.3004   -3.6541   18.9877 C.2     1  UNL1        0.2769
     11 N           4.6044   -5.0311   18.4763 N.pl3   1  UNL1       -0.3133
     12 N           4.1182   -2.5193   18.0238 N.2     1  UNL1       -0.2214
     13 C           3.8142   -1.1424   18.5353 C.3     1  UNL1        0.1432
     14 C           3.8325   -0.8739   17.0596 C.3     1  UNL1        0.0321
     15 C           3.6924   -0.9002   20.0106 C.3     1  UNL1        0.2276
     16 F           3.3884    0.4768   20.5220 F       1  UNL1       -0.2309
     17 H           4.7240   -5.7759   19.1089 H       1  UNL1        0.1466
     18 H           4.6843   -5.1901   17.5080 H       1  UNL1        0.1466
     19 C           4.6889   -2.4766   23.4018 C.3     1  UNL1        0.0421
     20 C           3.7530   -1.7928   22.4497 C.3     1  UNL1        0.2036
     21 F           2.6953   -0.8668   22.9730 F       1  UNL1       -0.2333
     22 N           0.3751    2.7527   18.5100 N.am    1  UNL1       -0.2791
     23 C          -0.3675    2.9287   19.8014 C.2     1  UNL1        0.2688
     24 O           0.3119    2.6272   21.1043 O.2     1  UNL1       -0.2681
     25 H          -0.0708    2.9506   17.6549 H       1  UNL1        0.1552
     26 C          -1.7895    3.4060   19.7899 C.ar    1  UNL1        0.1541
     27 C          -2.2302    4.4255   18.7816 C.ar    1  UNL1        0.1258
     28 N          -3.6521    4.9029   18.7701 N.ar    1  UNL1       -0.2070
     29 C          -4.6334    4.3609   19.7668 C.ar    1  UNL1        0.2469
     30 C          -4.1926    3.3414   20.7750 C.ar    1  UNL1        0.1566
     31 N          -2.7707    2.8640   20.7866 N.ar    1  UNL1       -0.2328
     32 O          -6.0554    4.8383   19.7552 O.3     1  UNL1       -0.4265
     33 C          -7.0683    4.1564   18.8841 C.3     1  UNL1        0.4044
     34 F          -6.9361    2.6925   18.5848 F       1  UNL1       -0.1809
@<TRIPOS>BOND
     1    20    19    1
     2    20    21    1
     3    20     8    1
     4     8     9    1
     5     9    10    1
     6    10    11    1
     7    10    12    2
     8    12    13    1
     9    13    14    1
    10    13     1    1
    11     1     2   ar
    12     2     3   ar
    13     3    22    1
    14    22    23   am
    15    23    24    2
    16    23    26    1
    17    26    27   ar
    18    27    28   ar
    19    28    29   ar
    20    29    32    1
    21    32    33    1
    22    33    34    1
    23    29    30   ar
    24    30    31   ar
    25     3     4   ar
    26     4     5   ar
    27     5     6   ar
    28     6     7    1
    29    13    15    1
    30    15    16    1
    31    15     8    1
    32     6     1   ar
    33    31    26   ar
    34    11    17    1
    35    11    18    1
    36    22    25    1
@<TRIPOS>MOLECULE
*****
 34 36 0 0 0
SMALL
GASTEIGER

@<TRIPOS>ATOM
      1 C           3.2502   -0.3863   20.8200 C.ar    1  UNL1        0.0293
      2 C           1.8381    0.0174   21.1251 C.ar    1  UNL1        0.0145
      3 C           1.1332    1.0052   20.2435 C.ar    1  UNL1        0.0505
      4 C           1.8405    1.5895   19.0567 C.ar    1  UNL1        0.0170
      5 C           3.2526    1.1858   18.7516 C.ar    1  UNL1        0.0306
      6 C           3.9574    0.1979   19.6332 C.ar    1  UNL1        0.1380
      7 F           5.3695   -0.2057   19.3281 F       1  UNL1       -0.2044
      8 C           4.0134   -3.7049   20.5551 C.3     1  UNL1        0.2354
      9 O           4.7512   -4.2664   21.7342 O.2     1  UNL1       -0.4481
     10 C           5.0909   -3.3818   22.8970 C.2     1  UNL1        0.2769
     11 N           5.8287   -3.9434   24.0762 N.pl3   1  UNL1       -0.3133
     12 N           4.6928   -1.9357   22.8808 N.2     1  UNL1       -0.2214
     13 C           3.9550   -1.3742   21.7017 C.3     1  UNL1        0.1432
     14 C           4.0499   -0.1465   22.5582 C.3     1  UNL1        0.0321
     15 C           3.6153   -2.2588   20.5388 C.3     1  UNL1        0.2276
     16 F           2.8775   -1.6972   19.3597 F       1  UNL1       -0.2309
     17 H           6.0900   -4.8926   24.0869 H       1  UNL1        0.1466
     18 H           6.0516   -3.3629   24.8394 H       1  UNL1        0.1466
     19 C           4.7594   -5.3361   18.6757 C.3     1  UNL1        0.0421
     20 C           3.6737   -4.5894   19.3923 C.3     1  UNL1        0.2036
     21 F           2.2483   -4.7273   18.9461 F       1  UNL1       -0.2333
     22 N          -0.2788    1.4089   20.5486 N.am    1  UNL1       -0.2791
     23 C          -0.5538    2.7112   21.2401 C.2     1  UNL1        0.2688
     24 O           0.5833    3.6100   21.6265 O.2     1  UNL1       -0.2681
     25 H          -1.0251    0.8190   20.2950 H       1  UNL1        0.1552
     26 C          -1.9658    3.1150   21.5453 C.ar    1  UNL1        0.1541
     27 C          -2.2834    3.8186   22.8315 C.ar    1  UNL1        0.1258
     28 N          -3.6953    4.2223   23.1367 N.ar    1  UNL1       -0.2070
     29 C          -4.7899    3.9225   22.1558 C.ar    1  UNL1        0.2469
     30 C          -4.4723    3.2189   20.8697 C.ar    1  UNL1        0.1566
     31 N          -3.0603    2.8151   20.5644 N.ar    1  UNL1       -0.2328
     32 O          -6.2020    4.3262   22.4611 O.3     1  UNL1       -0.4265
     33 C          -6.5464    4.8895   23.8079 C.3     1  UNL1        0.4044
     34 F          -6.3148    4.0722   25.0442 F       1  UNL1       -0.1809
@<TRIPOS>BOND
     1    20    19    1
     2    20    21    1
     3    20     8    1
     4     8     9    1
     5     9    10    1
     6    10    11    1
     7    10    12    2
     8    12    13    1
     9    13    14    1
    10    13     1    1
    11     1     2   ar
    12     2     3   ar
    13     3    22    1
    14    22    23   am
    15    23    24    2
    16    23    26    1
    17    26    27   ar
    18    27    28   ar
    19    28    29   ar
    20    29    32    1
    21    32    33    1
    22    33    34    1
    23    29    30   ar
    24    30    31   ar
    25     3     4   ar
    26     4     5   ar
    27     5     6   ar
    28     6     7    1
    29    13    15    1
    30    15    16    1
    31    15     8    1
    32     6     1   ar
    33    31    26   ar
    34    11    17    1
    35    11    18    1
    36    22    25    1
@<TRIPOS>MOLECULE
*****
 34 36 0 0 0
SMALL
GASTEIGER

@<TRIPOS>ATOM
      1 C           6.3468   -1.8996   21.9383 C.ar    1  UNL1        0.0293
      2 C           5.2269   -1.5827   22.8844 C.ar    1  UNL1        0.0145
      3 C           5.2614   -2.1061   24.2897 C.ar    1  UNL1        0.0505
      4 C           6.4160   -2.9464   24.7489 C.ar    1  UNL1        0.0170
      5 C           7.5360   -3.2633   23.8027 C.ar    1  UNL1        0.0306
      6 C           7.5014   -2.7399   22.3974 C.ar    1  UNL1        0.1380
      7 F           8.6214   -3.0569   21.4513 F       1  UNL1       -0.2044
      8 C           5.0039   -3.0200   19.0045 C.3     1  UNL1        0.2354
      9 O           5.2421   -2.1176   17.8303 O.2     1  UNL1       -0.4481
     10 C           6.0154   -0.8445   18.0073 C.2     1  UNL1        0.2769
     11 N           6.2535    0.0579   16.8330 N.pl3   1  UNL1       -0.3133
     12 N           6.5505   -0.4738   19.3587 N.2     1  UNL1       -0.2214
     13 C           6.3123   -1.3762   20.5330 C.3     1  UNL1        0.1432
     14 C           7.0976   -0.2849   21.1982 C.3     1  UNL1        0.0321
     15 C           5.5390   -2.6493   20.3559 C.3     1  UNL1        0.2276
     16 F           5.3009   -3.5516   21.5302 F       1  UNL1       -0.2309
     17 H           5.9023   -0.1855   15.9460 H       1  UNL1        0.1466
     18 H           6.7611    0.8934   16.9492 H       1  UNL1        0.1466
     19 C           4.9562   -5.5852   18.5957 C.3     1  UNL1        0.0421
     20 C           4.2307   -4.2930   18.8274 C.3     1  UNL1        0.2036
     21 F           2.7318   -4.2739   18.8821 F       1  UNL1       -0.2333
     22 N           4.1415   -1.7892   25.2358 N.am    1  UNL1       -0.2791
     23 C           4.2259   -0.5804   26.1199 C.2     1  UNL1        0.2688
     24 O           5.4304    0.3115   26.0579 O.2     1  UNL1       -0.2681
     25 H           3.3509   -2.3745   25.2765 H       1  UNL1        0.1552
     26 C           3.1060   -0.2634   27.0661 C.ar    1  UNL1        0.1541
     27 C           2.0598    0.7401   26.6805 C.ar    1  UNL1        0.1258
     28 N           0.9398    1.0572   27.6265 N.ar    1  UNL1       -0.2070
     29 C           0.8660    0.3708   28.9582 C.ar    1  UNL1        0.2469
     30 C           1.9122   -0.6326   29.3439 C.ar    1  UNL1        0.1566
     31 N           3.0321   -0.9497   28.3978 N.ar    1  UNL1       -0.2328
     32 O          -0.2540    0.6879   29.9044 O.3     1  UNL1       -0.4265
     33 C          -1.6677    0.3512   29.5327 C.3     1  UNL1        0.4044
     34 F          -1.9499   -0.8229   28.6428 F       1  UNL1       -0.1809
@<TRIPOS>BOND
     1    20    19    1
     2    20    21    1
     3    20     8    1
     4     8     9    1
     5     9    10    1
     6    10    11    1
     7    10    12    2
     8    12    13    1
     9    13    14    1
    10    13     1    1
    11     1     2   ar
    12     2     3   ar
    13     3    22    1
    14    22    23   am
    15    23    24    2
    16    23    26    1
    17    26    27   ar
    18    27    28   ar
    19    28    29   ar
    20    29    32    1
    21    32    33    1
    22    33    34    1
    23    29    30   ar
    24    30    31   ar
    25     3     4   ar
    26     4     5   ar
    27     5     6   ar
    28     6     7    1
    29    13    15    1
    30    15    16    1
    31    15     8    1
    32     6     1   ar
    33    31    26   ar
    34    11    17    1
    35    11    18    1
    36    22    25    1
@<TRIPOS>MOLECULE
*****
 34 36 0 0 0
SMALL
GASTEIGER

@<TRIPOS>ATOM
      1 C           3.3570    0.5703   18.4947 C.ar    1  UNL1        0.0293
      2 C           1.9234    1.0113   18.4779 C.ar    1  UNL1        0.0145
      3 C           1.5886    2.4733   18.4606 C.ar    1  UNL1        0.0505
      4 C           2.6874    3.4944   18.4601 C.ar    1  UNL1        0.0170
      5 C           4.1210    3.0534   18.4769 C.ar    1  UNL1        0.0306
      6 C           4.4559    1.5914   18.4942 C.ar    1  UNL1        0.1380
      7 F           5.8895    1.1505   18.5109 F       1  UNL1       -0.2044
      8 C           3.7228   -1.7674   20.9578 C.3     1  UNL1        0.2354
      9 O           4.0727   -3.1392   20.4622 O.2     1  UNL1       -0.4481
     10 C           4.2321   -3.3873   18.9915 C.2     1  UNL1        0.2769
     11 N           4.5820   -4.7592   18.4959 N.pl3   1  UNL1       -0.3133
     12 N           4.0418   -2.2636   18.0163 N.2     1  UNL1       -0.2214
     13 C           3.6919   -0.8918   18.5119 C.3     1  UNL1        0.1432
     14 C           3.7351   -0.6320   17.0352 C.3     1  UNL1        0.0321
     15 C           3.5324   -0.6437   19.9826 C.3     1  UNL1        0.2276
     16 F           3.1826    0.7283   20.4782 F       1  UNL1       -0.2309
     17 H           4.7070   -5.4968   19.1360 H       1  UNL1        0.1466
     18 H           4.6867   -4.9221   17.5307 H       1  UNL1        0.1466
     19 C           4.4949   -2.1741   23.4049 C.3     1  UNL1        0.0421
     20 C           3.5633   -1.5193   22.4285 C.3     1  UNL1        0.2036
     21 F           2.4723   -0.6164   22.9228 F       1  UNL1       -0.2333
     22 N           0.1550    2.9142   18.4439 N.am    1  UNL1       -0.2791
     23 C          -0.6010    3.0565   19.7315 C.2     1  UNL1        0.2688
     24 O           0.0766    2.7578   21.0360 O.2     1  UNL1       -0.2681
     25 H          -0.2897    3.1102   17.5877 H       1  UNL1        0.1552
     26 C          -2.0347    3.4974   19.7149 C.ar    1  UNL1        0.1541
     27 C          -2.8861    3.3267   20.9380 C.ar    1  UNL1        0.1258
     28 N          -4.3197    3.7675   20.9214 N.ar    1  UNL1       -0.2070
     29 C          -4.9020    4.3792   19.6817 C.ar    1  UNL1        0.2469
     30 C          -4.0505    4.5499   18.4586 C.ar    1  UNL1        0.1566
     31 N          -2.6169    4.1090   18.4752 N.ar    1  UNL1       -0.2328
     32 O          -6.3357    4.8201   19.6651 O.3     1  UNL1       -0.4265
     33 C          -7.0063    5.2388   20.9398 C.3     1  UNL1        0.4044
     34 F          -7.1397    6.6950   21.2739 F       1  UNL1       -0.1809
@<TRIPOS>BOND
     1    20    19    1
     2    20    21    1
     3    20     8    1
     4     8     9    1
     5     9    10    1
     6    10    11    1
     7    10    12    2
     8    12    13    1
     9    13    14    1
    10    13     1    1
    11     1     2   ar
    12     2     3   ar
    13     3    22    1
    14    22    23   am
    15    23    24    2
    16    23    26    1
    17    26    27   ar
    18    27    28   ar
    19    28    29   ar
    20    29    32    1
    21    32    33    1
    22    33    34    1
    23    29    30   ar
    24    30    31   ar
    25     3     4   ar
    26     4     5   ar
    27     5     6   ar
    28     6     7    1
    29    13    15    1
    30    15    16    1
    31    15     8    1
    32     6     1   ar
    33    31    26   ar
    34    11    17    1
    35    11    18    1
    36    22    25    1
@<TRIPOS>MOLECULE
*****
 34 36 0 0 0
SMALL
GASTEIGER

@<TRIPOS>ATOM
      1 C           4.3421   -1.5113   20.2667 C.ar    1  UNL1        0.0293
      2 C           4.7208   -1.6914   21.7069 C.ar    1  UNL1        0.0145
      3 C           4.7357   -3.0636   22.3126 C.ar    1  UNL1        0.0505
      4 C           4.3719   -4.2558   21.4781 C.ar    1  UNL1        0.0170
      5 C           3.9931   -4.0757   20.0380 C.ar    1  UNL1        0.0306
      6 C           3.9782   -2.7035   19.4322 C.ar    1  UNL1        0.1380
      7 F           3.5995   -2.5235   17.9921 F       1  UNL1       -0.2044
      8 C           1.9683    0.9193   19.9165 C.3     1  UNL1        0.2354
      9 O           2.4481    2.1571   19.2182 O.2     1  UNL1       -0.4481
     10 C           3.8675    2.2467   18.7413 C.2     1  UNL1        0.2769
     11 N           4.3473    3.4846   18.0430 N.pl3   1  UNL1       -0.3133
     12 N           4.8070    1.0986   18.9627 N.2     1  UNL1       -0.2214
     13 C           4.3272   -0.1392   19.6610 C.3     1  UNL1        0.1432
     14 C           5.7517   -0.5261   19.3945 C.3     1  UNL1        0.0321
     15 C           2.9079   -0.2288   20.1379 C.3     1  UNL1        0.2276
     16 F           2.4281   -1.4667   20.8362 F       1  UNL1       -0.2309
     17 H           3.7306    4.2382   17.8977 H       1  UNL1        0.1466
     18 H           5.2788    3.5435   17.7300 H       1  UNL1        0.1466
     19 C          -0.2072    2.0787   20.7365 C.3     1  UNL1        0.0421
     20 C           0.5490    0.8296   20.3934 C.3     1  UNL1        0.2036
     21 F          -0.1141   -0.5091   20.5271 F       1  UNL1       -0.2333
     22 N           5.1145   -3.2436   23.7528 N.am    1  UNL1       -0.2791
     23 C           6.3120   -4.0707   24.1156 C.2     1  UNL1        0.2688
     24 O           7.1308   -4.7179   23.0382 O.2     1  UNL1       -0.2681
     25 H           4.5770   -2.8188   24.4599 H       1  UNL1        0.1552
     26 C           6.6908   -4.2508   25.5558 C.ar    1  UNL1        0.1541
     27 C           6.6695   -3.0768   26.4893 C.ar    1  UNL1        0.1258
     28 N           7.0483   -3.2568   27.9294 N.ar    1  UNL1       -0.2070
     29 C           7.4484   -4.6107   28.4361 C.ar    1  UNL1        0.2469
     30 C           7.4698   -5.7847   27.5026 C.ar    1  UNL1        0.1566
     31 N           7.0910   -5.6047   26.0625 N.ar    1  UNL1       -0.2328
     32 O           7.8273   -4.7907   29.8764 O.3     1  UNL1       -0.4265
     33 C           6.9852   -5.6509   30.7714 C.3     1  UNL1        0.4044
     34 F           6.6212   -5.1724   32.1457 F       1  UNL1       -0.1809
@<TRIPOS>BOND
     1    20    19    1
     2    20    21    1
     3    20     8    1
     4     8     9    1
     5     9    10    1
     6    10    11    1
     7    10    12    2
     8    12    13    1
     9    13    14    1
    10    13     1    1
    11     1     2   ar
    12     2     3   ar
    13     3    22    1
    14    22    23   am
    15    23    24    2
    16    23    26    1
    17    26    27   ar
    18    27    28   ar
    19    28    29   ar
    20    29    32    1
    21    32    33    1
    22    33    34    1
    23    29    30   ar
    24    30    31   ar
    25     3     4   ar
    26     4     5   ar
    27     5     6   ar
    28     6     7    1
    29    13    15    1
    30    15    16    1
    31    15     8    1
    32     6     1   ar
    33    31    26   ar
    34    11    17    1
    35    11    18    1
    36    22    25    1
@<TRIPOS>MOLECULE
*****
 34 36 0 0 0
SMALL
GASTEIGER

@<TRIPOS>ATOM
      1 C          -2.1102    4.0983   20.7146 C.ar    1  UNL1        0.0293
      2 C          -1.3539    2.8566   20.3454 C.ar    1  UNL1        0.0145
      3 C          -0.1914    2.9393   19.4011 C.ar    1  UNL1        0.0505
      4 C           0.2149    4.2637   18.8259 C.ar    1  UNL1        0.0170
      5 C          -0.5414    5.5054   19.1950 C.ar    1  UNL1        0.0306
      6 C          -1.7039    5.4227   20.1393 C.ar    1  UNL1        0.1380
      7 F          -2.4601    6.6644   20.5084 F       1  UNL1       -0.2044
      8 C          -5.4899    3.7999   20.3218 C.3     1  UNL1        0.2354
      9 O          -6.2611    3.7573   21.6077 O.2     1  UNL1       -0.4481
     10 C          -5.5381    3.8438   22.9191 C.2     1  UNL1        0.2769
     11 N          -6.3094    3.8012   24.2050 N.pl3   1  UNL1       -0.3133
     12 N          -4.0439    3.9730   22.9447 N.2     1  UNL1       -0.2214
     13 C          -3.2727    4.0156   21.6589 C.3     1  UNL1        0.1432
     14 C          -2.1460    4.1309   22.6423 C.3     1  UNL1        0.0321
     15 C          -3.9957    3.9291   20.3474 C.3     1  UNL1        0.2276
     16 F          -3.2244    3.9717   19.0616 F       1  UNL1       -0.2309
     17 H          -7.2901    3.7164   24.1881 H       1  UNL1        0.1466
     18 H          -5.8349    3.8580   25.0657 H       1  UNL1        0.1466
     19 C          -6.2273    4.8919   18.0827 C.3     1  UNL1        0.0421
     20 C          -6.2128    3.7133   19.0104 C.3     1  UNL1        0.2036
     21 F          -6.9214    2.4481   18.6267 F       1  UNL1       -0.2333
     22 N           0.5648    1.6976   19.0321 N.am    1  UNL1       -0.2791
     23 C           1.8415    1.3580   19.7424 C.2     1  UNL1        0.2688
     24 O           2.3620    2.2602   20.8219 O.2     1  UNL1       -0.2681
     25 H           0.2232    1.1055   18.3236 H       1  UNL1        0.1552
     26 C           2.5978    0.1163   19.3734 C.ar    1  UNL1        0.1541
     27 C           3.4390    0.0917   18.1317 C.ar    1  UNL1        0.1258
     28 N           4.1953   -1.1500   17.7626 N.ar    1  UNL1       -0.2070
     29 C           4.1105   -2.3670   18.6352 C.ar    1  UNL1        0.2469
     30 C           3.2694   -2.3424   19.8770 C.ar    1  UNL1        0.1566
     31 N           2.5131   -1.1008   20.2461 N.ar    1  UNL1       -0.2328
     32 O           4.8669   -3.6088   18.2662 O.3     1  UNL1       -0.4265
     33 C           4.5710   -4.9026   18.9650 C.3     1  UNL1        0.4044
     34 F           5.0579   -6.1972   18.3844 F       1  UNL1       -0.1809
@<TRIPOS>BOND
     1    20    19    1
     2    20    21    1
     3    20     8    1
     4     8     9    1
     5     9    10    1
     6    10    11    1
     7    10    12    2
     8    12    13    1
     9    13    14    1
    10    13     1    1
    11     1     2   ar
    12     2     3   ar
    13     3    22    1
    14    22    23   am
    15    23    24    2
    16    23    26    1
    17    26    27   ar
    18    27    28   ar
    19    28    29   ar
    20    29    32    1
    21    32    33    1
    22    33    34    1
    23    29    30   ar
    24    30    31   ar
    25     3     4   ar
    26     4     5   ar
    27     5     6   ar
    28     6     7    1
    29    13    15    1
    30    15    16    1
    31    15     8    1
    32     6     1   ar
    33    31    26   ar
    34    11    17    1
    35    11    18    1
    36    22    25    1
@<TRIPOS>MOLECULE
*****
 34 36 0 0 0
SMALL
GASTEIGER

@<TRIPOS>ATOM
      1 C           3.5682    0.1427   19.7529 C.ar    1  UNL1        0.0293
      2 C           2.7024    0.4606   20.9358 C.ar    1  UNL1        0.0145
      3 C           1.2719    0.8632   20.7317 C.ar    1  UNL1        0.0505
      4 C           0.7072    0.9479   19.3447 C.ar    1  UNL1        0.0170
      5 C           1.5730    0.6301   18.1617 C.ar    1  UNL1        0.0306
      6 C           3.0035    0.2275   18.3658 C.ar    1  UNL1        0.1380
      7 F           3.8692   -0.0903   17.1828 F       1  UNL1       -0.2044
      8 C           5.1714   -2.8424   20.1817 C.3     1  UNL1        0.2354
      9 O           6.6574   -2.7282   20.3516 O.2     1  UNL1       -0.4481
     10 C           7.3140   -1.3798   20.3242 C.2     1  UNL1        0.2769
     11 N           8.8000   -1.2656   20.4941 N.pl3   1  UNL1       -0.3133
     12 N           6.4846   -0.1457   20.1268 N.2     1  UNL1       -0.2214
     13 C           4.9987   -0.2599   19.9569 C.3     1  UNL1        0.1432
     14 C           5.1584    1.2283   19.8586 C.3     1  UNL1        0.0321
     15 C           4.3421   -1.6083   19.9844 C.3     1  UNL1        0.2276
     16 F           2.8561   -1.7225   19.8144 F       1  UNL1       -0.2309
     17 H           9.3443   -2.0757   20.6236 H       1  UNL1        0.1466
     18 H           9.2309   -0.3807   20.4761 H       1  UNL1        0.1466
     19 C           4.3606   -4.9758   18.9403 C.3     1  UNL1        0.0421
     20 C           4.5149   -4.1908   20.2091 C.3     1  UNL1        0.2036
     21 F           4.0126   -4.7542   21.5054 F       1  UNL1       -0.2333
     22 N           0.4062    1.1810   21.9147 N.am    1  UNL1       -0.2791
     23 C           0.1239    2.6094   22.2753 C.2     1  UNL1        0.2688
     24 O           0.7073    3.7199   21.4529 O.2     1  UNL1       -0.2681
     25 H           0.0233    0.4521   22.4544 H       1  UNL1        0.1552
     26 C          -0.7419    2.9273   23.4583 C.ar    1  UNL1        0.1541
     27 C          -0.4452    2.3092   24.7925 C.ar    1  UNL1        0.1258
     28 N          -1.3108    2.6270   25.9754 N.ar    1  UNL1       -0.2070
     29 C          -2.4732    3.5630   25.8243 C.ar    1  UNL1        0.2469
     30 C          -2.7699    4.1811   24.4902 C.ar    1  UNL1        0.1566
     31 N          -1.9042    3.8632   23.3072 N.ar    1  UNL1       -0.2328
     32 O          -3.3390    3.8809   27.0074 O.3     1  UNL1       -0.4265
     33 C          -4.5564    4.7402   26.8364 C.3     1  UNL1        0.4044
     34 F          -5.6620    4.3012   25.9225 F       1  UNL1       -0.1809
@<TRIPOS>BOND
     1    20    19    1
     2    20    21    1
     3    20     8    1
     4     8     9    1
     5     9    10    1
     6    10    11    1
     7    10    12    2
     8    12    13    1
     9    13    14    1
    10    13     1    1
    11     1     2   ar
    12     2     3   ar
    13     3    22    1
    14    22    23   am
    15    23    24    2
    16    23    26    1
    17    26    27   ar
    18    27    28   ar
    19    28    29   ar
    20    29    32    1
    21    32    33    1
    22    33    34    1
    23    29    30   ar
    24    30    31   ar
    25     3     4   ar
    26     4     5   ar
    27     5     6   ar
    28     6     7    1
    29    13    15    1
    30    15    16    1
    31    15     8    1
    32     6     1   ar
    33    31    26   ar
    34    11    17    1
    35    11    18    1
    36    22    25    1
@<TRIPOS>MOLECULE
*****
 34 36 0 0 0
SMALL
GASTEIGER

@<TRIPOS>ATOM
      1 C           4.8652   -0.5893   18.9855 C.ar    1  UNL1        0.0293
      2 C           5.4909   -0.9391   20.3031 C.ar    1  UNL1        0.0145
      3 C           5.9087   -2.3522   20.5835 C.ar    1  UNL1        0.0505
      4 C           5.7007   -3.4156   19.5462 C.ar    1  UNL1        0.0170
      5 C           5.0749   -3.0658   18.2286 C.ar    1  UNL1        0.0306
      6 C           4.6572   -1.6527   17.9482 C.ar    1  UNL1        0.1380
      7 F           4.0314   -1.3030   16.6306 F       1  UNL1       -0.2044
      8 C           2.0129    1.2101   19.5260 C.3     1  UNL1        0.2354
      9 O           2.0799    2.6327   19.0552 O.2     1  UNL1       -0.4481
     10 C           3.3307    3.1508   18.4093 C.2     1  UNL1        0.2769
     11 N           3.3976    4.5734   17.9384 N.pl3   1  UNL1       -0.3133
     12 N           4.5144    2.2463   18.2343 N.2     1  UNL1       -0.2214
     13 C           4.4474    0.8238   18.7052 C.3     1  UNL1        0.1432
     14 C           5.8433    0.8511   18.1567 C.3     1  UNL1        0.0321
     15 C           3.1967    0.3056   19.3510 C.3     1  UNL1        0.2276
     16 F           3.1297   -1.1170   19.8219 F       1  UNL1       -0.2309
     17 H           2.6207    5.1671   18.0533 H       1  UNL1        0.1466
     18 H           4.2185    4.9135   17.5145 H       1  UNL1        0.1466
     19 C          -0.2159    1.6485   20.7870 C.3     1  UNL1        0.0421
     20 C           0.7621    0.6920   20.1719 C.3     1  UNL1        0.2036
     21 F           0.4895   -0.7827   20.2027 F       1  UNL1       -0.2333
     22 N           6.5344   -2.7019   21.9011 N.am    1  UNL1       -0.2791
     23 C           5.7155   -3.3672   22.9673 C.2     1  UNL1        0.2688
     24 O           4.2707   -3.6829   22.7157 O.2     1  UNL1       -0.2681
     25 H           7.4826   -2.4947   22.0662 H       1  UNL1        0.1552
     26 C           6.3411   -3.7170   24.2849 C.ar    1  UNL1        0.1541
     27 C           7.1560   -4.9691   24.4193 C.ar    1  UNL1        0.1258
     28 N           7.7817   -5.3189   25.7369 N.ar    1  UNL1       -0.2070
     29 C           7.5925   -4.4166   26.9201 C.ar    1  UNL1        0.2469
     30 C           6.7776   -3.1644   26.7857 C.ar    1  UNL1        0.1566
     31 N           6.1520   -2.8146   25.4681 N.ar    1  UNL1       -0.2328
     32 O           8.2182   -4.7664   28.2379 O.3     1  UNL1       -0.4265
     33 C           7.7175   -5.9470   29.0159 C.3     1  UNL1        0.4044
     34 F           6.4893   -5.8179   29.8673 F       1  UNL1       -0.1809
@<TRIPOS>BOND
     1    20    19    1
     2    20    21    1
     3    20     8    1
     4     8     9    1
     5     9    10    1
     6    10    11    1
     7    10    12    2
     8    12    13    1
     9    13    14    1
    10    13     1    1
    11     1     2   ar
    12     2     3   ar
    13     3    22    1
    14    22    23   am
    15    23    24    2
    16    23    26    1
    17    26    27   ar
    18    27    28   ar
    19    28    29   ar
    20    29    32    1
    21    32    33    1
    22    33    34    1
    23    29    30   ar
    24    30    31   ar
    25     3     4   ar
    26     4     5   ar
    27     5     6   ar
    28     6     7    1
    29    13    15    1
    30    15    16    1
    31    15     8    1
    32     6     1   ar
    33    31    26   ar
    34    11    17    1
    35    11    18    1
    36    22    25    1
@<TRIPOS>MOLECULE
*****
 34 36 0 0 0
SMALL
GASTEIGER

@<TRIPOS>ATOM
      1 C           4.7121    1.9815   36.4505 C.ar    1  UNL1        0.0293
      2 C           4.7152    0.9083   35.4025 C.ar    1  UNL1        0.0145
      3 C           5.8374   -0.0857   35.3501 C.ar    1  UNL1        0.0505
      4 C           6.9566   -0.0065   36.3457 C.ar    1  UNL1        0.0170
      5 C           6.9535    1.0667   37.3936 C.ar    1  UNL1        0.0306
      6 C           5.8313    2.0607   37.4461 C.ar    1  UNL1        0.1380
      7 F           5.8283    3.1338   38.4941 F       1  UNL1       -0.2044
      8 C           1.7862    2.1903   38.2000 C.3     1  UNL1        0.2354
      9 O           0.9711    3.4130   37.8992 O.2     1  UNL1       -0.4481
     10 C           1.4654    4.4169   36.9003 C.2     1  UNL1        0.2769
     11 N           0.6502    5.6397   36.5996 N.pl3   1  UNL1       -0.3133
     12 N           2.7748    4.1981   36.2022 N.2     1  UNL1       -0.2214
     13 C           3.5900    2.9754   36.5030 C.3     1  UNL1        0.1432
     14 C           4.4740    3.6341   35.4858 C.3     1  UNL1        0.0321
     15 C           3.0956    1.9715   37.5019 C.3     1  UNL1        0.2276
     16 F           3.9109    0.7488   37.8026 F       1  UNL1       -0.2309
     17 H          -0.2093    5.7833   37.0578 H       1  UNL1        0.1466
     18 H           0.9746    6.2986   35.9439 H       1  UNL1        0.1466
     19 C           0.6933    1.6492   40.4941 C.3     1  UNL1        0.0421
     20 C           1.2919    1.1864   39.1989 C.3     1  UNL1        0.2036
     21 F           1.3962   -0.2803   38.9027 F       1  UNL1       -0.2333
     22 N           5.8403   -1.1588   34.3021 N.am    1  UNL1       -0.2791
     23 C           6.5806   -0.9478   33.0147 C.2     1  UNL1        0.2688
     24 O           7.3180    0.3363   32.7753 O.2     1  UNL1       -0.2681
     25 H           5.3564   -2.0016   34.4592 H       1  UNL1        0.1552
     26 C           6.5837   -2.0209   31.9667 C.ar    1  UNL1        0.1541
     27 C           6.6510   -3.4639   32.3709 C.ar    1  UNL1        0.1258
     28 N           6.6541   -4.5370   31.3230 N.ar    1  UNL1       -0.2070
     29 C           6.5898   -4.1673   29.8707 C.ar    1  UNL1        0.2469
     30 C           6.5224   -2.7244   29.4664 C.ar    1  UNL1        0.1566
     31 N           6.5194   -1.6512   30.5144 N.ar    1  UNL1       -0.2328
     32 O           6.5928   -5.2405   28.8226 O.3     1  UNL1       -0.4265
     33 C           7.7509   -6.1886   28.7235 C.3     1  UNL1        0.4044
     34 F           8.3756   -6.7424   29.9698 F       1  UNL1       -0.1809
@<TRIPOS>BOND
     1    20    19    1
     2    20    21    1
     3    20     8    1
     4     8     9    1
     5     9    10    1
     6    10    11    1
     7    10    12    2
     8    12    13    1
     9    13    14    1
    10    13     1    1
    11     1     2   ar
    12     2     3   ar
    13     3    22    1
    14    22    23   am
    15    23    24    2
    16    23    26    1
    17    26    27   ar
    18    27    28   ar
    19    28    29   ar
    20    29    32    1
    21    32    33    1
    22    33    34    1
    23    29    30   ar
    24    30    31   ar
    25     3     4   ar
    26     4     5   ar
    27     5     6   ar
    28     6     7    1
    29    13    15    1
    30    15    16    1
    31    15     8    1
    32     6     1   ar
    33    31    26   ar
    34    11    17    1
    35    11    18    1
    36    22    25    1
