@<TRIPOS>MOLECULE
*****
 24 27 0 0 0
SMALL
GASTEIGER

@<TRIPOS>ATOM
      1 C          -8.0804  -17.8635   21.7669 C.3     1  UNL1        0.1140
      2 C          -9.5783  -17.7880   21.7376 C.ar    1  UNL1        0.0273
      3 C         -10.6000  -18.4560   20.8659 C.ar    1  UNL1        0.1379
      4 F         -10.1622  -19.3988   19.7846 F       1  UNL1       -0.2044
      5 C         -12.0597  -18.1812   21.0756 C.ar    1  UNL1        0.0294
      6 C         -12.4975  -17.2384   22.1569 C.ar    1  UNL1        0.0023
      7 C         -11.4758  -16.5703   23.0286 C.ar    1  UNL1        0.0014
      8 C         -10.0162  -16.8452   22.8190 C.ar    1  UNL1        0.0173
      9 C          -8.7890  -16.3379   23.5166 C.ar    1  UNL1        0.0804
     10 C          -8.3012  -15.4417   24.6161 C.ar    1  UNL1        0.1178
     11 N          -6.8034  -15.5172   24.6454 N.ar    1  UNL1       -0.2223
     12 C          -6.3655  -16.4600   23.5641 C.ar    1  UNL1        0.1788
     13 N          -7.5927  -16.9672   22.8664 N.ar    1  UNL1       -0.3068
     14 C          -7.2213  -18.6900   20.8566 C.3     1  UNL1        0.0565
     15 C          -6.1603  -19.5810   21.4312 C.3     1  UNL1        0.1127
     16 O          -6.5429  -20.7205   22.3286 O.3     1  UNL1       -0.3844
     17 H          -5.7437  -21.1924   22.6107 H       1  UNL1        0.2103
     18 O          -0.3856  -18.5875   20.1403 O.2     1  UNL1       -0.2961
     19 C          -1.8293  -18.8358   20.4631 C.2     1  UNL1        0.1506
     20 C          -2.2499  -19.0758   21.8827 C.3     1  UNL1        0.0646
     21 C          -3.6936  -19.3242   22.2054 C.3     1  UNL1        0.0102
     22 C          -4.7166  -19.3326   21.1085 C.3     1  UNL1        0.0279
     23 C          -4.2960  -19.0927   19.6888 C.3     1  UNL1        0.0102
     24 C          -2.8523  -18.8443   19.3660 C.3     1  UNL1        0.0646
@<TRIPOS>BOND
     1    18    19    2
     2    19    20    1
     3    20    21    1
     4    21    22    1
     5    22    15    1
     6    15    16    1
     7    15    14    1
     8    14     1    1
     9     1     2    1
    10     2     3   ar
    11     3     4    1
    12     3     5   ar
    13     5     6   ar
    14     6     7   ar
    15     7     8   ar
    16     8     9    1
    17     9    10   ar
    18    10    11   ar
    19    11    12   ar
    20    12    13   ar
    21    22    23    1
    22    23    24    1
    23    24    19    1
    24    13     1    1
    25     8     2   ar
    26    13     9   ar
    27    16    17    1
@<TRIPOS>MOLECULE
*****
 24 27 0 0 0
SMALL
GASTEIGER

@<TRIPOS>ATOM
      1 C          -8.0096  -17.8342   22.1974 C.3     1  UNL1        0.1140
      2 C          -7.6655  -16.9557   23.3636 C.ar    1  UNL1        0.0273
      3 C          -6.3697  -16.3514   23.8170 C.ar    1  UNL1        0.1379
      4 F          -5.1123  -16.6018   23.0384 F       1  UNL1       -0.2044
      5 C          -6.3313  -15.4966   25.0491 C.ar    1  UNL1        0.0294
      6 C          -7.5887  -15.2462   25.8276 C.ar    1  UNL1        0.0023
      7 C          -8.8845  -15.8505   25.3742 C.ar    1  UNL1        0.0014
      8 C          -8.9230  -16.7053   24.1421 C.ar    1  UNL1        0.0173
      9 C         -10.0442  -17.4290   23.4572 C.ar    1  UNL1        0.0804
     10 C         -11.5142  -17.7215   23.5152 C.ar    1  UNL1        0.1178
     11 N         -11.8583  -18.6001   22.3491 N.ar    1  UNL1       -0.2223
     12 C         -10.6009  -18.8505   21.5705 C.ar    1  UNL1        0.1788
     13 N          -9.4797  -18.1268   22.2554 N.ar    1  UNL1       -0.3068
     14 C          -7.0518  -18.3327   21.1562 C.3     1  UNL1        0.0565
     15 C          -6.0616  -19.4055   21.5003 C.3     1  UNL1        0.1127
     16 O          -6.5105  -20.6318   22.2384 O.3     1  UNL1       -0.3844
     17 H          -5.7521  -21.2198   22.3799 H       1  UNL1        0.2103
     18 O          -0.3049  -18.7919   19.9242 O.2     1  UNL1       -0.2961
     19 C          -1.7440  -18.9453   20.3182 C.2     1  UNL1        0.1506
     20 C          -2.1047  -19.2257   21.7469 C.3     1  UNL1        0.0646
     21 C          -3.5439  -19.3791   22.1410 C.3     1  UNL1        0.0102
     22 C          -4.6224  -19.2521   21.1063 C.3     1  UNL1        0.0279
     23 C          -4.2618  -18.9718   19.6774 C.3     1  UNL1        0.0102
     24 C          -2.8226  -18.8184   19.2834 C.3     1  UNL1        0.0646
@<TRIPOS>BOND
     1    18    19    2
     2    19    20    1
     3    20    21    1
     4    21    22    1
     5    22    15    1
     6    15    16    1
     7    15    14    1
     8    14     1    1
     9     1     2    1
    10     2     3   ar
    11     3     4    1
    12     3     5   ar
    13     5     6   ar
    14     6     7   ar
    15     7     8   ar
    16     8     9    1
    17     9    10   ar
    18    10    11   ar
    19    11    12   ar
    20    12    13   ar
    21    22    23    1
    22    23    24    1
    23    24    19    1
    24    13     1    1
    25     8     2   ar
    26    13     9   ar
    27    16    17    1
@<TRIPOS>MOLECULE
*****
 24 27 0 0 0
SMALL
GASTEIGER

@<TRIPOS>ATOM
      1 C          -6.4788  -16.3185   23.9967 C.3     1  UNL1        0.1140
      2 C          -7.7454  -16.9650   23.5191 C.ar    1  UNL1        0.0273
      3 C          -8.0970  -17.6565   22.2353 C.ar    1  UNL1        0.1379
      4 F          -7.0712  -17.7881   21.1489 F       1  UNL1       -0.2044
      5 C          -9.4746  -18.2164   22.0380 C.ar    1  UNL1        0.0294
      6 C         -10.5003  -18.0848   23.1244 C.ar    1  UNL1        0.0023
      7 C         -10.1487  -17.3933   24.4082 C.ar    1  UNL1        0.0014
      8 C          -8.7712  -16.8334   24.6056 C.ar    1  UNL1        0.0173
      9 C          -8.1387  -16.1056   25.7546 C.ar    1  UNL1        0.0804
     10 C          -8.3818  -15.5745   27.1362 C.ar    1  UNL1        0.1178
     11 N          -7.1153  -14.9280   27.6138 N.ar    1  UNL1       -0.2223
     12 C          -6.0895  -15.0596   26.5273 C.ar    1  UNL1        0.1788
     13 N          -6.7220  -15.7874   25.3783 N.ar    1  UNL1       -0.3068
     14 C          -5.1947  -16.2204   23.2277 C.3     1  UNL1        0.0565
     15 C          -4.0859  -17.1954   23.4920 C.3     1  UNL1        0.1127
     16 O          -3.9701  -17.8537   24.8349 O.3     1  UNL1       -0.3844
     17 H          -3.2053  -18.4502   24.8377 H       1  UNL1        0.2103
     18 O          -0.1133  -18.4623   19.1777 O.2     1  UNL1       -0.2961
     19 C          -1.1064  -18.1456   20.2563 C.2     1  UNL1        0.1506
     20 C          -1.2202  -16.7460   20.7836 C.3     1  UNL1        0.0646
     21 C          -2.2133  -16.4292   21.8621 C.3     1  UNL1        0.0102
     22 C          -3.0927  -17.5121   22.4134 C.3     1  UNL1        0.0279
     23 C          -2.9790  -18.9118   21.8861 C.3     1  UNL1        0.0102
     24 C          -1.9859  -19.2286   20.8075 C.3     1  UNL1        0.0646
@<TRIPOS>BOND
     1    18    19    2
     2    19    20    1
     3    20    21    1
     4    21    22    1
     5    22    15    1
     6    15    16    1
     7    15    14    1
     8    14     1    1
     9     1     2    1
    10     2     3   ar
    11     3     4    1
    12     3     5   ar
    13     5     6   ar
    14     6     7   ar
    15     7     8   ar
    16     8     9    1
    17     9    10   ar
    18    10    11   ar
    19    11    12   ar
    20    12    13   ar
    21    22    23    1
    22    23    24    1
    23    24    19    1
    24    13     1    1
    25     8     2   ar
    26    13     9   ar
    27    16    17    1
@<TRIPOS>MOLECULE
*****
 24 27 0 0 0
SMALL
GASTEIGER

@<TRIPOS>ATOM
      1 C         -13.0675   -6.7673   18.8584 C.3     1  UNL1        0.1140
      2 C         -13.7572   -5.5290   19.3494 C.ar    1  UNL1        0.0273
      3 C         -15.1897   -5.2475   19.6935 C.ar    1  UNL1        0.1379
      4 F         -16.2194   -6.3302   19.5618 F       1  UNL1       -0.2044
      5 C         -15.5926   -3.8832   20.1694 C.ar    1  UNL1        0.0294
      6 C         -14.5629   -2.8005   20.3010 C.ar    1  UNL1        0.0023
      7 C         -13.1303   -3.0820   19.9569 C.ar    1  UNL1        0.0014
      8 C         -12.7274   -4.4463   19.4810 C.ar    1  UNL1        0.0173
      9 C         -11.4013   -5.0154   19.0714 C.ar    1  UNL1        0.0804
     10 C          -9.9454   -4.6979   18.8997 C.ar    1  UNL1        0.1178
     11 N          -9.2558   -5.9362   18.4087 N.ar    1  UNL1       -0.2223
     12 C         -10.2855   -7.0190   18.2771 C.ar    1  UNL1        0.1788
     13 N         -11.6115   -6.4499   18.6866 N.ar    1  UNL1       -0.3068
     14 C         -13.7193   -8.0907   18.5868 C.3     1  UNL1        0.0565
     15 C         -14.5658   -8.2725   17.3620 C.3     1  UNL1        0.1127
     16 O         -14.0353   -7.8718   16.0173 O.3     1  UNL1       -0.3844
     17 H         -14.7037   -8.0545   15.3385 H       1  UNL1        0.2103
     18 O         -20.0742  -10.6025   17.8410 O.2     1  UNL1       -0.2961
     19 C         -18.6971  -10.0200   17.7213 C.2     1  UNL1        0.1506
     20 C         -18.4813   -8.7603   16.9362 C.3     1  UNL1        0.0646
     21 C         -17.1042   -8.1778   16.8165 C.3     1  UNL1        0.0102
     22 C         -15.9429   -8.8550   17.4818 C.3     1  UNL1        0.0279
     23 C         -16.1587  -10.1149   18.2669 C.3     1  UNL1        0.0102
     24 C         -17.5358  -10.6974   18.3866 C.3     1  UNL1        0.0646
@<TRIPOS>BOND
     1    18    19    2
     2    19    20    1
     3    20    21    1
     4    21    22    1
     5    22    15    1
     6    15    16    1
     7    15    14    1
     8    14     1    1
     9     1     2    1
    10     2     3   ar
    11     3     4    1
    12     3     5   ar
    13     5     6   ar
    14     6     7   ar
    15     7     8   ar
    16     8     9    1
    17     9    10   ar
    18    10    11   ar
    19    11    12   ar
    20    12    13   ar
    21    22    23    1
    22    23    24    1
    23    24    19    1
    24    13     1    1
    25     8     2   ar
    26    13     9   ar
    27    16    17    1
@<TRIPOS>MOLECULE
*****
 24 27 0 0 0
SMALL
GASTEIGER

@<TRIPOS>ATOM
      1 C         -13.0638   -4.1626   19.3452 C.3     1  UNL1        0.1140
      2 C         -11.7760   -4.5427   18.6765 C.ar    1  UNL1        0.0273
      3 C         -11.0063   -5.8296   18.6388 C.ar    1  UNL1        0.1379
      4 F         -11.5220   -7.0336   19.3697 F       1  UNL1       -0.2044
      5 C          -9.7209   -5.9125   17.8700 C.ar    1  UNL1        0.0294
      6 C          -9.2052   -4.7084   17.1391 C.ar    1  UNL1        0.0023
      7 C          -9.9749   -3.4215   17.1768 C.ar    1  UNL1        0.0014
      8 C         -11.2603   -3.3386   17.9455 C.ar    1  UNL1        0.0173
      9 C         -12.2294   -2.2144   18.1624 C.ar    1  UNL1        0.0804
     10 C         -12.5095   -0.7754   17.8447 C.ar    1  UNL1        0.1178
     11 N         -13.7973   -0.3954   18.5134 N.ar    1  UNL1       -0.2223
     12 C         -14.3130   -1.5994   19.2444 C.ar    1  UNL1        0.1788
     13 N         -13.3440   -2.7236   19.0275 N.ar    1  UNL1       -0.3068
     14 C         -13.9209   -5.0633   20.1843 C.3     1  UNL1        0.0565
     15 C         -15.2703   -5.4908   19.6878 C.3     1  UNL1        0.1127
     16 O         -16.3652   -4.4783   19.5261 O.3     1  UNL1       -0.3844
     17 H         -17.1658   -4.9174   19.1986 H       1  UNL1        0.2103
     18 O         -16.2881  -11.2502   18.3490 O.2     1  UNL1       -0.2961
     19 C         -16.0336   -9.8104   18.6837 C.2     1  UNL1        0.1506
     20 C         -14.7924   -9.1323   18.1842 C.3     1  UNL1        0.0646
     21 C         -14.5380   -7.6924   18.5189 C.3     1  UNL1        0.0102
     22 C         -15.5247   -6.9306   19.3531 C.3     1  UNL1        0.0279
     23 C         -16.7660   -7.6087   19.8526 C.3     1  UNL1        0.0102
     24 C         -17.0205   -9.0486   19.5179 C.3     1  UNL1        0.0646
@<TRIPOS>BOND
     1    18    19    2
     2    19    20    1
     3    20    21    1
     4    21    22    1
     5    22    15    1
     6    15    16    1
     7    15    14    1
     8    14     1    1
     9     1     2    1
    10     2     3   ar
    11     3     4    1
    12     3     5   ar
    13     5     6   ar
    14     6     7   ar
    15     7     8   ar
    16     8     9    1
    17     9    10   ar
    18    10    11   ar
    19    11    12   ar
    20    12    13   ar
    21    22    23    1
    22    23    24    1
    23    24    19    1
    24    13     1    1
    25     8     2   ar
    26    13     9   ar
    27    16    17    1
@<TRIPOS>MOLECULE
*****
 24 27 0 0 0
SMALL
GASTEIGER

@<TRIPOS>ATOM
      1 C         -12.8194   -4.6979   19.3638 C.3     1  UNL1        0.1140
      2 C         -12.5935   -3.2785   18.9342 C.ar    1  UNL1        0.0273
      3 C         -13.4038   -2.0309   19.1257 C.ar    1  UNL1        0.1379
      4 F         -14.7040   -2.0881   19.8713 F       1  UNL1       -0.2044
      5 C         -12.9137   -0.7259   18.5715 C.ar    1  UNL1        0.0294
      6 C         -11.6135   -0.6688   17.8259 C.ar    1  UNL1        0.0023
      7 C         -10.8032   -1.9164   17.6345 C.ar    1  UNL1        0.0014
      8 C         -11.2931   -3.2214   18.1886 C.ar    1  UNL1        0.0173
      9 C         -10.7154   -4.6053   18.1573 C.ar    1  UNL1        0.0804
     10 C          -9.5548   -5.4252   17.6772 C.ar    1  UNL1        0.1178
     11 N          -9.7807   -6.8445   18.1068 N.ar    1  UNL1       -0.2223
     12 C         -11.0810   -6.9018   18.8524 C.ar    1  UNL1        0.1788
     13 N         -11.6587   -5.5178   18.8836 N.ar    1  UNL1       -0.3068
     14 C         -13.9989   -5.2078   20.1376 C.3     1  UNL1        0.0565
     15 C         -15.2555   -5.5992   19.4181 C.3     1  UNL1        0.1127
     16 O         -16.1899   -4.5411   18.9106 O.3     1  UNL1       -0.3844
     17 H         -16.9471   -4.9611   18.4733 H       1  UNL1        0.2103
     18 O         -16.5447  -11.3974   18.5699 O.2     1  UNL1       -0.2961
     19 C         -16.2224   -9.9478   18.7820 C.2     1  UNL1        0.1506
     20 C         -14.9743   -9.3627   18.1905 C.3     1  UNL1        0.0646
     21 C         -14.6520   -7.9132   18.4026 C.3     1  UNL1        0.0102
     22 C         -15.5778   -7.0488   19.2061 C.3     1  UNL1        0.0279
     23 C         -16.8260   -7.6339   19.7976 C.3     1  UNL1        0.0102
     24 C         -17.1483   -9.0834   19.5855 C.3     1  UNL1        0.0646
@<TRIPOS>BOND
     1    18    19    2
     2    19    20    1
     3    20    21    1
     4    21    22    1
     5    22    15    1
     6    15    16    1
     7    15    14    1
     8    14     1    1
     9     1     2    1
    10     2     3   ar
    11     3     4    1
    12     3     5   ar
    13     5     6   ar
    14     6     7   ar
    15     7     8   ar
    16     8     9    1
    17     9    10   ar
    18    10    11   ar
    19    11    12   ar
    20    12    13   ar
    21    22    23    1
    22    23    24    1
    23    24    19    1
    24    13     1    1
    25     8     2   ar
    26    13     9   ar
    27    16    17    1
@<TRIPOS>MOLECULE
*****
 24 27 0 0 0
SMALL
GASTEIGER

@<TRIPOS>ATOM
      1 C          -7.7468  -18.3878   22.3882 C.3     1  UNL1        0.1140
      2 C          -8.3499  -18.9515   21.1357 C.ar    1  UNL1        0.0273
      3 C          -7.7642  -19.2567   19.7890 C.ar    1  UNL1        0.1379
      4 F          -6.3120  -18.9904   19.5248 F       1  UNL1       -0.2044
      5 C          -8.6310  -19.8282   18.7063 C.ar    1  UNL1        0.0294
      6 C         -10.0833  -20.0945   18.9705 C.ar    1  UNL1        0.0023
      7 C         -10.6690  -19.7893   20.3172 C.ar    1  UNL1        0.0014
      8 C          -9.8023  -19.2178   21.3999 C.ar    1  UNL1        0.0173
      9 C         -10.0968  -18.8187   22.8155 C.ar    1  UNL1        0.0804
     10 C         -11.1764  -18.7366   23.8537 C.ar    1  UNL1        0.1178
     11 N         -10.5732  -18.1729   25.1060 N.ar    1  UNL1       -0.2223
     12 C          -9.1209  -17.9066   24.8419 C.ar    1  UNL1        0.1788
     13 N          -8.8264  -18.3057   23.4263 N.ar    1  UNL1       -0.3068
     14 C          -6.3154  -17.9781   22.5704 C.3     1  UNL1        0.0565
     15 C          -5.2146  -18.9648   22.3161 C.3     1  UNL1        0.1127
     16 O          -5.4308  -20.4207   22.6054 O.3     1  UNL1       -0.3844
     17 H          -4.6264  -20.9167   22.3868 H       1  UNL1        0.2103
     18 O           0.0533  -17.0882   20.1417 O.2     1  UNL1       -0.2961
     19 C          -1.2637  -17.5574   20.6853 C.2     1  UNL1        0.1506
     20 C          -1.9314  -16.7976   21.7930 C.3     1  UNL1        0.0646
     21 C          -3.2483  -17.2668   22.3366 C.3     1  UNL1        0.0102
     22 C          -3.8977  -18.4956   21.7725 C.3     1  UNL1        0.0279
     23 C          -3.2300  -19.2554   20.6648 C.3     1  UNL1        0.0102
     24 C          -1.9130  -18.7863   20.1212 C.3     1  UNL1        0.0646
@<TRIPOS>BOND
     1    18    19    2
     2    19    20    1
     3    20    21    1
     4    21    22    1
     5    22    15    1
     6    15    16    1
     7    15    14    1
     8    14     1    1
     9     1     2    1
    10     2     3   ar
    11     3     4    1
    12     3     5   ar
    13     5     6   ar
    14     6     7   ar
    15     7     8   ar
    16     8     9    1
    17     9    10   ar
    18    10    11   ar
    19    11    12   ar
    20    12    13   ar
    21    22    23    1
    22    23    24    1
    23    24    19    1
    24    13     1    1
    25     8     2   ar
    26    13     9   ar
    27    16    17    1
@<TRIPOS>MOLECULE
*****
 24 27 0 0 0
SMALL
GASTEIGER

@<TRIPOS>ATOM
      1 C         -13.5622   -5.5854   19.6676 C.3     1  UNL1        0.1140
      2 C         -12.2828   -5.9176   18.9584 C.ar    1  UNL1        0.0273
      3 C         -10.9573   -5.2179   18.8990 C.ar    1  UNL1        0.1379
      4 F         -10.7519   -3.9355   19.6494 F       1  UNL1       -0.2044
      5 C          -9.8372   -5.8008   18.0892 C.ar    1  UNL1        0.0294
      6 C         -10.0427   -7.0832   17.3388 C.ar    1  UNL1        0.0023
      7 C         -11.3682   -7.7828   17.3982 C.ar    1  UNL1        0.0014
      8 C         -12.4883   -7.2000   18.2080 C.ar    1  UNL1        0.0173
      9 C         -13.8946   -7.6605   18.4533 C.ar    1  UNL1        0.0804
     10 C         -14.8907   -8.7377   18.1412 C.ar    1  UNL1        0.1178
     11 N         -16.1701   -8.4055   18.8503 N.ar    1  UNL1       -0.2223
     12 C         -15.9647   -7.1231   19.6008 C.ar    1  UNL1        0.1788
     13 N         -14.5583   -6.6626   19.3554 N.ar    1  UNL1       -0.3068
     14 C         -13.8032   -4.3866   20.5364 C.3     1  UNL1        0.0565
     15 C         -14.8050   -3.3498   20.1227 C.3     1  UNL1        0.1127
     16 O         -16.2710   -3.6066   20.3099 O.3     1  UNL1       -0.3844
     17 H         -16.7763   -2.8416   19.9931 H       1  UNL1        0.2103
     18 O         -12.9489    1.8249   17.7192 O.2     1  UNL1       -0.2961
     19 C         -13.4129    0.5313   18.3201 C.2     1  UNL1        0.1506
     20 C         -12.4741   -0.6355   18.4053 C.3     1  UNL1        0.0646
     21 C         -12.9382   -1.9292   19.0061 C.3     1  UNL1        0.0102
     22 C         -14.3410   -2.0561   19.5218 C.3     1  UNL1        0.0279
     23 C         -15.2798   -0.8893   19.4366 C.3     1  UNL1        0.0102
     24 C         -14.8158    0.4044   18.8357 C.3     1  UNL1        0.0646
@<TRIPOS>BOND
     1    18    19    2
     2    19    20    1
     3    20    21    1
     4    21    22    1
     5    22    15    1
     6    15    16    1
     7    15    14    1
     8    14     1    1
     9     1     2    1
    10     2     3   ar
    11     3     4    1
    12     3     5   ar
    13     5     6   ar
    14     6     7   ar
    15     7     8   ar
    16     8     9    1
    17     9    10   ar
    18    10    11   ar
    19    11    12   ar
    20    12    13   ar
    21    22    23    1
    22    23    24    1
    23    24    19    1
    24    13     1    1
    25     8     2   ar
    26    13     9   ar
    27    16    17    1
@<TRIPOS>MOLECULE
*****
 24 27 0 0 0
SMALL
GASTEIGER

@<TRIPOS>ATOM
      1 C          -6.1328  -18.0025   22.6341 C.3     1  UNL1        0.1140
      2 C          -6.1836  -19.1438   21.6619 C.ar    1  UNL1        0.0273
      3 C          -7.3222  -19.9724   21.1454 C.ar    1  UNL1        0.1379
      4 F          -8.7203  -19.7030   21.6173 F       1  UNL1       -0.2044
      5 C          -7.0627  -21.0706   20.1570 C.ar    1  UNL1        0.0294
      6 C          -5.6646  -21.3399   19.6853 C.ar    1  UNL1        0.0023
      7 C          -4.5259  -20.5112   20.2017 C.ar    1  UNL1        0.0014
      8 C          -4.7854  -19.4132   21.1901 C.ar    1  UNL1        0.0173
      9 C          -3.8706  -18.4384   21.8705 C.ar    1  UNL1        0.0804
     10 C          -2.4411  -18.0025   21.9995 C.ar    1  UNL1        0.1178
     11 N          -2.3905  -16.8613   22.9716 N.ar    1  UNL1       -0.2223
     12 C          -3.7886  -16.5919   23.4435 C.ar    1  UNL1        0.1788
     13 N          -4.7034  -17.5666   22.7630 N.ar    1  UNL1       -0.3068
     14 C          -7.3057  -17.4025   23.3513 C.3     1  UNL1        0.0565
     15 C          -8.4106  -16.7543   22.5709 C.3     1  UNL1        0.1127
     16 O          -8.0860  -15.7613   21.4945 O.3     1  UNL1       -0.3844
     17 H          -8.9081  -15.4404   21.0920 H       1  UNL1        0.2103
     18 O         -14.1286  -18.1336   23.7546 O.2     1  UNL1       -0.2961
     19 C         -12.6991  -17.7888   23.4587 C.2     1  UNL1        0.1506
     20 C         -12.3738  -16.8074   22.3720 C.3     1  UNL1        0.0646
     21 C         -10.9443  -16.4626   22.0761 C.3     1  UNL1        0.0102
     22 C          -9.8401  -17.0991   22.8669 C.3     1  UNL1        0.0279
     23 C         -10.1653  -18.0806   23.9537 C.3     1  UNL1        0.0102
     24 C         -11.5949  -18.4254   24.2496 C.3     1  UNL1        0.0646
@<TRIPOS>BOND
     1    18    19    2
     2    19    20    1
     3    20    21    1
     4    21    22    1
     5    22    15    1
     6    15    16    1
     7    15    14    1
     8    14     1    1
     9     1     2    1
    10     2     3   ar
    11     3     4    1
    12     3     5   ar
    13     5     6   ar
    14     6     7   ar
    15     7     8   ar
    16     8     9    1
    17     9    10   ar
    18    10    11   ar
    19    11    12   ar
    20    12    13   ar
    21    22    23    1
    22    23    24    1
    23    24    19    1
    24    13     1    1
    25     8     2   ar
    26    13     9   ar
    27    16    17    1
