@<TRIPOS>MOLECULE
*****
 36 40 0 0 0
SMALL
GASTEIGER

@<TRIPOS>ATOM
      1 C           1.0067    2.1952   32.0974 C.3     1  UNL1        0.0754
      2 C           2.0707    1.7117   33.0375 C.2     1  UNL1        0.1177
      3 C           3.0926    0.7193   32.5673 C.2     1  UNL1        0.1165
      4 C           4.1566    0.2358   33.5075 C.3     1  UNL1        0.2689
      5 N           4.1988    0.7447   34.9180 N.2     1  UNL1       -0.0600
      6 C           3.1770    1.7370   35.3881 C.2     1  UNL1        0.3202
      7 N           2.1130    2.2205   34.4480 N.pl3   1  UNL1       -0.2028
      8 H           1.4423    2.8718   34.7566 H       1  UNL1        0.2982
      9 C           5.1785   -0.7565   33.0374 C.ar    1  UNL1        0.0582
     10 C           6.4294   -0.2809   32.3596 C.ar    1  UNL1        0.0033
     11 C           7.4512   -1.2732   31.8895 C.ar    1  UNL1        0.0114
     12 C           7.2223   -2.7411   32.0970 C.ar    1  UNL1        0.0599
     13 CL          8.2442   -3.7334   31.6268 Cl      1  UNL1       -0.0822
     14 C           5.9715   -3.2166   32.7747 C.ar    1  UNL1        0.0408
     15 C           4.9496   -2.2242   33.2449 C.ar    1  UNL1        0.1413
     16 F           3.6987   -2.6998   33.9226 F       1  UNL1       -0.2043
     17 C           3.2192    2.2458   36.7986 C.ar    1  UNL1        0.0860
     18 C           4.4387    2.9594   37.3022 C.ar    1  UNL1        0.0281
     19 C           4.4810    3.4682   38.7127 C.ar    1  UNL1        0.1001
     20 N           3.3039    3.2634   39.6195 N.ar    1  UNL1       -0.2324
     21 C           2.0844    2.5499   39.1159 C.ar    1  UNL1        0.1386
     22 CL          0.9072    2.3451   40.0226 Cl      1  UNL1       -0.0613
     23 C           2.0421    2.0411   37.7054 C.ar    1  UNL1        0.0382
     24 C           3.0504    0.2105   31.1569 C.2     1  UNL1        0.2527
     25 O           2.2250   -0.9956   30.8191 O.2     1  UNL1       -0.2699
     26 N           3.8336    0.9077   30.0843 N.am    1  UNL1       -0.2836
     27 H           4.3753    1.6993   30.3060 H       1  UNL1        0.1549
     28 C           3.7913    0.3988   28.6738 C.2     1  UNL1        0.0322
     29 C           4.6948   -0.7223   28.2536 C.2     1  UNL1        0.0122
     30 C           4.6526   -1.2312   26.8432 C.2     1  UNL1        0.0216
     31 C           3.7068   -0.6188   25.8530 C.2     1  UNL1        0.1008
     32 N           3.4434   -0.9085   24.4050 N.2     1  UNL1       -0.1482
     33 N           2.3771    0.0336   23.9303 N.2     1  UNL1       -0.1467
     34 C           1.9814    0.9056   25.0850 C.2     1  UNL1        0.1198
     35 C           2.8032    0.5023   26.2733 C.2     1  UNL1        0.0238
     36 C           2.8455    1.0112   27.6837 C.3     1  UNL1        0.0707
@<TRIPOS>BOND
     1     1     2    1
     2     2     3    2
     3     3    24    1
     4    24    25    2
     5    24    26   am
     6    26    28    1
     7    28    29    2
     8    29    30    1
     9    30    31    2
    10    31    32    1
    11    32    33    2
    12    33    34    1
    13    34    35    2
    14    35    36    1
    15     3     4    1
    16     4     9    1
    17     9    10   ar
    18    10    11   ar
    19    11    12   ar
    20    12    13    1
    21    12    14   ar
    22    14    15   ar
    23    15    16    1
    24     4     5    1
    25     5     6    2
    26     6    17    1
    27    17    18   ar
    28    18    19   ar
    29    19    20   ar
    30    20    21   ar
    31    21    22    1
    32    21    23   ar
    33     6     7    1
    34     7     2    1
    35    36    28    1
    36    15     9   ar
    37    23    17   ar
    38    35    31    1
    39    26    27    1
    40     7     8    1
@<TRIPOS>MOLECULE
*****
 36 40 0 0 0
SMALL
GASTEIGER

@<TRIPOS>ATOM
      1 C          -3.0541    3.6472   20.5503 C.3     1  UNL1        0.0754
      2 C          -1.8564    3.0544   21.2313 C.2     1  UNL1        0.1177
      3 C          -1.6382    3.2821   22.6978 C.2     1  UNL1        0.1165
      4 C          -0.4404    2.6892   23.3789 C.3     1  UNL1        0.2689
      5 N           0.5392    1.8686   22.5934 N.2     1  UNL1       -0.0600
      6 C           0.3210    1.6409   21.1270 C.2     1  UNL1        0.3202
      7 N          -0.8767    2.2337   20.4460 N.pl3   1  UNL1       -0.2028
      8 H          -1.0198    2.0842   19.4835 H       1  UNL1        0.2982
      9 C          -0.2223    2.9170   24.8453 C.ar    1  UNL1        0.0582
     10 C          -0.6363    1.8700   25.8366 C.ar    1  UNL1        0.0033
     11 C          -0.4182    2.0978   27.3031 C.ar    1  UNL1        0.0114
     12 C           0.2140    3.3723   27.7783 C.ar    1  UNL1        0.0599
     13 CL          0.4322    3.6001   29.2448 Cl      1  UNL1       -0.0822
     14 C           0.6281    4.4192   26.7871 C.ar    1  UNL1        0.0408
     15 C           0.4099    4.1915   25.3205 C.ar    1  UNL1        0.1413
     16 F           0.8240    5.2384   24.3292 F       1  UNL1       -0.2043
     17 C           1.3007    0.8203   20.3416 C.ar    1  UNL1        0.0860
     18 C           1.5714    1.1491   18.9033 C.ar    1  UNL1        0.0281
     19 C           2.5510    0.3285   18.1179 C.ar    1  UNL1        0.1001
     20 N           3.2601   -0.8209   18.7707 N.ar    1  UNL1       -0.2324
     21 C           2.9894   -1.1497   20.2090 C.ar    1  UNL1        0.1386
     22 CL          3.6984   -2.2990   20.8618 Cl      1  UNL1       -0.0613
     23 C           2.0097   -0.3291   20.9944 C.ar    1  UNL1        0.0382
     24 C          -2.6179    4.1027   23.4833 C.2     1  UNL1        0.2527
     25 O          -2.4437    5.5895   23.5794 O.2     1  UNL1       -0.2699
     26 N          -3.7716    3.4366   24.1726 N.am    1  UNL1       -0.2836
     27 H          -3.8859    2.4608   24.1095 H       1  UNL1        0.1549
     28 C          -4.7512    4.2573   24.9580 C.2     1  UNL1        0.0322
     29 C          -4.4304    4.6638   26.3657 C.2     1  UNL1        0.0122
     30 C          -5.4101    5.4845   27.1511 C.2     1  UNL1        0.0216
     31 C          -6.7105    5.8986   26.5287 C.2     1  UNL1        0.1008
     32 N          -7.8633    6.7022   27.0533 N.2     1  UNL1       -0.1482
     33 N          -8.8966    6.7923   25.9697 N.2     1  UNL1       -0.1467
     34 C          -8.3824    6.0444   24.7755 C.2     1  UNL1        0.1198
     35 C          -7.0313    5.4920   25.1210 C.2     1  UNL1        0.0238
     36 C          -6.0517    4.6713   24.3356 C.3     1  UNL1        0.0707
@<TRIPOS>BOND
     1     1     2    1
     2     2     3    2
     3     3    24    1
     4    24    25    2
     5    24    26   am
     6    26    28    1
     7    28    29    2
     8    29    30    1
     9    30    31    2
    10    31    32    1
    11    32    33    2
    12    33    34    1
    13    34    35    2
    14    35    36    1
    15     3     4    1
    16     4     9    1
    17     9    10   ar
    18    10    11   ar
    19    11    12   ar
    20    12    13    1
    21    12    14   ar
    22    14    15   ar
    23    15    16    1
    24     4     5    1
    25     5     6    2
    26     6    17    1
    27    17    18   ar
    28    18    19   ar
    29    19    20   ar
    30    20    21   ar
    31    21    22    1
    32    21    23   ar
    33     6     7    1
    34     7     2    1
    35    36    28    1
    36    15     9   ar
    37    23    17   ar
    38    35    31    1
    39    26    27    1
    40     7     8    1
@<TRIPOS>MOLECULE
*****
 36 40 0 0 0
SMALL
GASTEIGER

@<TRIPOS>ATOM
      1 C          -0.7050    3.3363   24.8894 C.3     1  UNL1        0.0754
      2 C          -0.9148    3.0547   23.4312 C.2     1  UNL1        0.1177
      3 C          -2.1205    3.6033   22.7273 C.2     1  UNL1        0.1165
      4 C          -2.3303    3.3217   21.2690 C.3     1  UNL1        0.2689
      5 N          -1.3346    2.4915   20.5146 N.2     1  UNL1       -0.0600
      6 C          -0.1290    1.9428   21.2185 C.2     1  UNL1        0.3202
      7 N           0.0809    2.2244   22.6767 N.pl3   1  UNL1       -0.2028
      8 H           0.8722    1.8643   23.1387 H       1  UNL1        0.2982
      9 C          -3.5359    3.8703   20.5651 C.ar    1  UNL1        0.0582
     10 C          -4.8308    3.1136   20.5948 C.ar    1  UNL1        0.0033
     11 C          -6.0364    3.6622   19.8909 C.ar    1  UNL1        0.0114
     12 C          -5.9473    4.9675   19.1572 C.ar    1  UNL1        0.0599
     13 CL         -7.1529    5.5161   18.4533 Cl      1  UNL1       -0.0822
     14 C          -4.6525    5.7242   19.1275 C.ar    1  UNL1        0.0408
     15 C          -3.4468    5.1755   19.8314 C.ar    1  UNL1        0.1413
     16 F          -2.1519    5.9323   19.8017 F       1  UNL1       -0.2043
     17 C           0.8668    1.1126   20.4640 C.ar    1  UNL1        0.0860
     18 C           1.0396    1.3073   18.9868 C.ar    1  UNL1        0.0281
     19 C           2.0353    0.4771   18.2323 C.ar    1  UNL1        0.1001
     20 N           2.8582   -0.5478   18.9550 N.ar    1  UNL1       -0.2324
     21 C           2.6854   -0.7426   20.4322 C.ar    1  UNL1        0.1386
     22 CL          3.5082   -1.7675   21.1549 Cl      1  UNL1       -0.0613
     23 C           1.6896    0.0877   21.1867 C.ar    1  UNL1        0.0382
     24 C          -3.1163    4.4336   23.4817 C.2     1  UNL1        0.2527
     25 O          -3.0124    5.9299   23.4632 O.2     1  UNL1       -0.2699
     26 N          -4.2159    3.7675   24.2545 N.am    1  UNL1       -0.2836
     27 H          -4.2840    2.7855   24.2666 H       1  UNL1        0.1549
     28 C          -5.2116    4.5979   25.0089 C.2     1  UNL1        0.0322
     29 C          -4.9574    4.9542   26.4435 C.2     1  UNL1        0.0122
     30 C          -5.9532    5.7846   27.1979 C.2     1  UNL1        0.0216
     31 C          -7.2032    6.2585   26.5176 C.2     1  UNL1        0.1008
     32 N          -8.3577    7.0847   27.0016 N.2     1  UNL1       -0.1482
     33 N          -9.3255    7.2390   25.8659 N.2     1  UNL1       -0.1467
     34 C          -8.7691    6.5081   24.6801 C.2     1  UNL1        0.1198
     35 C          -7.4574    5.9021   25.0828 C.2     1  UNL1        0.0238
     36 C          -6.4616    5.0718   24.3285 C.3     1  UNL1        0.0707
@<TRIPOS>BOND
     1     1     2    1
     2     2     3    2
     3     3    24    1
     4    24    25    2
     5    24    26   am
     6    26    28    1
     7    28    29    2
     8    29    30    1
     9    30    31    2
    10    31    32    1
    11    32    33    2
    12    33    34    1
    13    34    35    2
    14    35    36    1
    15     3     4    1
    16     4     9    1
    17     9    10   ar
    18    10    11   ar
    19    11    12   ar
    20    12    13    1
    21    12    14   ar
    22    14    15   ar
    23    15    16    1
    24     4     5    1
    25     5     6    2
    26     6    17    1
    27    17    18   ar
    28    18    19   ar
    29    19    20   ar
    30    20    21   ar
    31    21    22    1
    32    21    23   ar
    33     6     7    1
    34     7     2    1
    35    36    28    1
    36    15     9   ar
    37    23    17   ar
    38    35    31    1
    39    26    27    1
    40     7     8    1
@<TRIPOS>MOLECULE
*****
 36 40 0 0 0
SMALL
GASTEIGER

@<TRIPOS>ATOM
      1 C           3.3729    0.9969   33.7720 C.3     1  UNL1        0.0754
      2 C           2.4326    1.8545   32.9782 C.2     1  UNL1        0.1177
      3 C           2.1609    1.5353   31.5379 C.2     1  UNL1        0.1165
      4 C           1.2205    2.3929   30.7441 C.3     1  UNL1        0.2689
      5 N           0.5517    3.5697   31.3905 N.2     1  UNL1       -0.0600
      6 C           0.8233    3.8888   32.8308 C.2     1  UNL1        0.3202
      7 N           1.7637    3.0313   33.6246 N.pl3   1  UNL1       -0.2028
      8 H           1.9419    3.2408   34.5699 H       1  UNL1        0.2982
      9 C           0.9489    2.0737   29.3038 C.ar    1  UNL1        0.0582
     10 C           1.8594    2.6004   28.2344 C.ar    1  UNL1        0.0033
     11 C           1.5878    2.2812   26.7941 C.ar    1  UNL1        0.0114
     12 C           0.4057    1.4355   26.4232 C.ar    1  UNL1        0.0599
     13 CL          0.1341    1.1163   24.9830 Cl      1  UNL1       -0.0822
     14 C          -0.5047    0.9089   27.4927 C.ar    1  UNL1        0.0408
     15 C          -0.2331    1.2281   28.9331 C.ar    1  UNL1        0.1413
     16 F          -1.1436    0.7014   30.0025 F       1  UNL1       -0.2043
     17 C           0.1544    5.0656   33.4772 C.ar    1  UNL1        0.0860
     18 C           0.6953    5.6243   34.7599 C.ar    1  UNL1        0.0281
     19 C           0.0265    6.8011   35.4064 C.ar    1  UNL1        0.1001
     20 N          -1.1831    7.4192   34.7701 N.ar    1  UNL1       -0.2324
     21 C          -1.7240    6.8605   33.4874 C.ar    1  UNL1        0.1386
     22 CL         -2.9335    7.4785   32.8511 Cl      1  UNL1       -0.0613
     23 C          -1.0551    5.6837   32.8410 C.ar    1  UNL1        0.0382
     24 C           2.8298    0.3585   30.8914 C.2     1  UNL1        0.2527
     25 O           2.1271   -0.9655   30.8346 O.2     1  UNL1       -0.2699
     26 N           4.2011    0.5058   30.3019 N.am    1  UNL1       -0.2836
     27 H           4.6623    1.3749   30.3392 H       1  UNL1        0.1549
     28 C           4.8699   -0.6710   29.6554 C.2     1  UNL1        0.0322
     29 C           4.6596   -0.9447   28.1958 C.2     1  UNL1        0.0122
     30 C           5.3284   -2.1216   27.5493 C.2     1  UNL1        0.0216
     31 C           6.2075   -3.0246   28.3627 C.2     1  UNL1        0.1008
     32 N           6.9924   -4.2513   28.0032 N.2     1  UNL1       -0.1482
     33 N           7.6879   -4.7357   29.2409 N.2     1  UNL1       -0.1467
     34 C           7.3327   -3.8084   30.3652 C.2     1  UNL1        0.1198
     35 C           6.4178   -2.7509   29.8224 C.2     1  UNL1        0.0238
     36 C           5.7490   -1.5741   30.4688 C.3     1  UNL1        0.0707
@<TRIPOS>BOND
     1     1     2    1
     2     2     3    2
     3     3    24    1
     4    24    25    2
     5    24    26   am
     6    26    28    1
     7    28    29    2
     8    29    30    1
     9    30    31    2
    10    31    32    1
    11    32    33    2
    12    33    34    1
    13    34    35    2
    14    35    36    1
    15     3     4    1
    16     4     9    1
    17     9    10   ar
    18    10    11   ar
    19    11    12   ar
    20    12    13    1
    21    12    14   ar
    22    14    15   ar
    23    15    16    1
    24     4     5    1
    25     5     6    2
    26     6    17    1
    27    17    18   ar
    28    18    19   ar
    29    19    20   ar
    30    20    21   ar
    31    21    22    1
    32    21    23   ar
    33     6     7    1
    34     7     2    1
    35    36    28    1
    36    15     9   ar
    37    23    17   ar
    38    35    31    1
    39    26    27    1
    40     7     8    1
@<TRIPOS>MOLECULE
*****
 36 40 0 0 0
SMALL
GASTEIGER

@<TRIPOS>ATOM
      1 C           4.5017   -1.1295   26.7611 C.3     1  UNL1        0.0754
      2 C           5.1453   -1.9371   27.8489 C.2     1  UNL1        0.1177
      3 C           5.0578   -1.4794   29.2748 C.2     1  UNL1        0.1165
      4 C           5.7015   -2.2870   30.3626 C.3     1  UNL1        0.2689
      5 N           6.4327   -3.5524   30.0247 N.2     1  UNL1       -0.0600
      6 C           6.5202   -4.0101   28.5989 C.2     1  UNL1        0.3202
      7 N           5.8765   -3.2025   27.5111 N.pl3   1  UNL1       -0.2028
      8 H           5.9340   -3.5030   26.5754 H       1  UNL1        0.2982
      9 C           5.6140   -1.8293   31.7884 C.ar    1  UNL1        0.0582
     10 C           4.4288   -2.2080   32.6262 C.ar    1  UNL1        0.0033
     11 C           4.3413   -1.7503   34.0520 C.ar    1  UNL1        0.0114
     12 C           5.4389   -0.9139   34.6400 C.ar    1  UNL1        0.0599
     13 CL          5.3514   -0.4562   36.0658 Cl      1  UNL1       -0.0822
     14 C           6.6240   -0.5352   33.8021 C.ar    1  UNL1        0.0408
     15 C           6.7115   -0.9929   32.3763 C.ar    1  UNL1        0.1413
     16 F           7.8968   -0.6142   31.5384 F       1  UNL1       -0.2043
     17 C           7.2514   -5.2755   28.2611 C.ar    1  UNL1        0.0860
     18 C           8.0570   -5.9797   29.3123 C.ar    1  UNL1        0.0281
     19 C           8.7882   -7.2450   28.9745 C.ar    1  UNL1        0.1001
     20 N           8.7138   -7.8063   27.5855 N.ar    1  UNL1       -0.2324
     21 C           7.9082   -7.1022   26.5342 C.ar    1  UNL1        0.1386
     22 CL          7.8338   -7.6634   25.1452 Cl      1  UNL1       -0.0613
     23 C           7.1770   -5.8367   26.8721 C.ar    1  UNL1        0.0382
     24 C           4.3266   -0.2140   29.6127 C.2     1  UNL1        0.2527
     25 O           5.0236    1.1091   29.4952 O.2     1  UNL1       -0.2699
     26 N           2.8986   -0.2717   30.0681 N.am    1  UNL1       -0.2836
     27 H           2.4412   -1.1401   30.1452 H       1  UNL1        0.1549
     28 C           2.1675    0.9937   30.4060 C.2     1  UNL1        0.0322
     29 C           1.4206    1.7364   29.3381 C.2     1  UNL1        0.0122
     30 C           0.6894    3.0019   29.6761 C.2     1  UNL1        0.0216
     31 C           0.7052    3.5245   31.0820 C.2     1  UNL1        0.1008
     32 N           0.0817    4.7359   31.7095 N.2     1  UNL1       -0.1482
     33 N           0.4432    4.7418   33.1652 N.2     1  UNL1       -0.1467
     34 C           1.2902    3.5341   33.4374 C.2     1  UNL1        0.1198
     35 C           1.4522    2.7818   32.1499 C.2     1  UNL1        0.0238
     36 C           2.1833    1.5164   31.8119 C.3     1  UNL1        0.0707
@<TRIPOS>BOND
     1     1     2    1
     2     2     3    2
     3     3    24    1
     4    24    25    2
     5    24    26   am
     6    26    28    1
     7    28    29    2
     8    29    30    1
     9    30    31    2
    10    31    32    1
    11    32    33    2
    12    33    34    1
    13    34    35    2
    14    35    36    1
    15     3     4    1
    16     4     9    1
    17     9    10   ar
    18    10    11   ar
    19    11    12   ar
    20    12    13    1
    21    12    14   ar
    22    14    15   ar
    23    15    16    1
    24     4     5    1
    25     5     6    2
    26     6    17    1
    27    17    18   ar
    28    18    19   ar
    29    19    20   ar
    30    20    21   ar
    31    21    22    1
    32    21    23   ar
    33     6     7    1
    34     7     2    1
    35    36    28    1
    36    15     9   ar
    37    23    17   ar
    38    35    31    1
    39    26    27    1
    40     7     8    1
@<TRIPOS>MOLECULE
*****
 36 40 0 0 0
SMALL
GASTEIGER

@<TRIPOS>ATOM
      1 C          -2.7066    3.3810   20.1283 C.3     1  UNL1        0.0754
      2 C          -2.5635    3.5214   21.6148 C.2     1  UNL1        0.1177
      3 C          -1.2948    3.0916   22.2901 C.2     1  UNL1        0.1165
      4 C          -1.1517    3.2320   23.7766 C.3     1  UNL1        0.2689
      5 N          -2.2771    3.8022   24.5879 N.2     1  UNL1       -0.0600
      6 C          -3.5457    4.2319   23.9127 C.2     1  UNL1        0.3202
      7 N          -3.6889    4.0915   22.4262 N.pl3   1  UNL1       -0.2028
      8 H          -4.5215    4.3736   21.9831 H       1  UNL1        0.2982
      9 C           0.1169    2.8023   24.4518 C.ar    1  UNL1        0.0582
     10 C           0.2537    1.4008   24.9690 C.ar    1  UNL1        0.0033
     11 C           1.5222    0.9711   25.6442 C.ar    1  UNL1        0.0114
     12 C           2.6541    1.9427   25.8024 C.ar    1  UNL1        0.0599
     13 CL          3.9227    1.5129   26.4776 Cl      1  UNL1       -0.0822
     14 C           2.5174    3.3440   25.2852 C.ar    1  UNL1        0.0408
     15 C           1.2487    3.7738   24.6099 C.ar    1  UNL1        0.1413
     16 F           1.1120    5.1753   24.0928 F       1  UNL1       -0.2043
     17 C          -4.6712    4.8021   24.7241 C.ar    1  UNL1        0.0860
     18 C          -4.4535    5.1524   26.1662 C.ar    1  UNL1        0.0281
     19 C          -5.5789    5.7226   26.9777 C.ar    1  UNL1        0.1001
     20 N          -6.9220    5.9425   26.3469 N.ar    1  UNL1       -0.2324
     21 C          -7.1397    5.5922   24.9047 C.ar    1  UNL1        0.1386
     22 CL         -8.4826    5.8120   24.2740 Cl      1  UNL1       -0.0613
     23 C          -6.0142    5.0220   24.0933 C.ar    1  UNL1        0.0382
     24 C          -0.1693    2.5214   21.4787 C.2     1  UNL1        0.2527
     25 O           0.9813    3.3948   21.0746 O.2     1  UNL1       -0.2699
     26 N          -0.1945    1.0780   21.0716 N.am    1  UNL1       -0.2836
     27 H          -0.9497    0.5048   21.3369 H       1  UNL1        0.1549
     28 C           0.9310    0.5078   20.2603 C.2     1  UNL1        0.0322
     29 C           1.1437    0.9648   18.8476 C.2     1  UNL1        0.0122
     30 C           2.2693    0.3947   18.0363 C.2     1  UNL1        0.0216
     31 C           3.1820   -0.6325   18.6378 C.2     1  UNL1        0.1008
     32 N           4.3670   -1.3683   18.0860 N.2     1  UNL1       -0.1482
     33 N           4.8866   -2.2800   19.1578 N.2     1  UNL1       -0.1467
     34 C           4.0228   -2.1077   20.3719 C.2     1  UNL1        0.1198
     35 C           2.9693   -1.0894   20.0506 C.2     1  UNL1        0.0238
     36 C           1.8438   -0.5193   20.8618 C.3     1  UNL1        0.0707
@<TRIPOS>BOND
     1     1     2    1
     2     2     3    2
     3     3    24    1
     4    24    25    2
     5    24    26   am
     6    26    28    1
     7    28    29    2
     8    29    30    1
     9    30    31    2
    10    31    32    1
    11    32    33    2
    12    33    34    1
    13    34    35    2
    14    35    36    1
    15     3     4    1
    16     4     9    1
    17     9    10   ar
    18    10    11   ar
    19    11    12   ar
    20    12    13    1
    21    12    14   ar
    22    14    15   ar
    23    15    16    1
    24     4     5    1
    25     5     6    2
    26     6    17    1
    27    17    18   ar
    28    18    19   ar
    29    19    20   ar
    30    20    21   ar
    31    21    22    1
    32    21    23   ar
    33     6     7    1
    34     7     2    1
    35    36    28    1
    36    15     9   ar
    37    23    17   ar
    38    35    31    1
    39    26    27    1
    40     7     8    1
@<TRIPOS>MOLECULE
*****
 36 40 0 0 0
SMALL
GASTEIGER

@<TRIPOS>ATOM
      1 C           0.7066    2.6708   24.5143 C.3     1  UNL1        0.0754
      2 C           0.5264    2.3690   23.0562 C.2     1  UNL1        0.1177
      3 C           1.4892    1.4577   22.3543 C.2     1  UNL1        0.1165
      4 C           1.3090    1.1560   20.8960 C.3     1  UNL1        0.2689
      5 N           0.1660    1.7654   20.1397 N.2     1  UNL1       -0.0600
      6 C          -0.7969    2.6765   20.8416 C.2     1  UNL1        0.3202
      7 N          -0.6167    2.9783   22.2997 N.pl3   1  UNL1       -0.2028
      8 H          -1.2486    3.5764   22.7604 H       1  UNL1        0.2982
      9 C           2.2718    0.2448   20.1941 C.ar    1  UNL1        0.0582
     10 C           2.1550   -1.2415   20.3605 C.ar    1  UNL1        0.0033
     11 C           3.1178   -2.1526   19.6586 C.ar    1  UNL1        0.0114
     12 C           4.1975   -1.5778   18.7903 C.ar    1  UNL1        0.0599
     13 CL          5.1603   -2.4889   18.0884 Cl      1  UNL1       -0.0822
     14 C           4.3143   -0.0916   18.6240 C.ar    1  UNL1        0.0408
     15 C           3.3514    0.8197   19.3259 C.ar    1  UNL1        0.1413
     16 F           3.4683    2.3059   19.1596 F       1  UNL1       -0.2043
     17 C          -1.9399    3.2859   20.0852 C.ar    1  UNL1        0.0860
     18 C          -1.6957    3.9456   18.7603 C.ar    1  UNL1        0.0281
     19 C          -2.8387    4.5550   18.0039 C.ar    1  UNL1        0.1001
     20 N          -4.2259    4.5047   18.5723 N.ar    1  UNL1       -0.2324
     21 C          -4.4702    3.8451   19.8971 C.ar    1  UNL1        0.1386
     22 CL         -5.8573    3.7948   20.4655 Cl      1  UNL1       -0.0613
     23 C          -3.3271    3.2357   20.6536 C.ar    1  UNL1        0.0382
     24 C           2.6323    0.8483   23.1106 C.2     1  UNL1        0.2527
     25 O           3.9856    1.4944   23.0732 O.2     1  UNL1       -0.2699
     26 N           2.4221   -0.4070   23.9042 N.am    1  UNL1       -0.2836
     27 H           1.5339   -0.8310   23.9287 H       1  UNL1        0.1549
     28 C           3.5652   -1.0164   24.6605 C.2     1  UNL1        0.0322
     29 C           3.7928   -0.6520   26.0976 C.2     1  UNL1        0.0122
     30 C           4.9360   -1.2614   26.8540 C.2     1  UNL1        0.0216
     31 C           5.8514   -2.2352   26.1731 C.2     1  UNL1        0.1008
     32 N           7.0521   -2.9918   26.6586 N.2     1  UNL1       -0.1482
     33 N           7.5666   -3.8239   25.5215 N.2     1  UNL1       -0.1467
     34 C           6.6838   -3.5815   24.3332 C.2     1  UNL1        0.1198
     35 C           5.6238   -2.5996   24.7359 C.2     1  UNL1        0.0238
     36 C           4.4807   -1.9902   23.9796 C.3     1  UNL1        0.0707
@<TRIPOS>BOND
     1     1     2    1
     2     2     3    2
     3     3    24    1
     4    24    25    2
     5    24    26   am
     6    26    28    1
     7    28    29    2
     8    29    30    1
     9    30    31    2
    10    31    32    1
    11    32    33    2
    12    33    34    1
    13    34    35    2
    14    35    36    1
    15     3     4    1
    16     4     9    1
    17     9    10   ar
    18    10    11   ar
    19    11    12   ar
    20    12    13    1
    21    12    14   ar
    22    14    15   ar
    23    15    16    1
    24     4     5    1
    25     5     6    2
    26     6    17    1
    27    17    18   ar
    28    18    19   ar
    29    19    20   ar
    30    20    21   ar
    31    21    22    1
    32    21    23   ar
    33     6     7    1
    34     7     2    1
    35    36    28    1
    36    15     9   ar
    37    23    17   ar
    38    35    31    1
    39    26    27    1
    40     7     8    1
@<TRIPOS>MOLECULE
*****
 36 40 0 0 0
SMALL
GASTEIGER

@<TRIPOS>ATOM
      1 C          -4.7105    4.0298   25.1144 C.3     1  UNL1        0.0754
      2 C          -3.2798    3.5813   25.0728 C.2     1  UNL1        0.1177
      3 C          -2.5099    3.6480   23.7870 C.2     1  UNL1        0.1165
      4 C          -1.0792    3.1994   23.7454 C.3     1  UNL1        0.2689
      5 N          -0.4182    2.6841   24.9895 N.2     1  UNL1       -0.0600
      6 C          -1.1881    2.6174   26.2751 C.2     1  UNL1        0.3202
      7 N          -2.6187    3.0659   26.3167 N.pl3   1  UNL1       -0.2028
      8 H          -3.1240    3.0221   27.1606 H       1  UNL1        0.2982
      9 C          -0.3094    3.2662   22.4598 C.ar    1  UNL1        0.0582
     10 C          -0.2095    2.0541   21.5817 C.ar    1  UNL1        0.0033
     11 C           0.5604    2.1208   20.2961 C.ar    1  UNL1        0.0114
     12 C           1.2303    3.3995   19.8884 C.ar    1  UNL1        0.0599
     13 CL          2.0001    3.4662   18.6028 Cl      1  UNL1       -0.0822
     14 C           1.1304    4.6115   20.7665 C.ar    1  UNL1        0.0408
     15 C           0.3605    4.5448   22.0522 C.ar    1  UNL1        0.1413
     16 F           0.2606    5.7569   22.9303 F       1  UNL1       -0.2043
     17 C          -0.5271    2.1020   27.5191 C.ar    1  UNL1        0.0860
     18 C          -0.5864    0.6400   27.8493 C.ar    1  UNL1        0.0281
     19 C           0.0746    0.1247   29.0932 C.ar    1  UNL1        0.1001
     20 N           0.7949    1.0713   30.0071 N.ar    1  UNL1       -0.2324
     21 C           0.8542    2.5333   29.6770 C.ar    1  UNL1        0.1386
     22 CL          1.5744    3.4799   30.5908 Cl      1  UNL1       -0.0613
     23 C           0.1932    3.0486   28.4329 C.ar    1  UNL1        0.0382
     24 C          -3.1709    4.1633   22.5430 C.2     1  UNL1        0.2527
     25 O          -3.0941    5.6222   22.2023 O.2     1  UNL1       -0.2699
     26 N          -3.9085    3.2199   21.6398 N.am    1  UNL1       -0.2836
     27 H          -3.9588    2.2625   21.8635 H       1  UNL1        0.1549
     28 C          -4.5694    3.7353   20.3957 C.2     1  UNL1        0.0322
     29 C          -3.8393    3.6935   19.0862 C.2     1  UNL1        0.0122
     30 C          -4.5002    4.2089   17.8421 C.2     1  UNL1        0.0216
     31 C          -5.8913    4.7661   17.9078 C.2     1  UNL1        0.1008
     32 N          -6.7924    5.3421   16.8560 N.2     1  UNL1       -0.1482
     33 N          -8.0795    5.7399   17.5157 N.2     1  UNL1       -0.1467
     34 C          -7.9739    5.4097   18.9751 C.2     1  UNL1        0.1198
     35 C          -6.6215    4.8078   19.2174 C.2     1  UNL1        0.0238
     36 C          -5.9605    4.2924   20.4614 C.3     1  UNL1        0.0707
@<TRIPOS>BOND
     1     1     2    1
     2     2     3    2
     3     3    24    1
     4    24    25    2
     5    24    26   am
     6    26    28    1
     7    28    29    2
     8    29    30    1
     9    30    31    2
    10    31    32    1
    11    32    33    2
    12    33    34    1
    13    34    35    2
    14    35    36    1
    15     3     4    1
    16     4     9    1
    17     9    10   ar
    18    10    11   ar
    19    11    12   ar
    20    12    13    1
    21    12    14   ar
    22    14    15   ar
    23    15    16    1
    24     4     5    1
    25     5     6    2
    26     6    17    1
    27    17    18   ar
    28    18    19   ar
    29    19    20   ar
    30    20    21   ar
    31    21    22    1
    32    21    23   ar
    33     6     7    1
    34     7     2    1
    35    36    28    1
    36    15     9   ar
    37    23    17   ar
    38    35    31    1
    39    26    27    1
    40     7     8    1
@<TRIPOS>MOLECULE
*****
 36 40 0 0 0
SMALL
GASTEIGER

@<TRIPOS>ATOM
      1 C          -0.2152    1.5862   24.6059 C.3     1  UNL1        0.0754
      2 C           1.0660    0.8897   24.2550 C.2     1  UNL1        0.1177
      3 C           1.4455    0.6973   22.8166 C.2     1  UNL1        0.1165
      4 C           2.7268    0.0007   22.4657 C.3     1  UNL1        0.2689
      5 N           3.6286   -0.5035   23.5532 N.2     1  UNL1       -0.0600
      6 C           3.2490   -0.3110   24.9916 C.2     1  UNL1        0.3202
      7 N           1.9678    0.3855   25.3424 N.pl3   1  UNL1       -0.2028
      8 H           1.7188    0.5117   26.2865 H       1  UNL1        0.2982
      9 C           3.1064   -0.1917   21.0274 C.ar    1  UNL1        0.0582
     10 C           3.0326   -1.5561   20.4083 C.ar    1  UNL1        0.0033
     11 C           3.4122   -1.7485   18.9700 C.ar    1  UNL1        0.0114
     12 C           3.8655   -0.5767   18.1506 C.ar    1  UNL1        0.0599
     13 CL          4.2450   -0.7691   16.7122 Cl      1  UNL1       -0.0822
     14 C           3.9392    0.7876   18.7696 C.ar    1  UNL1        0.0408
     15 C           3.5596    0.9801   20.2081 C.ar    1  UNL1        0.1413
     16 F           3.6334    2.3445   20.8271 F       1  UNL1       -0.2043
     17 C           4.1508   -0.8152   26.0791 C.ar    1  UNL1        0.0860
     18 C           5.4076   -1.5551   25.7283 C.ar    1  UNL1        0.0281
     19 C           6.3094   -2.0593   26.8157 C.ar    1  UNL1        0.1001
     20 N           5.9545   -1.8237   28.2539 N.ar    1  UNL1       -0.2324
     21 C           4.6977   -1.0838   28.6047 C.ar    1  UNL1        0.1386
     22 CL          4.3428   -0.8481   30.0428 Cl      1  UNL1       -0.0613
     23 C           3.7959   -0.5796   27.5172 C.ar    1  UNL1        0.0382
     24 C           0.5438    1.2014   21.7291 C.2     1  UNL1        0.2527
     25 O          -0.2421    0.2319   20.8969 O.2     1  UNL1       -0.2699
     26 N           0.4280    2.6750   21.4738 N.am    1  UNL1       -0.2836
     27 H           0.9438    3.3113   22.0200 H       1  UNL1        0.1549
     28 C          -0.4739    3.1791   20.3863 C.2     1  UNL1        0.0322
     29 C           0.1035    3.5956   19.0661 C.2     1  UNL1        0.0122
     30 C          -0.7983    4.0997   17.9785 C.2     1  UNL1        0.0216
     31 C          -2.2775    4.1873   18.2113 C.2     1  UNL1        0.1008
     32 N          -3.4064    4.6409   17.3340 N.2     1  UNL1       -0.1482
     33 N          -4.6816    4.5047   18.1121 N.2     1  UNL1       -0.1467
     34 C          -4.3407    3.9670   19.4703 C.2     1  UNL1        0.1198
     35 C          -2.8549    3.7708   19.5316 C.2     1  UNL1        0.0238
     36 C          -1.9531    3.2667   20.6191 C.3     1  UNL1        0.0707
@<TRIPOS>BOND
     1     1     2    1
     2     2     3    2
     3     3    24    1
     4    24    25    2
     5    24    26   am
     6    26    28    1
     7    28    29    2
     8    29    30    1
     9    30    31    2
    10    31    32    1
    11    32    33    2
    12    33    34    1
    13    34    35    2
    14    35    36    1
    15     3     4    1
    16     4     9    1
    17     9    10   ar
    18    10    11   ar
    19    11    12   ar
    20    12    13    1
    21    12    14   ar
    22    14    15   ar
    23    15    16    1
    24     4     5    1
    25     5     6    2
    26     6    17    1
    27    17    18   ar
    28    18    19   ar
    29    19    20   ar
    30    20    21   ar
    31    21    22    1
    32    21    23   ar
    33     6     7    1
    34     7     2    1
    35    36    28    1
    36    15     9   ar
    37    23    17   ar
    38    35    31    1
    39    26    27    1
    40     7     8    1
