@<TRIPOS>MOLECULE
*****
 32 35 0 0 0
SMALL
GASTEIGER

@<TRIPOS>ATOM
      1 O         -10.7597  -19.0733   19.9000 O.3     1  UNL1       -0.4754
      2 C          -6.5442  -19.8186   21.2875 C.ar    1  UNL1       -0.0059
      3 C          -6.8595  -19.8032   19.8210 C.ar    1  UNL1        0.0002
      4 C          -8.2647  -19.5548   19.3586 C.ar    1  UNL1        0.0366
      5 C          -9.3545  -19.3217   20.3625 C.ar    1  UNL1        0.1385
      6 C          -9.0393  -19.3372   21.8289 C.ar    1  UNL1        0.0366
      7 C          -7.6341  -19.5856   22.2914 C.ar    1  UNL1        0.0002
      8 C          -5.1391  -20.0671   21.7499 C.3     1  UNL1        0.0992
      9 F          -1.3094  -15.8044   21.6820 F       1  UNL1       -0.2042
     10 C          -1.9476  -16.9827   21.0079 C.3     1  UNL1        0.2666
     11 F          -0.9559  -16.5857   19.9548 F       1  UNL1       -0.2042
     12 C          -2.2414  -18.0231   19.9681 C.3     1  UNL1        0.0839
     13 C          -3.3053  -19.0512   20.2154 C.3     1  UNL1        0.0780
     14 N          -4.0753  -19.0390   21.5026 N.3     1  UNL1       -0.2686
     15 C          -3.7815  -17.9986   22.5424 C.3     1  UNL1        0.0780
     16 C          -2.7176  -16.9705   22.2950 C.3     1  UNL1        0.0839
     17 C         -11.3082  -17.6773   19.8839 C.3     1  UNL1        0.2068
     18 C         -12.4674  -17.3169   20.7650 C.3     1  UNL1        0.0646
     19 C         -12.5695  -17.8967   22.1447 C.3     1  UNL1        0.0759
     20 N         -11.5035  -17.6089   23.1600 N.3     1  UNL1       -0.2726
     21 C         -10.7237  -16.3297   23.0866 C.3     1  UNL1        0.0721
     22 C          -9.6577  -16.0418   24.1020 C.3     1  UNL1        0.0178
     23 C          -9.3715  -17.0333   25.1906 C.3     1  UNL1        0.0087
     24 C         -10.1514  -18.3126   25.2639 C.3     1  UNL1        0.0178
     25 C         -11.2174  -18.6004   24.2486 C.3     1  UNL1        0.0721
     26 C          -8.3056  -16.7455   26.2059 C.3     1  UNL1        0.0453
     27 C          -7.0547  -16.0257   25.7967 C.ar    1  UNL1        0.0541
     28 C          -6.2057  -15.1612   26.6807 C.ar    1  UNL1        0.1131
     29 N          -5.0596  -14.6453   25.8620 N.ar    1  UNL1       -0.2229
     30 C          -5.2003  -15.1910   24.4718 C.ar    1  UNL1        0.1748
     31 N          -6.4335  -16.0442   24.4315 N.ar    1  UNL1       -0.3382
     32 H          -6.7751  -16.5309   23.6468 H       1  UNL1        0.1672
@<TRIPOS>BOND
     1     9    10    1
     2    10    11    1
     3    10    12    1
     4    12    13    1
     5    13    14    1
     6    14     8    1
     7     8     2    1
     8     2     3   ar
     9     3     4   ar
    10     4     5   ar
    11     5     1    1
    12     1    17    1
    13    17    18    1
    14    18    19    1
    15    19    20    1
    16    20    21    1
    17    21    22    1
    18    22    23    1
    19    23    26    1
    20    26    27    1
    21    27    28   ar
    22    28    29   ar
    23    29    30   ar
    24    30    31   ar
    25    23    24    1
    26    24    25    1
    27     5     6   ar
    28     6     7   ar
    29    14    15    1
    30    15    16    1
    31    16    10    1
    32     7     2   ar
    33    25    20    1
    34    31    27   ar
    35    31    32    1
@<TRIPOS>MOLECULE
*****
 32 35 0 0 0
SMALL
GASTEIGER

@<TRIPOS>ATOM
      1 O         -10.9087  -18.9335   20.2864 O.3     1  UNL1       -0.4754
      2 C          -6.6336  -19.8298   21.3683 C.ar    1  UNL1       -0.0059
      3 C          -7.0344  -19.7154   19.9273 C.ar    1  UNL1        0.0002
      4 C          -8.4594  -19.4166   19.5667 C.ar    1  UNL1        0.0366
      5 C          -9.4836  -19.2323   20.6470 C.ar    1  UNL1        0.1385
      6 C          -9.0828  -19.3467   22.0879 C.ar    1  UNL1        0.0366
      7 C          -7.6578  -19.6455   22.4486 C.ar    1  UNL1        0.0002
      8 C          -5.2086  -20.1286   21.7289 C.3     1  UNL1        0.0992
      9 F          -1.3812  -15.8633   21.7360 F       1  UNL1       -0.2042
     10 C          -2.0170  -17.0314   21.0422 C.3     1  UNL1        0.2666
     11 F          -1.0229  -16.6178   19.9978 F       1  UNL1       -0.2042
     12 C          -2.3076  -18.0559   19.9859 C.3     1  UNL1        0.0839
     13 C          -3.3715  -19.0883   20.2147 C.3     1  UNL1        0.0780
     14 N          -4.1447  -19.0962   21.5000 N.3     1  UNL1       -0.2686
     15 C          -3.8541  -18.0718   22.5564 C.3     1  UNL1        0.0780
     16 C          -2.7903  -17.0394   22.3275 C.3     1  UNL1        0.0839
     17 C         -11.9758  -18.9868   21.3392 C.3     1  UNL1        0.2068
     18 C         -12.9562  -17.8592   21.4711 C.3     1  UNL1        0.0646
     19 C         -12.4633  -16.4498   21.6151 C.3     1  UNL1        0.0759
     20 N         -11.0511  -16.1897   22.0485 N.3     1  UNL1       -0.2726
     21 C         -10.6334  -16.4829   23.4590 C.3     1  UNL1        0.0721
     22 C          -9.2211  -16.2228   23.8925 C.3     1  UNL1        0.0178
     23 C          -8.2265  -15.6695   22.9154 C.3     1  UNL1        0.0087
     24 C          -8.6443  -15.3763   21.5048 C.3     1  UNL1        0.0178
     25 C         -10.0565  -15.6364   21.0714 C.3     1  UNL1        0.0721
     26 C          -6.8143  -15.4094   23.3488 C.3     1  UNL1        0.0453
     27 C          -6.4509  -15.4794   24.8025 C.ar    1  UNL1        0.0541
     28 C          -5.1787  -16.0382   25.3673 C.ar    1  UNL1        0.1131
     29 N          -5.2374  -15.9071   26.8604 N.ar    1  UNL1       -0.2229
     30 C          -6.5461  -15.2672   27.2184 C.ar    1  UNL1        0.1748
     31 N          -7.2961  -15.0029   25.9464 N.ar    1  UNL1       -0.3382
     32 H          -8.1866  -14.5893   25.8750 H       1  UNL1        0.1672
@<TRIPOS>BOND
     1     9    10    1
     2    10    11    1
     3    10    12    1
     4    12    13    1
     5    13    14    1
     6    14     8    1
     7     8     2    1
     8     2     3   ar
     9     3     4   ar
    10     4     5   ar
    11     5     1    1
    12     1    17    1
    13    17    18    1
    14    18    19    1
    15    19    20    1
    16    20    21    1
    17    21    22    1
    18    22    23    1
    19    23    26    1
    20    26    27    1
    21    27    28   ar
    22    28    29   ar
    23    29    30   ar
    24    30    31   ar
    25    23    24    1
    26    24    25    1
    27     5     6   ar
    28     6     7   ar
    29    14    15    1
    30    15    16    1
    31    16    10    1
    32     7     2   ar
    33    25    20    1
    34    31    27   ar
    35    31    32    1
@<TRIPOS>MOLECULE
*****
 32 35 0 0 0
SMALL
GASTEIGER

@<TRIPOS>ATOM
      1 O         -10.8607  -18.9608   20.4150 O.3     1  UNL1       -0.4754
      2 C          -6.5604  -20.1098   21.0767 C.ar    1  UNL1       -0.0059
      3 C          -7.1508  -20.1749   19.6992 C.ar    1  UNL1        0.0002
      4 C          -8.5841  -19.7919   19.4787 C.ar    1  UNL1        0.0366
      5 C          -9.4273  -19.3438   20.6356 C.ar    1  UNL1        0.1385
      6 C          -8.8370  -19.2788   22.0130 C.ar    1  UNL1        0.0366
      7 C          -7.4036  -19.6618   22.2336 C.ar    1  UNL1        0.0002
      8 C          -5.1270  -20.4928   21.2972 C.3     1  UNL1        0.0992
      9 F          -1.6555  -17.1219   18.2268 F       1  UNL1       -0.2042
     10 C          -1.8413  -18.1637   19.2900 C.3     1  UNL1        0.2666
     11 F          -0.3490  -18.0159   19.3281 F       1  UNL1       -0.2042
     12 C          -1.5089  -19.1540   20.3664 C.3     1  UNL1        0.0839
     13 C          -2.6041  -19.9304   21.0355 C.3     1  UNL1        0.0780
     14 N          -4.0318  -19.7165   20.6282 N.3     1  UNL1       -0.2686
     15 C          -4.3642  -18.7261   19.5518 C.3     1  UNL1        0.0780
     16 C          -3.2689  -17.9497   18.8827 C.3     1  UNL1        0.0839
     17 C         -11.7918  -18.8347   21.5842 C.3     1  UNL1        0.2068
     18 C         -12.4201  -17.5105   21.9032 C.3     1  UNL1        0.0646
     19 C         -11.6231  -16.2479   21.7586 C.3     1  UNL1        0.0759
     20 N         -10.2985  -16.1138   22.4495 N.3     1  UNL1       -0.2726
     21 C          -9.1056  -15.6096   21.6928 C.3     1  UNL1        0.0721
     22 C          -7.7809  -15.4755   22.3838 C.3     1  UNL1        0.0178
     23 C          -7.6493  -15.8456   23.8315 C.3     1  UNL1        0.0087
     24 C          -8.8423  -16.3498   24.5881 C.3     1  UNL1        0.0178
     25 C         -10.1669  -16.4839   23.8972 C.3     1  UNL1        0.0721
     26 C          -6.3247  -15.7115   24.5224 C.3     1  UNL1        0.0453
     27 C          -5.0682  -16.1424   23.8255 C.ar    1  UNL1        0.0541
     28 C          -4.4548  -17.5102   23.8793 C.ar    1  UNL1        0.1131
     29 N          -3.2120  -17.4942   23.0395 N.ar    1  UNL1       -0.2229
     30 C          -3.0573  -16.1165   22.4667 C.ar    1  UNL1        0.1748
     31 N          -4.2046  -15.2810   22.9525 N.ar    1  UNL1       -0.3382
     32 H          -4.3629  -14.3337   22.7363 H       1  UNL1        0.1672
@<TRIPOS>BOND
     1     9    10    1
     2    10    11    1
     3    10    12    1
     4    12    13    1
     5    13    14    1
     6    14     8    1
     7     8     2    1
     8     2     3   ar
     9     3     4   ar
    10     4     5   ar
    11     5     1    1
    12     1    17    1
    13    17    18    1
    14    18    19    1
    15    19    20    1
    16    20    21    1
    17    21    22    1
    18    22    23    1
    19    23    26    1
    20    26    27    1
    21    27    28   ar
    22    28    29   ar
    23    29    30   ar
    24    30    31   ar
    25    23    24    1
    26    24    25    1
    27     5     6   ar
    28     6     7   ar
    29    14    15    1
    30    15    16    1
    31    16    10    1
    32     7     2   ar
    33    25    20    1
    34    31    27   ar
    35    31    32    1
@<TRIPOS>MOLECULE
*****
 32 35 0 0 0
SMALL
GASTEIGER

@<TRIPOS>ATOM
      1 O          -5.8153  -14.5350   26.3529 O.3     1  UNL1       -0.4754
      2 C          -4.7473  -17.7366   23.3763 C.ar    1  UNL1       -0.0059
      3 C          -5.8271  -16.7455   23.0569 C.ar    1  UNL1        0.0002
      4 C          -6.1830  -15.6784   24.0491 C.ar    1  UNL1        0.0366
      5 C          -5.4593  -15.6023   25.3607 C.ar    1  UNL1        0.1385
      6 C          -4.3795  -16.5932   25.6801 C.ar    1  UNL1        0.0366
      7 C          -4.0235  -17.6605   24.6879 C.ar    1  UNL1        0.0002
      8 C          -4.3914  -18.8038   22.3841 C.3     1  UNL1        0.0992
      9 F          -1.3519  -17.8714   17.6161 F       1  UNL1       -0.2042
     10 C          -1.4256  -17.9358   19.1129 C.3     1  UNL1        0.2666
     11 F           0.0153  -17.5569   18.9391 F       1  UNL1       -0.2042
     12 C          -0.9989  -17.8686   20.5493 C.3     1  UNL1        0.0839
     13 C          -1.9875  -18.1579   21.6397 C.3     1  UNL1        0.0780
     14 N          -3.4028  -18.5144   21.2937 N.3     1  UNL1       -0.2686
     15 C          -3.8295  -18.5816   19.8573 C.3     1  UNL1        0.0780
     16 C          -2.8409  -18.2923   18.7669 C.3     1  UNL1        0.0839
     17 C          -6.6776  -14.8670   27.5344 C.3     1  UNL1        0.2068
     18 C          -8.1194  -15.2283   27.3327 C.3     1  UNL1        0.0646
     19 C          -8.5104  -16.6601   27.1148 C.3     1  UNL1        0.0759
     20 N          -9.0803  -17.0894   25.7954 N.3     1  UNL1       -0.2726
     21 C          -9.5516  -18.5007   25.6057 C.3     1  UNL1        0.0721
     22 C         -10.1216  -18.9301   24.2862 C.3     1  UNL1        0.0178
     23 C         -10.2203  -17.9481   23.1566 C.3     1  UNL1        0.0087
     24 C          -9.7490  -16.5367   23.3465 C.3     1  UNL1        0.0178
     25 C          -9.1790  -16.1074   24.6658 C.3     1  UNL1        0.0721
     26 C         -10.7903  -18.3775   21.8373 C.3     1  UNL1        0.0453
     27 C         -11.3655  -17.3565   20.9008 C.ar    1  UNL1        0.0541
     28 C         -12.7483  -16.7792   20.9673 C.ar    1  UNL1        0.1131
     29 N         -12.8963  -15.7995   19.8411 N.ar    1  UNL1       -0.2229
     30 C         -11.6048  -15.7714   19.0785 C.ar    1  UNL1        0.1748
     31 N         -10.6587  -16.7337   19.7335 N.ar    1  UNL1       -0.3382
     32 H          -9.7359  -16.9233   19.4475 H       1  UNL1        0.1672
@<TRIPOS>BOND
     1     9    10    1
     2    10    11    1
     3    10    12    1
     4    12    13    1
     5    13    14    1
     6    14     8    1
     7     8     2    1
     8     2     3   ar
     9     3     4   ar
    10     4     5   ar
    11     5     1    1
    12     1    17    1
    13    17    18    1
    14    18    19    1
    15    19    20    1
    16    20    21    1
    17    21    22    1
    18    22    23    1
    19    23    26    1
    20    26    27    1
    21    27    28   ar
    22    28    29   ar
    23    29    30   ar
    24    30    31   ar
    25    23    24    1
    26    24    25    1
    27     5     6   ar
    28     6     7   ar
    29    14    15    1
    30    15    16    1
    31    16    10    1
    32     7     2   ar
    33    25    20    1
    34    31    27   ar
    35    31    32    1
@<TRIPOS>MOLECULE
*****
 32 35 0 0 0
SMALL
GASTEIGER

@<TRIPOS>ATOM
      1 O         -16.4098   -0.8442   20.0165 O.3     1  UNL1       -0.4754
      2 C         -12.3155   -2.3668   18.9355 C.ar    1  UNL1       -0.0059
      3 C         -12.8640   -1.1452   18.2595 C.ar    1  UNL1        0.0002
      4 C         -14.2288   -0.6377   18.6199 C.ar    1  UNL1        0.0366
      5 C         -15.0450   -1.3518   19.6562 C.ar    1  UNL1        0.1385
      6 C         -14.4965   -2.5733   20.3321 C.ar    1  UNL1        0.0366
      7 C         -13.1317   -3.0809   19.9717 C.ar    1  UNL1        0.0002
      8 C         -10.9507   -2.8743   18.5751 C.3     1  UNL1        0.0992
      9 F          -9.4685   -8.4091   18.4718 F       1  UNL1       -0.2042
     10 C         -10.2868   -7.2773   17.9246 C.3     1  UNL1        0.2666
     11 F         -10.7660   -8.3940   17.0453 F       1  UNL1       -0.2042
     12 C         -11.2714   -6.5333   17.0721 C.3     1  UNL1        0.0839
     13 C         -11.4928   -5.0656   17.2889 C.3     1  UNL1        0.0780
     14 N         -10.7294   -4.3419   18.3583 N.3     1  UNL1       -0.2686
     15 C          -9.7447   -5.0859   19.2108 C.3     1  UNL1        0.0780
     16 C          -9.5234   -6.5536   18.9940 C.3     1  UNL1        0.0839
     17 C         -17.2261   -0.1015   19.0007 C.3     1  UNL1        0.2068
     18 C         -17.6260   -0.7755   17.7218 C.3     1  UNL1        0.0646
     19 C         -18.2750   -2.1274   17.7576 C.3     1  UNL1        0.0759
     20 N         -17.4621   -3.3409   18.0989 N.3     1  UNL1       -0.2726
     21 C         -17.7904   -4.1436   19.3228 C.3     1  UNL1        0.0721
     22 C         -16.9774   -5.3571   19.6642 C.3     1  UNL1        0.0178
     23 C         -15.8361   -5.7679   18.7817 C.3     1  UNL1        0.0087
     24 C         -15.5079   -4.9651   17.5578 C.3     1  UNL1        0.0178
     25 C         -16.3208   -3.7516   17.2164 C.3     1  UNL1        0.0721
     26 C         -15.0232   -6.9813   19.1230 C.3     1  UNL1        0.0453
     27 C         -15.6441   -8.3449   19.0503 C.ar    1  UNL1        0.0541
     28 C         -16.4670   -8.9973   20.1214 C.ar    1  UNL1        0.1131
     29 N         -16.8826  -10.3510   19.6267 N.ar    1  UNL1       -0.2229
     30 C         -16.3165  -10.5353   18.2499 C.ar    1  UNL1        0.1748
     31 N         -15.5511   -9.2954   17.8936 N.ar    1  UNL1       -0.3382
     32 H         -15.0718   -9.1338   17.0489 H       1  UNL1        0.1672
@<TRIPOS>BOND
     1     9    10    1
     2    10    11    1
     3    10    12    1
     4    12    13    1
     5    13    14    1
     6    14     8    1
     7     8     2    1
     8     2     3   ar
     9     3     4   ar
    10     4     5   ar
    11     5     1    1
    12     1    17    1
    13    17    18    1
    14    18    19    1
    15    19    20    1
    16    20    21    1
    17    21    22    1
    18    22    23    1
    19    23    26    1
    20    26    27    1
    21    27    28   ar
    22    28    29   ar
    23    29    30   ar
    24    30    31   ar
    25    23    24    1
    26    24    25    1
    27     5     6   ar
    28     6     7   ar
    29    14    15    1
    30    15    16    1
    31    16    10    1
    32     7     2   ar
    33    25    20    1
    34    31    27   ar
    35    31    32    1
@<TRIPOS>MOLECULE
*****
 32 35 0 0 0
SMALL
GASTEIGER

@<TRIPOS>ATOM
      1 O          -8.0894  -15.5914   27.2295 O.3     1  UNL1       -0.4754
      2 C         -10.3254  -17.7997   24.0085 C.ar    1  UNL1       -0.0059
      3 C          -9.9378  -18.5078   25.2729 C.ar    1  UNL1        0.0002
      4 C          -9.1925  -17.7717   26.3465 C.ar    1  UNL1        0.0366
      5 C          -8.8347  -16.3275   26.1558 C.ar    1  UNL1        0.1385
      6 C          -9.2223  -15.6194   24.8915 C.ar    1  UNL1        0.0366
      7 C          -9.9676  -16.3555   23.8179 C.ar    1  UNL1        0.0002
      8 C         -11.0706  -18.5358   22.9349 C.3     1  UNL1        0.0992
      9 F          -7.5008  -20.3297   18.8264 F       1  UNL1       -0.2042
     10 C          -8.8912  -19.9933   19.2776 C.3     1  UNL1        0.2666
     11 F          -9.1686  -20.4013   17.8611 F       1  UNL1       -0.2042
     12 C         -10.3779  -19.7986   19.2369 C.3     1  UNL1        0.0839
     13 C         -11.1044  -19.3128   20.4560 C.3     1  UNL1        0.0780
     14 N         -10.3442  -19.0216   21.7158 N.3     1  UNL1       -0.2686
     15 C          -8.8574  -19.2163   21.7566 C.3     1  UNL1        0.0780
     16 C          -8.1310  -19.7021   20.5375 C.3     1  UNL1        0.0839
     17 C          -6.5908  -15.6412   27.2712 C.3     1  UNL1        0.2068
     18 C          -5.7881  -14.9795   26.1906 C.3     1  UNL1        0.0646
     19 C          -6.1579  -15.1816   24.7510 C.3     1  UNL1        0.0759
     20 N          -5.4172  -16.1873   23.9204 N.3     1  UNL1       -0.2726
     21 C          -6.1492  -17.3532   23.3249 C.3     1  UNL1        0.0721
     22 C          -5.4085  -18.3590   22.4942 C.3     1  UNL1        0.0178
     23 C          -3.9357  -18.1987   22.2592 C.3     1  UNL1        0.0087
     24 C          -3.2037  -17.0327   22.8548 C.3     1  UNL1        0.0178
     25 C          -3.9444  -16.0270   23.6854 C.3     1  UNL1        0.0721
     26 C          -3.1950  -19.2044   21.4286 C.3     1  UNL1        0.0453
     27 C          -2.1221  -18.7518   20.4830 C.ar    1  UNL1        0.0541
     28 C          -2.2930  -18.4894   19.0161 C.ar    1  UNL1        0.1131
     29 N          -0.9665  -18.0576   18.4648 N.ar    1  UNL1       -0.2229
     30 C           0.0243  -18.0532   19.5910 C.ar    1  UNL1        0.1748
     31 N          -0.6899  -18.4823   20.8384 N.ar    1  UNL1       -0.3382
     32 H          -0.2891  -18.5714   21.7332 H       1  UNL1        0.1672
@<TRIPOS>BOND
     1     9    10    1
     2    10    11    1
     3    10    12    1
     4    12    13    1
     5    13    14    1
     6    14     8    1
     7     8     2    1
     8     2     3   ar
     9     3     4   ar
    10     4     5   ar
    11     5     1    1
    12     1    17    1
    13    17    18    1
    14    18    19    1
    15    19    20    1
    16    20    21    1
    17    21    22    1
    18    22    23    1
    19    23    26    1
    20    26    27    1
    21    27    28   ar
    22    28    29   ar
    23    29    30   ar
    24    30    31   ar
    25    23    24    1
    26    24    25    1
    27     5     6   ar
    28     6     7   ar
    29    14    15    1
    30    15    16    1
    31    16    10    1
    32     7     2   ar
    33    25    20    1
    34    31    27   ar
    35    31    32    1
@<TRIPOS>MOLECULE
*****
 32 35 0 0 0
SMALL
GASTEIGER

@<TRIPOS>ATOM
      1 O         -13.3335  -17.9442   21.9227 O.3     1  UNL1       -0.4754
      2 C          -9.5283  -19.2138   19.8833 C.ar    1  UNL1       -0.0059
      3 C         -10.0440  -17.8164   19.7061 C.ar    1  UNL1        0.0002
      4 C         -11.3124  -17.3932   20.3859 C.ar    1  UNL1        0.0366
      5 C         -12.0651  -18.3674   21.2429 C.ar    1  UNL1        0.1385
      6 C         -11.5494  -19.7648   21.4201 C.ar    1  UNL1        0.0366
      7 C         -10.2810  -20.1880   20.7403 C.ar    1  UNL1        0.0002
      8 C          -8.2600  -19.6370   19.2035 C.3     1  UNL1        0.0992
      9 F          -2.9087  -19.2790   21.2228 F       1  UNL1       -0.2042
     10 C          -4.3647  -19.5549   21.4552 C.3     1  UNL1        0.2666
     11 F          -3.8314  -19.7888   22.8376 F       1  UNL1       -0.2042
     12 C          -5.6355  -19.9120   22.1676 C.3     1  UNL1        0.0839
     13 C          -6.9339  -19.9394   21.4171 C.3     1  UNL1        0.0780
     14 N          -6.9616  -19.6096   19.9540 N.3     1  UNL1       -0.2686
     15 C          -5.6908  -19.2525   19.2416 C.3     1  UNL1        0.0780
     16 C          -4.3924  -19.2251   19.9922 C.3     1  UNL1        0.0839
     17 C         -13.2891  -17.3923   23.3168 C.3     1  UNL1        0.2068
     18 C         -12.9082  -18.2811   24.4635 C.3     1  UNL1        0.0646
     19 C         -11.5332  -18.8776   24.5255 C.3     1  UNL1        0.0759
     20 N         -10.3320  -17.9846   24.6222 N.3     1  UNL1       -0.2726
     21 C          -9.7493  -17.3743   23.3820 C.3     1  UNL1        0.0721
     22 C          -8.5479  -16.4813   23.4788 C.3     1  UNL1        0.0178
     23 C          -7.9293  -16.1985   24.8157 C.3     1  UNL1        0.0087
     24 C          -8.5121  -16.8088   26.0559 C.3     1  UNL1        0.0178
     25 C          -9.7134  -17.7018   25.9591 C.3     1  UNL1        0.0721
     26 C          -6.7280  -15.3055   24.9124 C.3     1  UNL1        0.0453
     27 C          -5.5167  -15.5842   24.0727 C.ar    1  UNL1        0.0541
     28 C          -4.6455  -16.8022   24.1587 C.ar    1  UNL1        0.1131
     29 N          -3.5543  -16.6645   23.1387 N.ar    1  UNL1       -0.2229
     30 C          -3.7511  -15.3614   22.4223 C.ar    1  UNL1        0.1748
     31 N          -4.9640  -14.6937   22.9996 N.ar    1  UNL1       -0.3382
     32 H          -5.3326  -13.8238   22.7228 H       1  UNL1        0.1672
@<TRIPOS>BOND
     1     9    10    1
     2    10    11    1
     3    10    12    1
     4    12    13    1
     5    13    14    1
     6    14     8    1
     7     8     2    1
     8     2     3   ar
     9     3     4   ar
    10     4     5   ar
    11     5     1    1
    12     1    17    1
    13    17    18    1
    14    18    19    1
    15    19    20    1
    16    20    21    1
    17    21    22    1
    18    22    23    1
    19    23    26    1
    20    26    27    1
    21    27    28   ar
    22    28    29   ar
    23    29    30   ar
    24    30    31   ar
    25    23    24    1
    26    24    25    1
    27     5     6   ar
    28     6     7   ar
    29    14    15    1
    30    15    16    1
    31    16    10    1
    32     7     2   ar
    33    25    20    1
    34    31    27   ar
    35    31    32    1
@<TRIPOS>MOLECULE
*****
 32 35 0 0 0
SMALL
GASTEIGER

@<TRIPOS>ATOM
      1 O           4.4182   -2.1902   17.5732 O.3     1  UNL1       -0.4754
      2 C           7.6769   -3.2369   20.4948 C.ar    1  UNL1       -0.0059
      3 C           7.9696   -2.3261   19.3394 C.ar    1  UNL1        0.0002
      4 C           6.8834   -1.9773   18.3655 C.ar    1  UNL1        0.0366
      5 C           5.5045   -2.5391   18.5471 C.ar    1  UNL1        0.1385
      6 C           5.2118   -3.4498   19.7025 C.ar    1  UNL1        0.0366
      7 C           6.2980   -3.7987   20.6764 C.ar    1  UNL1        0.0002
      8 C           8.7632   -3.5857   21.4686 C.3     1  UNL1        0.0992
      9 F           7.3967   -6.6875   26.0896 F       1  UNL1       -0.2042
     10 C           7.9905   -6.6051   24.7146 C.3     1  UNL1        0.2666
     11 F           8.1897   -8.0647   24.9973 F       1  UNL1       -0.2042
     12 C           8.6534   -7.0296   23.4378 C.3     1  UNL1        0.0839
     13 C           8.9110   -6.0232   22.3558 C.3     1  UNL1        0.0780
     14 N           8.5056   -4.5922   22.5506 N.3     1  UNL1       -0.2686
     15 C           7.8427   -4.1677   23.8274 C.3     1  UNL1        0.0780
     16 C           7.5851   -5.1742   24.9094 C.3     1  UNL1        0.0839
     17 C           4.3112   -0.7930   17.0379 C.3     1  UNL1        0.2068
     18 C           3.4306    0.2080   17.7252 C.3     1  UNL1        0.0646
     19 C           3.9272    0.9348   18.9399 C.3     1  UNL1        0.0759
     20 N           4.0984    0.1995   20.2360 N.3     1  UNL1       -0.2726
     21 C           5.4012    0.2765   20.9755 C.3     1  UNL1        0.0721
     22 C           5.5724   -0.4587   22.2718 C.3     1  UNL1        0.0178
     23 C           4.4409   -1.2710   22.8284 C.3     1  UNL1        0.0087
     24 C           3.1381   -1.3480   22.0888 C.3     1  UNL1        0.0178
     25 C           2.9669   -0.6128   20.7927 C.3     1  UNL1        0.0721
     26 C           4.6121   -2.0063   24.1245 C.3     1  UNL1        0.0453
     27 C           4.0748   -1.4196   25.3963 C.ar    1  UNL1        0.0541
     28 C           3.4309   -0.0728   25.5429 C.ar    1  UNL1        0.1131
     29 N           3.0453    0.1024   26.9819 N.ar    1  UNL1       -0.2229
     30 C           3.4510   -1.1361   27.7246 C.ar    1  UNL1        0.1748
     31 N           4.0873   -2.0768   26.7446 N.ar    1  UNL1       -0.3382
     32 H           4.4495   -2.9689   26.9502 H       1  UNL1        0.1672
@<TRIPOS>BOND
     1     9    10    1
     2    10    11    1
     3    10    12    1
     4    12    13    1
     5    13    14    1
     6    14     8    1
     7     8     2    1
     8     2     3   ar
     9     3     4   ar
    10     4     5   ar
    11     5     1    1
    12     1    17    1
    13    17    18    1
    14    18    19    1
    15    19    20    1
    16    20    21    1
    17    21    22    1
    18    22    23    1
    19    23    26    1
    20    26    27    1
    21    27    28   ar
    22    28    29   ar
    23    29    30   ar
    24    30    31   ar
    25    23    24    1
    26    24    25    1
    27     5     6   ar
    28     6     7   ar
    29    14    15    1
    30    15    16    1
    31    16    10    1
    32     7     2   ar
    33    25    20    1
    34    31    27   ar
    35    31    32    1
@<TRIPOS>MOLECULE
*****
 32 35 0 0 0
SMALL
GASTEIGER

@<TRIPOS>ATOM
      1 O           4.3828   -2.7038   18.5245 O.3     1  UNL1       -0.4754
      2 C           6.0168   -3.0367   22.7042 C.ar    1  UNL1       -0.0059
      3 C           4.7711   -3.7810   22.3244 C.ar    1  UNL1        0.0002
      4 C           4.2265   -3.6700   20.9312 C.ar    1  UNL1        0.0366
      5 C           4.9275   -2.8147   19.9178 C.ar    1  UNL1        0.1385
      6 C           6.1732   -2.0704   20.2975 C.ar    1  UNL1        0.0366
      7 C           6.7179   -2.1814   21.6908 C.ar    1  UNL1        0.0002
      8 C           6.5615   -3.1477   24.0974 C.3     1  UNL1        0.0992
      9 F           8.4477   -8.4138   25.3431 F       1  UNL1       -0.2042
     10 C           7.7106   -7.1724   25.7500 C.3     1  UNL1        0.2666
     11 F           7.5603   -7.9864   27.0010 F       1  UNL1       -0.2042
     12 C           6.9213   -6.2137   26.5914 C.3     1  UNL1        0.0839
     13 C           6.5382   -4.8721   26.0405 C.3     1  UNL1        0.0780
     14 N           6.9445   -4.4892   24.6483 N.3     1  UNL1       -0.2686
     15 C           7.7338   -5.4479   23.8069 C.3     1  UNL1        0.0780
     16 C           8.1168   -6.7895   24.3578 C.3     1  UNL1        0.0839
     17 C           4.6483   -1.4716   17.7113 C.3     1  UNL1        0.2068
     18 C           3.5360   -0.5062   17.4276 C.3     1  UNL1        0.0646
     19 C           3.2482    0.6097   18.3878 C.3     1  UNL1        0.0759
     20 N           3.3334    0.3682   19.8658 N.3     1  UNL1       -0.2726
     21 C           4.4124    1.0277   20.6725 C.3     1  UNL1        0.0721
     22 C           4.4976    0.7861   22.1505 C.3     1  UNL1        0.0178
     23 C           3.5039   -0.1150   22.8217 C.3     1  UNL1        0.0087
     24 C           2.4249   -0.7745   22.0149 C.3     1  UNL1        0.0178
     25 C           2.3396   -0.5329   20.5370 C.3     1  UNL1        0.0721
     26 C           3.5891   -0.3565   24.2996 C.3     1  UNL1        0.0453
     27 C           2.6441    0.3447   25.2300 C.ar    1  UNL1        0.0541
     28 C           1.7663    1.5100   24.8816 C.ar    1  UNL1        0.1131
     29 N           0.9907    1.8891   26.1083 N.ar    1  UNL1       -0.2229
     30 C           1.3893    0.9581   27.2149 C.ar    1  UNL1        0.1748
     31 N           2.4112    0.0035   26.6720 N.ar    1  UNL1       -0.3382
     32 H           2.8516   -0.7199   27.1739 H       1  UNL1        0.1672
@<TRIPOS>BOND
     1     9    10    1
     2    10    11    1
     3    10    12    1
     4    12    13    1
     5    13    14    1
     6    14     8    1
     7     8     2    1
     8     2     3   ar
     9     3     4   ar
    10     4     5   ar
    11     5     1    1
    12     1    17    1
    13    17    18    1
    14    18    19    1
    15    19    20    1
    16    20    21    1
    17    21    22    1
    18    22    23    1
    19    23    26    1
    20    26    27    1
    21    27    28   ar
    22    28    29   ar
    23    29    30   ar
    24    30    31   ar
    25    23    24    1
    26    24    25    1
    27     5     6   ar
    28     6     7   ar
    29    14    15    1
    30    15    16    1
    31    16    10    1
    32     7     2   ar
    33    25    20    1
    34    31    27   ar
    35    31    32    1
