@<TRIPOS>MOLECULE
*****
 40 42 0 0 0
SMALL
GASTEIGER

@<TRIPOS>ATOM
      1 C          -2.0010  -17.5191   20.6540 C.3     1  UNL1        0.0577
      2 C          -1.9765  -16.3048   21.5343 C.3     1  UNL1        0.0177
      3 C          -2.9220  -16.2000   22.6940 C.3     1  UNL1        0.0210
      4 C          -3.8921  -17.3094   22.9734 C.3     1  UNL1        0.0734
      5 C          -3.9167  -18.5236   22.0931 C.3     1  UNL1        0.0433
      6 C          -2.9711  -18.6285   20.9334 C.3     1  UNL1        0.0194
      7 N          -4.8377  -17.2046   24.1331 N.am    1  UNL1       -0.3045
      8 C          -5.3981  -15.8697   24.5256 C.2     1  UNL1        0.2425
      9 O          -5.0131  -14.6396   23.7583 O.2     1  UNL1       -0.2733
     10 H          -5.0904  -18.0119   24.6368 H       1  UNL1        0.1494
     11 C          -6.3437  -15.7649   25.6853 C.3     1  UNL1        0.1759
     12 N          -7.7515  -16.2656   25.5528 N.am    1  UNL1       -0.2931
     13 C          -8.2683  -16.7054   24.2151 C.2     1  UNL1        0.2462
     14 O          -7.3773  -16.6445   23.0098 O.2     1  UNL1       -0.2701
     15 H          -8.3362  -16.3056   26.3438 H       1  UNL1        0.1502
     16 C          -9.6760  -17.2061   24.0826 C.ar    1  UNL1        0.0533
     17 C         -10.1958  -18.2433   25.0333 C.ar    1  UNL1        0.0045
     18 C         -11.6036  -18.7440   24.9008 C.ar    1  UNL1        0.0001
     19 C         -12.4915  -18.2075   23.8174 C.ar    1  UNL1        0.0039
     20 C         -11.9717  -17.1703   22.8667 C.ar    1  UNL1        0.0716
     21 C         -10.5640  -16.6696   22.9992 C.ar    1  UNL1        0.0084
     22 C         -12.8597  -16.6337   21.7833 C.3     1  UNL1        0.4186
     23 F         -13.7477  -16.0972   20.6999 F       1  UNL1       -0.1659
     24 F         -12.8787  -17.9839   21.1302 F       1  UNL1       -0.1659
     25 F         -12.8406  -15.2835   22.4364 F       1  UNL1       -0.1659
     26 N          -1.0555  -17.6239   19.4943 N.3     1  UNL1       -0.2741
     27 C           0.4035  -17.8742   19.7364 C.3     1  UNL1        0.0896
     28 C          -0.7607  -17.9970   16.9401 C.3     1  UNL1        0.0173
     29 C          -1.5689  -17.4784   18.0924 C.3     1  UNL1        0.0576
     30 C          -2.8906  -16.8143   17.8429 C.3     1  UNL1        0.0173
     31 C          -4.8868  -19.6331   22.3725 C.3     1  UNL1        0.1576
     32 S          -6.2291  -19.6419   21.7032 S.O2    1  UNL1        0.0087
     33 O          -6.6597  -20.7790   22.5816 O.2     1  UNL1       -0.1686
     34 O          -5.7986  -18.5048   20.8248 O.2     1  UNL1       -0.1686
     35 C          -7.5716  -19.6507   21.0339 C.ar    1  UNL1        0.1057
     36 C          -8.8215  -19.7106   21.8609 C.ar    1  UNL1        0.0183
     37 C         -10.1639  -19.7194   21.1917 C.ar    1  UNL1        0.0013
     38 C         -10.2563  -19.6684   19.6955 C.ar    1  UNL1        0.0001
     39 C          -9.0064  -19.6086   18.8684 C.ar    1  UNL1        0.0013
     40 C          -7.6640  -19.5997   19.5377 C.ar    1  UNL1        0.0183
@<TRIPOS>BOND
     1    28    29    1
     2    29    30    1
     3    29    26    1
     4    26    27    1
     5     1    26    1
     6     1     2    1
     7     2     3    1
     8     3     4    1
     9     4     7    1
    10     7     8   am
    11     8     9    2
    12     8    11    1
    13    11    12    1
    14    12    13   am
    15    13    14    2
    16    13    16    1
    17    16    17   ar
    18    17    18   ar
    19    18    19   ar
    20    19    20   ar
    21    20    22    1
    22    22    23    1
    23    22    24    1
    24    22    25    1
    25    20    21   ar
    26     4     5    1
    27     5    31    1
    28    31    32    1
    29    32    33    2
    30    32    34    2
    31    32    35    1
    32    35    36   ar
    33    36    37   ar
    34    37    38   ar
    35    38    39   ar
    36    39    40   ar
    37     5     6    1
    38     6     1    1
    39    21    16   ar
    40    40    35   ar
    41     7    10    1
    42    12    15    1
@<TRIPOS>MOLECULE
*****
 40 42 0 0 0
SMALL
GASTEIGER

@<TRIPOS>ATOM
      1 C          -2.1424  -17.6724   20.5112 C.3     1  UNL1        0.0577
      2 C          -2.2115  -16.4147   21.3256 C.3     1  UNL1        0.0177
      3 C          -3.2520  -16.2708   22.3965 C.3     1  UNL1        0.0210
      4 C          -4.2233  -17.3846   22.6529 C.3     1  UNL1        0.0734
      5 C          -4.1542  -18.6423   21.8385 C.3     1  UNL1        0.0433
      6 C          -3.1138  -18.7862   20.7677 C.3     1  UNL1        0.0194
      7 N          -5.2638  -17.2407   23.7237 N.am    1  UNL1       -0.3045
      8 C          -5.8830  -15.9012   23.9927 C.2     1  UNL1        0.2425
      9 O          -5.4617  -14.7055   23.1907 O.2     1  UNL1       -0.2733
     10 H          -5.5403  -18.0254   24.2500 H       1  UNL1        0.1494
     11 C          -6.9235  -15.7572   25.0635 C.3     1  UNL1        0.1759
     12 N          -8.3628  -16.0451   24.7542 N.am    1  UNL1       -0.2931
     13 C          -8.7991  -16.2451   23.3331 C.2     1  UNL1        0.2462
     14 O          -7.7960  -16.1572   22.2212 O.2     1  UNL1       -0.2701
     15 H          -9.0211  -16.1028   25.4840 H       1  UNL1        0.1502
     16 C         -10.2383  -16.5330   23.0238 C.ar    1  UNL1        0.0533
     17 C         -10.8349  -16.0667   21.7289 C.ar    1  UNL1        0.0045
     18 C         -12.2743  -16.3546   21.4197 C.ar    1  UNL1        0.0001
     19 C         -13.1168  -17.1087   22.4052 C.ar    1  UNL1        0.0039
     20 C         -12.5202  -17.5749   23.7001 C.ar    1  UNL1        0.0716
     21 C         -11.0809  -17.2871   24.0094 C.ar    1  UNL1        0.0084
     22 C         -13.3628  -18.3290   24.6857 C.3     1  UNL1        0.4186
     23 F         -14.2054  -19.0831   25.6713 F       1  UNL1       -0.1659
     24 F         -14.5928  -17.6640   24.1429 F       1  UNL1       -0.1659
     25 F         -12.1327  -18.9940   25.2284 F       1  UNL1       -0.1659
     26 N          -1.1019  -17.8164   19.4404 N.3     1  UNL1       -0.2741
     27 C           0.3094  -18.1670   19.8082 C.3     1  UNL1        0.0896
     28 C          -0.5580  -18.0913   16.9148 C.3     1  UNL1        0.0173
     29 C          -1.4727  -17.6096   18.0018 C.3     1  UNL1        0.0576
     30 C          -2.7582  -16.9212   17.6500 C.3     1  UNL1        0.0173
     31 C          -5.1257  -19.7562   22.0949 C.3     1  UNL1        0.1576
     32 S          -6.5065  -19.6961   21.5123 S.O2    1  UNL1        0.0087
     33 O          -5.9695  -20.1618   20.1914 O.2     1  UNL1       -0.1686
     34 O          -7.0436  -19.2304   22.8331 O.2     1  UNL1       -0.1686
     35 C          -7.8874  -19.6360   20.9295 C.ar    1  UNL1        0.1057
     36 C          -8.0711  -19.5457   19.4435 C.ar    1  UNL1        0.0183
     37 C          -9.4519  -19.4856   18.8608 C.ar    1  UNL1        0.0013
     38 C         -10.6491  -19.5158   19.7640 C.ar    1  UNL1        0.0001
     39 C         -10.4654  -19.6061   21.2500 C.ar    1  UNL1        0.0013
     40 C          -9.0846  -19.6662   21.8327 C.ar    1  UNL1        0.0183
@<TRIPOS>BOND
     1    28    29    1
     2    29    30    1
     3    29    26    1
     4    26    27    1
     5     1    26    1
     6     1     2    1
     7     2     3    1
     8     3     4    1
     9     4     7    1
    10     7     8   am
    11     8     9    2
    12     8    11    1
    13    11    12    1
    14    12    13   am
    15    13    14    2
    16    13    16    1
    17    16    17   ar
    18    17    18   ar
    19    18    19   ar
    20    19    20   ar
    21    20    22    1
    22    22    23    1
    23    22    24    1
    24    22    25    1
    25    20    21   ar
    26     4     5    1
    27     5    31    1
    28    31    32    1
    29    32    33    2
    30    32    34    2
    31    32    35    1
    32    35    36   ar
    33    36    37   ar
    34    37    38   ar
    35    38    39   ar
    36    39    40   ar
    37     5     6    1
    38     6     1    1
    39    21    16   ar
    40    40    35   ar
    41     7    10    1
    42    12    15    1
@<TRIPOS>MOLECULE
*****
 40 42 0 0 0
SMALL
GASTEIGER

@<TRIPOS>ATOM
      1 C           6.7181   -2.4925   29.7974 C.3     1  UNL1        0.0577
      2 C           6.2256   -1.3377   28.9765 C.3     1  UNL1        0.0177
      3 C           5.3742   -0.2770   29.6090 C.3     1  UNL1        0.0210
      4 C           5.0153   -0.3711   31.0624 C.3     1  UNL1        0.0734
      5 C           5.5078   -1.5259   31.8832 C.3     1  UNL1        0.0433
      6 C           6.3592   -2.5866   31.2508 C.3     1  UNL1        0.0194
      7 N           4.1639    0.6896   31.6949 N.am    1  UNL1       -0.3045
      8 C           2.6720    0.6400   31.5484 C.2     1  UNL1        0.2425
      9 O           2.0313   -0.4703   30.7693 O.2     1  UNL1       -0.2733
     10 H           4.5844    1.4183   32.2062 H       1  UNL1        0.1494
     11 C           1.8206    1.7008   32.1809 C.3     1  UNL1        0.1759
     12 N           1.8877    1.9324   33.6614 N.am    1  UNL1       -0.2931
     13 C           2.9070    2.8760   34.2275 C.2     1  UNL1        0.2462
     14 O           3.8593    3.5880   33.3130 O.2     1  UNL1       -0.2701
     15 H           1.2626    1.4650   34.2616 H       1  UNL1        0.1502
     16 C           2.9742    3.1076   35.7079 C.ar    1  UNL1        0.0533
     17 C           3.5524    4.3846   36.2418 C.ar    1  UNL1        0.0045
     18 C           3.6195    4.6162   37.7224 C.ar    1  UNL1        0.0001
     19 C           3.1084    3.5709   38.6689 C.ar    1  UNL1        0.0039
     20 C           2.5301    2.2940   38.1350 C.ar    1  UNL1        0.0716
     21 C           2.4630    2.0623   36.6546 C.ar    1  UNL1        0.0084
     22 C           2.0189    1.2487   39.0816 C.3     1  UNL1        0.4186
     23 F           1.5077    0.2033   40.0282 F       1  UNL1       -0.1659
     24 F           0.6527    1.8651   39.0245 F       1  UNL1       -0.1659
     25 F           3.3852    0.6322   39.1386 F       1  UNL1       -0.1659
     26 N           7.5694   -3.5532   29.1649 N.3     1  UNL1       -0.2741
     27 C           8.9300   -3.2069   28.6369 C.3     1  UNL1        0.0896
     28 C           7.3543   -5.9472   30.1510 C.3     1  UNL1        0.0173
     29 C           7.0602   -4.9602   29.0604 C.3     1  UNL1        0.0576
     30 C           6.2569   -5.3803   27.8653 C.3     1  UNL1        0.0173
     31 C           5.1489   -1.6200   33.3367 C.3     1  UNL1        0.1576
     32 S           5.5522   -0.5267   34.2811 S.O2    1  UNL1        0.0087
     33 O           6.9954   -0.7856   33.9647 O.2     1  UNL1       -0.1686
     34 O           4.1091   -0.2677   34.5976 O.2     1  UNL1       -0.1686
     35 C           5.9556    0.5667   35.2256 C.ar    1  UNL1        0.1057
     36 C           6.5604    1.8320   34.6935 C.ar    1  UNL1        0.0183
     37 C           6.9638    2.9254   35.6379 C.ar    1  UNL1        0.0013
     38 C           6.7622    2.7534   37.1143 C.ar    1  UNL1        0.0001
     39 C           6.1573    1.4881   37.6463 C.ar    1  UNL1        0.0013
     40 C           5.7540    0.3947   36.7019 C.ar    1  UNL1        0.0183
@<TRIPOS>BOND
     1    28    29    1
     2    29    30    1
     3    29    26    1
     4    26    27    1
     5     1    26    1
     6     1     2    1
     7     2     3    1
     8     3     4    1
     9     4     7    1
    10     7     8   am
    11     8     9    2
    12     8    11    1
    13    11    12    1
    14    12    13   am
    15    13    14    2
    16    13    16    1
    17    16    17   ar
    18    17    18   ar
    19    18    19   ar
    20    19    20   ar
    21    20    22    1
    22    22    23    1
    23    22    24    1
    24    22    25    1
    25    20    21   ar
    26     4     5    1
    27     5    31    1
    28    31    32    1
    29    32    33    2
    30    32    34    2
    31    32    35    1
    32    35    36   ar
    33    36    37   ar
    34    37    38   ar
    35    38    39   ar
    36    39    40   ar
    37     5     6    1
    38     6     1    1
    39    21    16   ar
    40    40    35   ar
    41     7    10    1
    42    12    15    1
@<TRIPOS>MOLECULE
*****
 40 42 0 0 0
SMALL
GASTEIGER

@<TRIPOS>ATOM
      1 C           0.7601    2.5719   27.3056 C.3     1  UNL1        0.0577
      2 C          -0.5081    2.1681   26.6137 C.3     1  UNL1        0.0177
      3 C          -0.4895    1.8256   25.1535 C.3     1  UNL1        0.0210
      4 C           0.7972    1.8867   24.3851 C.3     1  UNL1        0.0734
      5 C           2.0654    2.2904   25.0769 C.3     1  UNL1        0.0433
      6 C           2.0468    2.6330   26.5372 C.3     1  UNL1        0.0194
      7 N           0.8158    1.5441   22.9249 N.am    1  UNL1       -0.3045
      8 C           0.5644    2.6110   21.9009 C.2     1  UNL1        0.2425
      9 O           0.2943    4.0206   22.3372 O.2     1  UNL1       -0.2733
     10 H           0.9930    0.6190   22.6385 H       1  UNL1        0.1494
     11 C           0.5830    2.2684   20.4407 C.3     1  UNL1        0.1759
     12 N           1.7398    1.5078   19.8634 N.am    1  UNL1       -0.2931
     13 C           1.7694    0.0104   19.9470 C.2     1  UNL1        0.2462
     14 O           0.6422   -0.7263   20.6079 O.2     1  UNL1       -0.2701
     15 H           2.4796    1.9913   19.4297 H       1  UNL1        0.1502
     16 C           2.9262   -0.7502   19.3698 C.ar    1  UNL1        0.0533
     17 C           4.0417   -0.0152   18.6876 C.ar    1  UNL1        0.0045
     18 C           5.1985   -0.7759   18.1104 C.ar    1  UNL1        0.0001
     19 C           5.2398   -2.2716   18.2154 C.ar    1  UNL1        0.0039
     20 C           4.1244   -3.0067   18.8976 C.ar    1  UNL1        0.0716
     21 C           2.9676   -2.2461   19.4748 C.ar    1  UNL1        0.0084
     22 C           4.1657   -4.5024   19.0026 C.3     1  UNL1        0.4186
     23 F           4.2070   -5.9982   19.1077 F       1  UNL1       -0.1659
     24 F           2.6721   -4.5527   18.8744 F       1  UNL1       -0.1659
     25 F           5.6593   -4.4522   19.1309 F       1  UNL1       -0.1659
     26 N           0.7415    2.9145   28.7658 N.3     1  UNL1       -0.2741
     27 C           0.7190    4.3503   29.1991 C.3     1  UNL1        0.0896
     28 C           0.3780    2.1265   31.2147 C.3     1  UNL1        0.0173
     29 C           0.7454    1.8212   29.7928 C.3     1  UNL1        0.0576
     30 C           1.1167    0.4225   29.3978 C.3     1  UNL1        0.0173
     31 C           3.3523    2.3516   24.3085 C.3     1  UNL1        0.1576
     32 S           3.9345    1.1008   23.7199 S.O2    1  UNL1        0.0087
     33 O           3.7470    1.6623   22.3416 O.2     1  UNL1       -0.1686
     34 O           4.1219    0.5394   25.0981 O.2     1  UNL1       -0.1686
     35 C           4.5167   -0.1500   23.1311 C.ar    1  UNL1        0.1057
     36 C           5.7303   -0.0712   22.2530 C.ar    1  UNL1        0.0183
     37 C           6.3125   -1.3219   21.6643 C.ar    1  UNL1        0.0013
     38 C           5.6812   -2.6514   21.9536 C.ar    1  UNL1        0.0001
     39 C           4.4676   -2.7302   22.8317 C.ar    1  UNL1        0.0013
     40 C           3.8854   -1.4795   23.4205 C.ar    1  UNL1        0.0183
@<TRIPOS>BOND
     1    28    29    1
     2    29    30    1
     3    29    26    1
     4    26    27    1
     5     1    26    1
     6     1     2    1
     7     2     3    1
     8     3     4    1
     9     4     7    1
    10     7     8   am
    11     8     9    2
    12     8    11    1
    13    11    12    1
    14    12    13   am
    15    13    14    2
    16    13    16    1
    17    16    17   ar
    18    17    18   ar
    19    18    19   ar
    20    19    20   ar
    21    20    22    1
    22    22    23    1
    23    22    24    1
    24    22    25    1
    25    20    21   ar
    26     4     5    1
    27     5    31    1
    28    31    32    1
    29    32    33    2
    30    32    34    2
    31    32    35    1
    32    35    36   ar
    33    36    37   ar
    34    37    38   ar
    35    38    39   ar
    36    39    40   ar
    37     5     6    1
    38     6     1    1
    39    21    16   ar
    40    40    35   ar
    41     7    10    1
    42    12    15    1
@<TRIPOS>MOLECULE
*****
 40 42 0 0 0
SMALL
GASTEIGER

@<TRIPOS>ATOM
      1 C           3.8634   -1.6927   19.2136 C.3     1  UNL1        0.0577
      2 C           4.0764   -0.8405   17.9977 C.3     1  UNL1        0.0177
      3 C           3.0975    0.2452   17.6619 C.3     1  UNL1        0.0210
      4 C           1.9054    0.4788   18.5419 C.3     1  UNL1        0.0734
      5 C           1.6924   -0.3734   19.7578 C.3     1  UNL1        0.0433
      6 C           2.6713   -1.4592   20.0936 C.3     1  UNL1        0.0194
      7 N           0.9265    1.5645   18.2061 N.am    1  UNL1       -0.3045
      8 C           1.2607    2.9953   18.5078 C.2     1  UNL1        0.2425
      9 O           2.5739    3.3404   19.1455 O.2     1  UNL1       -0.2733
     10 H           0.0646    1.3381   17.7876 H       1  UNL1        0.1494
     11 C           0.2817    4.0811   18.1720 C.3     1  UNL1        0.1759
     12 N          -1.0834    4.0787   18.7938 N.am    1  UNL1       -0.2931
     13 C          -2.3040    4.0337   17.9231 C.2     1  UNL1        0.2462
     14 O          -2.1595    3.9911   16.4306 O.2     1  UNL1       -0.2701
     15 H          -1.1783    4.1067   19.7733 H       1  UNL1        0.1502
     16 C          -3.6691    4.0313   18.5447 C.ar    1  UNL1        0.0533
     17 C          -4.8798    4.2869   17.6969 C.ar    1  UNL1        0.0045
     18 C          -6.2449    4.2845   18.3186 C.ar    1  UNL1        0.0001
     19 C          -6.3993    4.0265   19.7882 C.ar    1  UNL1        0.0039
     20 C          -5.1886    3.7709   20.6360 C.ar    1  UNL1        0.0716
     21 C          -3.8235    3.7733   20.0143 C.ar    1  UNL1        0.0084
     22 C          -5.3429    3.5129   22.1055 C.3     1  UNL1        0.4186
     23 F          -5.4974    3.2549   23.5752 F       1  UNL1       -0.1659
     24 F          -6.7907    3.8959   22.0207 F       1  UNL1       -0.1659
     25 F          -3.8952    3.1300   22.1904 F       1  UNL1       -0.1659
     26 N           4.8423   -2.7785   19.5494 N.3     1  UNL1       -0.2741
     27 C           6.2630   -2.6793   19.0785 C.3     1  UNL1        0.0896
     28 C           4.6569   -4.0025   21.8336 C.3     1  UNL1        0.0173
     29 C           4.4006   -3.9634   20.3561 C.3     1  UNL1        0.0576
     30 C           3.7025   -5.1092   19.6855 C.3     1  UNL1        0.0173
     31 C           0.5003   -0.1399   20.6378 C.3     1  UNL1        0.1576
     32 S           0.4406    1.0773   21.5123 S.O2    1  UNL1        0.0087
     33 O           1.6149    0.5715   22.2966 O.2     1  UNL1       -0.1686
     34 O          -0.7337    1.5832   20.7281 O.2     1  UNL1       -0.1686
     35 C           0.3809    2.2946   22.3869 C.ar    1  UNL1        0.1057
     36 C          -0.7245    3.2928   22.2085 C.ar    1  UNL1        0.0183
     37 C          -0.7841    4.5100   23.0830 C.ar    1  UNL1        0.0013
     38 C           0.2616    4.7291   24.1358 C.ar    1  UNL1        0.0001
     39 C           1.3670    3.7309   24.3142 C.ar    1  UNL1        0.0013
     40 C           1.4266    2.5137   23.4397 C.ar    1  UNL1        0.0183
@<TRIPOS>BOND
     1    28    29    1
     2    29    30    1
     3    29    26    1
     4    26    27    1
     5     1    26    1
     6     1     2    1
     7     2     3    1
     8     3     4    1
     9     4     7    1
    10     7     8   am
    11     8     9    2
    12     8    11    1
    13    11    12    1
    14    12    13   am
    15    13    14    2
    16    13    16    1
    17    16    17   ar
    18    17    18   ar
    19    18    19   ar
    20    19    20   ar
    21    20    22    1
    22    22    23    1
    23    22    24    1
    24    22    25    1
    25    20    21   ar
    26     4     5    1
    27     5    31    1
    28    31    32    1
    29    32    33    2
    30    32    34    2
    31    32    35    1
    32    35    36   ar
    33    36    37   ar
    34    37    38   ar
    35    38    39   ar
    36    39    40   ar
    37     5     6    1
    38     6     1    1
    39    21    16   ar
    40    40    35   ar
    41     7    10    1
    42    12    15    1
@<TRIPOS>MOLECULE
*****
 40 42 0 0 0
SMALL
GASTEIGER

@<TRIPOS>ATOM
      1 C           2.8767   -1.2169   21.0410 C.3     1  UNL1        0.0577
      2 C           1.8000   -1.2967   19.9998 C.3     1  UNL1        0.0177
      3 C           0.7216   -0.2550   19.9548 C.3     1  UNL1        0.0210
      4 C           0.7199    0.8664   20.9510 C.3     1  UNL1        0.0734
      5 C           1.7967    0.9461   21.9922 C.3     1  UNL1        0.0433
      6 C           2.8751   -0.0955   22.0372 C.3     1  UNL1        0.0194
      7 N          -0.3585    1.9080   20.9060 N.am    1  UNL1       -0.3045
      8 C          -0.3652    2.9338   19.8116 C.2     1  UNL1        0.2425
      9 O           0.7065    2.9179   18.7621 O.2     1  UNL1       -0.2733
     10 H          -1.0619    1.9184   21.5947 H       1  UNL1        0.1494
     11 C          -1.4436    3.9754   19.7665 C.3     1  UNL1        0.1759
     12 N          -2.3879    4.1278   20.9221 N.am    1  UNL1       -0.2931
     13 C          -3.8577    3.9031   20.7242 C.2     1  UNL1        0.2462
     14 O          -4.3832    3.5260   19.3708 O.2     1  UNL1       -0.2701
     15 H          -2.0429    4.3752   21.8104 H       1  UNL1        0.1502
     16 C          -4.8019    4.0554   21.8797 C.ar    1  UNL1        0.0533
     17 C          -6.2616    4.2934   21.6291 C.ar    1  UNL1        0.0045
     18 C          -7.2059    4.4457   22.7846 C.ar    1  UNL1        0.0001
     19 C          -6.6905    4.3601   24.1907 C.ar    1  UNL1        0.0039
     20 C          -5.2308    4.1222   24.4413 C.ar    1  UNL1        0.0716
     21 C          -4.2866    3.9698   23.2858 C.ar    1  UNL1        0.0084
     22 C          -4.7154    4.0366   25.8473 C.3     1  UNL1        0.4186
     23 F          -4.1999    3.9510   27.2534 F       1  UNL1       -0.1659
     24 F          -3.5396    3.2384   25.3677 F       1  UNL1       -0.1659
     25 F          -5.8913    4.8349   26.3269 F       1  UNL1       -0.1659
     26 N           3.9552   -2.2586   21.0861 N.3     1  UNL1       -0.2741
     27 C           4.6728   -2.5400   22.3728 C.3     1  UNL1        0.0896
     28 C           5.1612   -2.3717   18.7877 C.3     1  UNL1        0.0173
     29 C           4.3159   -3.0188   19.8444 C.3     1  UNL1        0.0576
     30 C           3.8312   -4.4263   19.6593 C.3     1  UNL1        0.0173
     31 C           1.7951    2.0676   22.9884 C.3     1  UNL1        0.1576
     32 S           1.3142    1.8263   24.3886 S.O2    1  UNL1        0.0087
     33 O          -0.0964    2.0837   23.9484 O.2     1  UNL1       -0.1686
     34 O           2.7248    1.5688   24.8287 O.2     1  UNL1       -0.1686
     35 C           0.8332    1.5850   25.7888 C.ar    1  UNL1        0.1057
     36 C          -0.6023    1.8383   26.1427 C.ar    1  UNL1        0.0183
     37 C          -1.0833    1.5970   27.5428 C.ar    1  UNL1        0.0013
     38 C          -0.1289    1.1024   28.5890 C.ar    1  UNL1        0.0001
     39 C           1.3066    0.8491   28.2350 C.ar    1  UNL1        0.0013
     40 C           1.7876    1.0904   26.8349 C.ar    1  UNL1        0.0183
@<TRIPOS>BOND
     1    28    29    1
     2    29    30    1
     3    29    26    1
     4    26    27    1
     5     1    26    1
     6     1     2    1
     7     2     3    1
     8     3     4    1
     9     4     7    1
    10     7     8   am
    11     8     9    2
    12     8    11    1
    13    11    12    1
    14    12    13   am
    15    13    14    2
    16    13    16    1
    17    16    17   ar
    18    17    18   ar
    19    18    19   ar
    20    19    20   ar
    21    20    22    1
    22    22    23    1
    23    22    24    1
    24    22    25    1
    25    20    21   ar
    26     4     5    1
    27     5    31    1
    28    31    32    1
    29    32    33    2
    30    32    34    2
    31    32    35    1
    32    35    36   ar
    33    36    37   ar
    34    37    38   ar
    35    38    39   ar
    36    39    40   ar
    37     5     6    1
    38     6     1    1
    39    21    16   ar
    40    40    35   ar
    41     7    10    1
    42    12    15    1
@<TRIPOS>MOLECULE
*****
 40 42 0 0 0
SMALL
GASTEIGER

@<TRIPOS>ATOM
      1 C           4.4279    0.0326   29.6434 C.3     1  UNL1        0.0577
      2 C           2.9788   -0.3201   29.4833 C.3     1  UNL1        0.0177
      3 C           2.3796   -0.4259   28.1123 C.3     1  UNL1        0.0210
      4 C           3.2295   -0.1791   26.9013 C.3     1  UNL1        0.0734
      5 C           4.6786    0.1736   27.0613 C.3     1  UNL1        0.0433
      6 C           5.2778    0.2795   28.4324 C.3     1  UNL1        0.0194
      7 N           2.6304   -0.2849   25.5302 N.am    1  UNL1       -0.3045
      8 C           1.9972    0.9166   24.8936 C.2     1  UNL1        0.2425
      9 O           1.9631    2.2241   25.6281 O.2     1  UNL1       -0.2733
     10 H           2.6528   -1.1431   25.0481 H       1  UNL1        0.1494
     11 C           1.3980    0.8107   23.5225 C.3     1  UNL1        0.1759
     12 N           2.2372    0.3403   22.3716 N.am    1  UNL1       -0.2931
     13 C           1.5932    0.0216   21.0549 C.2     1  UNL1        0.2462
     14 O           0.1101    0.1735   20.8891 O.2     1  UNL1       -0.2701
     15 H           3.2106    0.2406   22.4805 H       1  UNL1        0.1502
     16 C           2.4323   -0.4488   19.9040 C.ar    1  UNL1        0.0533
     17 C           2.7791    0.4970   18.7927 C.ar    1  UNL1        0.0045
     18 C           3.6182    0.0265   17.6418 C.ar    1  UNL1        0.0001
     19 C           4.1105   -1.3899   17.6022 C.ar    1  UNL1        0.0039
     20 C           3.7637   -2.3357   18.7135 C.ar    1  UNL1        0.0716
     21 C           2.9246   -1.8653   19.8644 C.ar    1  UNL1        0.0084
     22 C           4.2559   -3.7521   18.6740 C.3     1  UNL1        0.4186
     23 F           4.7482   -5.1685   18.6344 F       1  UNL1       -0.1659
     24 F           2.9817   -4.2129   19.3173 F       1  UNL1       -0.1659
     25 F           5.5301   -3.2912   18.0306 F       1  UNL1       -0.1659
     26 N           5.0270    0.1385   31.0144 N.3     1  UNL1       -0.2741
     27 C           6.2945    0.9135   31.2213 C.3     1  UNL1        0.0896
     28 C           4.4944   -2.0121   32.3713 C.3     1  UNL1        0.0173
     29 C           4.3587   -0.5307   32.1787 C.3     1  UNL1        0.0576
     30 C           3.5548    0.2814   33.1504 C.3     1  UNL1        0.0173
     31 C           5.5287    0.4205   25.8502 C.3     1  UNL1        0.1576
     32 S           5.6812   -0.6496   24.8102 S.O2    1  UNL1        0.0087
     33 O           6.3458   -1.5369   25.8207 O.2     1  UNL1       -0.1686
     34 O           5.0167    0.2377   23.7998 O.2     1  UNL1       -0.1686
     35 C           5.8338   -1.7197   23.7702 C.ar    1  UNL1        0.1057
     36 C           4.6704   -2.6012   23.4248 C.ar    1  UNL1        0.0183
     37 C           4.8229   -3.6713   22.3848 C.ar    1  UNL1        0.0013
     38 C           6.1389   -3.8599   21.6903 C.ar    1  UNL1        0.0001
     39 C           7.3024   -2.9785   22.0357 C.ar    1  UNL1        0.0013
     40 C           7.1499   -1.9084   23.0757 C.ar    1  UNL1        0.0183
@<TRIPOS>BOND
     1    28    29    1
     2    29    30    1
     3    29    26    1
     4    26    27    1
     5     1    26    1
     6     1     2    1
     7     2     3    1
     8     3     4    1
     9     4     7    1
    10     7     8   am
    11     8     9    2
    12     8    11    1
    13    11    12    1
    14    12    13   am
    15    13    14    2
    16    13    16    1
    17    16    17   ar
    18    17    18   ar
    19    18    19   ar
    20    19    20   ar
    21    20    22    1
    22    22    23    1
    23    22    24    1
    24    22    25    1
    25    20    21   ar
    26     4     5    1
    27     5    31    1
    28    31    32    1
    29    32    33    2
    30    32    34    2
    31    32    35    1
    32    35    36   ar
    33    36    37   ar
    34    37    38   ar
    35    38    39   ar
    36    39    40   ar
    37     5     6    1
    38     6     1    1
    39    21    16   ar
    40    40    35   ar
    41     7    10    1
    42    12    15    1
@<TRIPOS>MOLECULE
*****
 40 42 0 0 0
SMALL
GASTEIGER

@<TRIPOS>ATOM
      1 C           7.7172   -4.9557   24.0888 C.3     1  UNL1        0.0577
      2 C           8.5943   -4.8906   22.8737 C.3     1  UNL1        0.0177
      3 C           8.1035   -4.2107   21.6300 C.3     1  UNL1        0.0210
      4 C           6.7355   -3.5961   21.6013 C.3     1  UNL1        0.0734
      5 C           5.8584   -3.6613   22.8163 C.3     1  UNL1        0.0433
      6 C           6.3493   -4.3411   24.0601 C.3     1  UNL1        0.0194
      7 N           6.2447   -2.9163   20.3575 N.am    1  UNL1       -0.3045
      8 C           5.4580   -3.6893   19.3409 C.2     1  UNL1        0.2425
      9 O           5.1622   -5.1423   19.5680 O.2     1  UNL1       -0.2733
     10 H           6.4388   -1.9627   20.2084 H       1  UNL1        0.1494
     11 C           4.9672   -3.0095   18.0971 C.3     1  UNL1        0.1759
     12 N           4.3132   -1.6625   18.1870 N.am    1  UNL1       -0.2931
     13 C           5.1268   -0.4188   17.9841 C.2     1  UNL1        0.2462
     14 O           6.5944   -0.5221   17.6914 O.2     1  UNL1       -0.2701
     15 H           3.3500   -1.5948   18.3791 H       1  UNL1        0.1502
     16 C           4.4729    0.9281   18.0739 C.ar    1  UNL1        0.0533
     17 C           5.2740    2.1695   17.8145 C.ar    1  UNL1        0.0045
     18 C           4.6200    3.5165   17.9043 C.ar    1  UNL1        0.0001
     19 C           3.1650    3.6221   18.2535 C.ar    1  UNL1        0.0039
     20 C           2.3640    2.3807   18.5128 C.ar    1  UNL1        0.0716
     21 C           3.0179    1.0337   18.4230 C.ar    1  UNL1        0.0084
     22 C           0.9091    2.4862   18.8619 C.3     1  UNL1        0.4186
     23 F          -0.5460    2.5918   19.2111 F       1  UNL1       -0.1659
     24 F           1.1913    3.7214   19.6648 F       1  UNL1       -0.1659
     25 F           0.6268    1.2510   18.0591 F       1  UNL1       -0.1659
     26 N           8.2081   -5.6355   25.3325 N.3     1  UNL1       -0.2741
     27 C           8.6224   -4.8184   26.5202 C.3     1  UNL1        0.0896
     28 C           7.2948   -7.9038   26.2105 C.3     1  UNL1        0.0173
     29 C           8.2846   -7.1325   25.3887 C.3     1  UNL1        0.0576
     30 C           9.3509   -7.8582   24.6229 C.3     1  UNL1        0.0173
     31 C           4.4904   -3.0466   22.7877 C.3     1  UNL1        0.1576
     32 S           4.3335   -1.5774   22.5291 S.O2    1  UNL1        0.0087
     33 O           3.5244   -1.8796   21.3028 O.2     1  UNL1       -0.1686
     34 O           5.1427   -1.2752   23.7554 O.2     1  UNL1       -0.1686
     35 C           4.1767   -0.1082   22.2705 C.ar    1  UNL1        0.1057
     36 C           2.8388    0.5462   22.4493 C.ar    1  UNL1        0.0183
     37 C           2.6819    2.0153   22.1907 C.ar    1  UNL1        0.0013
     38 C           3.8628    2.8301   21.7533 C.ar    1  UNL1        0.0001
     39 C           5.2007    2.1758   21.5745 C.ar    1  UNL1        0.0013
     40 C           5.3576    0.7066   21.8331 C.ar    1  UNL1        0.0183
@<TRIPOS>BOND
     1    28    29    1
     2    29    30    1
     3    29    26    1
     4    26    27    1
     5     1    26    1
     6     1     2    1
     7     2     3    1
     8     3     4    1
     9     4     7    1
    10     7     8   am
    11     8     9    2
    12     8    11    1
    13    11    12    1
    14    12    13   am
    15    13    14    2
    16    13    16    1
    17    16    17   ar
    18    17    18   ar
    19    18    19   ar
    20    19    20   ar
    21    20    22    1
    22    22    23    1
    23    22    24    1
    24    22    25    1
    25    20    21   ar
    26     4     5    1
    27     5    31    1
    28    31    32    1
    29    32    33    2
    30    32    34    2
    31    32    35    1
    32    35    36   ar
    33    36    37   ar
    34    37    38   ar
    35    38    39   ar
    36    39    40   ar
    37     5     6    1
    38     6     1    1
    39    21    16   ar
    40    40    35   ar
    41     7    10    1
    42    12    15    1
@<TRIPOS>MOLECULE
*****
 40 42 0 0 0
SMALL
GASTEIGER

@<TRIPOS>ATOM
      1 C           6.3818   -1.9022   31.2798 C.3     1  UNL1        0.0577
      2 C           6.7918   -3.3172   30.9975 C.3     1  UNL1        0.0177
      3 C           6.6408   -3.8802   29.6154 C.3     1  UNL1        0.0210
      4 C           6.0800   -3.0282   28.5156 C.3     1  UNL1        0.0734
      5 C           5.6701   -1.6132   28.7979 C.3     1  UNL1        0.0433
      6 C           5.8210   -1.0502   30.1800 C.3     1  UNL1        0.0194
      7 N           5.9291   -3.5912   27.1335 N.am    1  UNL1       -0.3045
      8 C           7.0582   -3.4828   26.1521 C.2     1  UNL1        0.2425
      9 O           8.3384   -2.8115   26.5528 O.2     1  UNL1       -0.2733
     10 H           5.0889   -4.0318   26.8705 H       1  UNL1        0.1494
     11 C           6.9073   -4.0458   24.7699 C.3     1  UNL1        0.1759
     12 N           5.9878   -3.3840   23.7868 N.am    1  UNL1       -0.2931
     13 C           6.0212   -3.7846   22.3416 C.2     1  UNL1        0.2462
     14 O           6.9741   -4.8470   21.8797 O.2     1  UNL1       -0.2701
     15 H           5.3624   -2.6868   24.0900 H       1  UNL1        0.1502
     16 C           5.1017   -3.1228   21.3585 C.ar    1  UNL1        0.0533
     17 C           5.2478   -3.3993   19.8915 C.ar    1  UNL1        0.0045
     18 C           4.3283   -2.7375   18.9083 C.ar    1  UNL1        0.0001
     19 C           3.2627   -1.7992   19.3922 C.ar    1  UNL1        0.0039
     20 C           3.1166   -1.5228   20.8593 C.ar    1  UNL1        0.0716
     21 C           4.0360   -2.1846   21.8424 C.ar    1  UNL1        0.0084
     22 C           2.0510   -0.5846   21.3432 C.3     1  UNL1        0.4186
     23 F           0.9853    0.3537   21.8271 F       1  UNL1       -0.1659
     24 F           2.9095   -0.2145   22.5161 F       1  UNL1       -0.1659
     25 F           1.1924   -0.9547   20.1702 F       1  UNL1       -0.1659
     26 N           6.5327   -1.3392   32.6619 N.3     1  UNL1       -0.2741
     27 C           7.8150   -0.6733   33.0646 C.3     1  UNL1        0.0896
     28 C           4.3212   -2.4623   33.4351 C.3     1  UNL1        0.0173
     29 C           5.4014   -1.4421   33.6414 C.3     1  UNL1        0.0576
     30 C           5.3500   -0.5248   34.8271 C.3     1  UNL1        0.0173
     31 C           5.1092   -0.7612   27.6981 C.3     1  UNL1        0.1576
     32 S           3.6740   -0.3274   27.7432 S.O2    1  UNL1        0.0087
     33 O           3.2385   -1.7448   27.5170 O.2     1  UNL1       -0.1686
     34 O           4.1095    1.0900   27.9693 O.2     1  UNL1       -0.1686
     35 C           2.2387    0.1064   27.7882 C.ar    1  UNL1        0.1057
     36 C           1.3359   -0.4002   28.8736 C.ar    1  UNL1        0.0183
     37 C          -0.0993    0.0335   28.9187 C.ar    1  UNL1        0.0013
     38 C          -0.6316    0.9738   27.8784 C.ar    1  UNL1        0.0001
     39 C           0.2712    1.4804   26.7929 C.ar    1  UNL1        0.0013
     40 C           1.7064    1.0467   26.7479 C.ar    1  UNL1        0.0183
@<TRIPOS>BOND
     1    28    29    1
     2    29    30    1
     3    29    26    1
     4    26    27    1
     5     1    26    1
     6     1     2    1
     7     2     3    1
     8     3     4    1
     9     4     7    1
    10     7     8   am
    11     8     9    2
    12     8    11    1
    13    11    12    1
    14    12    13   am
    15    13    14    2
    16    13    16    1
    17    16    17   ar
    18    17    18   ar
    19    18    19   ar
    20    19    20   ar
    21    20    22    1
    22    22    23    1
    23    22    24    1
    24    22    25    1
    25    20    21   ar
    26     4     5    1
    27     5    31    1
    28    31    32    1
    29    32    33    2
    30    32    34    2
    31    32    35    1
    32    35    36   ar
    33    36    37   ar
    34    37    38   ar
    35    38    39   ar
    36    39    40   ar
    37     5     6    1
    38     6     1    1
    39    21    16   ar
    40    40    35   ar
    41     7    10    1
    42    12    15    1
