@<TRIPOS>MOLECULE
*****
 28 30 0 0 0
SMALL
GASTEIGER

@<TRIPOS>ATOM
      1 C         -10.0990  -18.9692   25.3169 C.3     1  UNL1        0.1152
      2 N          -9.3517  -18.2596   24.2270 N.am    1  UNL1       -0.2740
      3 C          -8.7793  -19.0387   23.0801 C.2     1  UNL1        0.2303
      4 O          -8.9542  -20.5274   23.0231 O.2     1  UNL1       -0.2745
      5 C          -8.0320  -18.3291   21.9901 C.3     1  UNL1        0.1116
      6 C          -6.5876  -18.6480   21.7406 C.ar    1  UNL1       -0.0131
      7 C          -6.1700  -19.2666   20.4396 C.ar    1  UNL1       -0.0041
      8 C          -4.7257  -19.5855   20.1901 C.ar    1  UNL1       -0.0032
      9 C          -3.6990  -19.2857   21.2418 C.ar    1  UNL1       -0.0066
     10 C          -4.1166  -18.6670   22.5429 C.ar    1  UNL1       -0.0032
     11 C          -5.5609  -18.3482   22.7923 C.ar    1  UNL1       -0.0041
     12 C          -2.2546  -19.6045   20.9923 C.3     1  UNL1        0.0922
     13 N          -1.1820  -18.8050   21.6707 N.3     1  UNL1       -0.3175
     14 H          -1.2063  -17.8444   21.3286 H       1  UNL1        0.1192
     15 H          -0.2710  -19.2158   21.4663 H       1  UNL1        0.1192
     16 C          -9.1768  -16.7709   24.2839 C.3     1  UNL1        0.1138
     17 C          -8.0243  -16.1795   25.0402 C.ar    1  UNL1       -0.0029
     18 C          -8.0851  -16.0702   26.5349 C.ar    1  UNL1       -0.0026
     19 C          -6.9326  -15.4788   27.2912 C.ar    1  UNL1       -0.0003
     20 C          -5.7192  -14.9968   26.5527 C.ar    1  UNL1       -0.0000
     21 C          -5.6584  -15.1061   25.0579 C.ar    1  UNL1       -0.0003
     22 C          -6.8109  -15.6975   24.3017 C.ar    1  UNL1       -0.0026
     23 C         -10.1545  -15.8736   23.5845 C.3     1  UNL1        0.0967
     24 N         -11.0476  -16.4272   22.5142 N.3     1  UNL1       -0.2710
     25 C         -12.2326  -17.3213   22.7298 C.3     1  UNL1        0.0722
     26 C         -12.8300  -17.6307   21.3892 C.3     1  UNL1        0.0188
     27 C         -12.0142  -16.9279   20.3449 C.3     1  UNL1        0.0188
     28 C         -10.9127  -16.1841   21.0402 C.3     1  UNL1        0.0722
@<TRIPOS>BOND
     1     1     2    1
     2     2     3   am
     3     3     4    2
     4     3     5    1
     5     5     6    1
     6     6     7   ar
     7     7     8   ar
     8     8     9   ar
     9     9    12    1
    10    12    13    1
    11     9    10   ar
    12    10    11   ar
    13     2    16    1
    14    16    23    1
    15    23    24    1
    16    24    25    1
    17    25    26    1
    18    26    27    1
    19    27    28    1
    20    16    17    1
    21    17    18   ar
    22    18    19   ar
    23    19    20   ar
    24    20    21   ar
    25    21    22   ar
    26    11     6   ar
    27    28    24    1
    28    22    17   ar
    29    13    14    1
    30    13    15    1
@<TRIPOS>MOLECULE
*****
 28 30 0 0 0
SMALL
GASTEIGER

@<TRIPOS>ATOM
      1 C         -10.3943  -17.9093   20.0559 C.3     1  UNL1        0.1152
      2 N          -9.4084  -18.4867   21.0277 N.am    1  UNL1       -0.2740
      3 C          -8.2095  -19.2347   20.5246 C.2     1  UNL1        0.2303
      4 O          -7.9966  -19.4054   19.0496 O.2     1  UNL1       -0.2745
      5 C          -7.2235  -19.8121   21.4964 C.3     1  UNL1        0.1116
      6 C          -5.7705  -19.4543   21.3925 C.ar    1  UNL1       -0.0131
      7 C          -4.9470  -19.9840   20.2562 C.ar    1  UNL1       -0.0041
      8 C          -3.4941  -19.6261   20.1523 C.ar    1  UNL1       -0.0032
      9 C          -2.8646  -18.7386   21.1848 C.ar    1  UNL1       -0.0066
     10 C          -3.6881  -18.2088   22.3211 C.ar    1  UNL1       -0.0032
     11 C          -5.1410  -18.5667   22.4249 C.ar    1  UNL1       -0.0041
     12 C          -1.4116  -18.3807   21.0809 C.3     1  UNL1        0.0922
     13 N          -0.6401  -18.7289   19.8425 N.3     1  UNL1       -0.3175
     14 H          -0.5726  -19.7431   19.7579 H       1  UNL1        0.1192
     15 H           0.2966  -18.3295   19.9019 H       1  UNL1        0.1192
     16 C          -9.6213  -18.3160   22.5027 C.3     1  UNL1        0.1138
     17 C          -8.9329  -17.2033   23.2360 C.ar    1  UNL1       -0.0029
     18 C          -8.0235  -16.2674   22.4963 C.ar    1  UNL1       -0.0026
     19 C          -7.3351  -15.1546   23.2297 C.ar    1  UNL1       -0.0003
     20 C          -7.5560  -14.9777   24.7027 C.ar    1  UNL1       -0.0000
     21 C          -8.4654  -15.9136   25.4424 C.ar    1  UNL1       -0.0003
     22 C          -9.1538  -17.0264   24.7091 C.ar    1  UNL1       -0.0026
     23 C         -10.5226  -19.2582   23.2443 C.3     1  UNL1        0.0967
     24 N         -11.8754  -18.7985   23.7011 N.3     1  UNL1       -0.2710
     25 C         -12.4596  -18.9991   25.0680 C.3     1  UNL1        0.0722
     26 C         -13.8268  -18.3821   25.0830 C.3     1  UNL1        0.0188
     27 C         -14.0875  -17.8002   23.7253 C.3     1  UNL1        0.0188
     28 C         -12.8815  -18.0576   22.8713 C.3     1  UNL1        0.0722
@<TRIPOS>BOND
     1     1     2    1
     2     2     3   am
     3     3     4    2
     4     3     5    1
     5     5     6    1
     6     6     7   ar
     7     7     8   ar
     8     8     9   ar
     9     9    12    1
    10    12    13    1
    11     9    10   ar
    12    10    11   ar
    13     2    16    1
    14    16    23    1
    15    23    24    1
    16    24    25    1
    17    25    26    1
    18    26    27    1
    19    27    28    1
    20    16    17    1
    21    17    18   ar
    22    18    19   ar
    23    19    20   ar
    24    20    21   ar
    25    21    22   ar
    26    11     6   ar
    27    28    24    1
    28    22    17   ar
    29    13    14    1
    30    13    15    1
@<TRIPOS>MOLECULE
*****
 28 30 0 0 0
SMALL
GASTEIGER

@<TRIPOS>ATOM
      1 C          -9.9162  -19.2015   19.5960 C.3     1  UNL1        0.1152
      2 N          -8.9238  -18.8919   20.6773 N.am    1  UNL1       -0.2740
      3 C          -7.6000  -19.5968   20.7046 C.2     1  UNL1        0.2303
      4 O          -7.2686  -20.6113   19.6506 O.2     1  UNL1       -0.2745
      5 C          -6.6076  -19.2872   21.7860 C.3     1  UNL1        0.1116
      6 C          -5.1733  -19.0236   21.4346 C.ar    1  UNL1       -0.0131
      7 C          -4.1994  -18.6282   22.5047 C.ar    1  UNL1       -0.0041
      8 C          -2.7652  -18.3645   22.1533 C.ar    1  UNL1       -0.0032
      9 C          -2.3049  -18.4963   20.7317 C.ar    1  UNL1       -0.0066
     10 C          -3.2788  -18.8917   19.6616 C.ar    1  UNL1       -0.0032
     11 C          -4.7130  -19.1553   20.0130 C.ar    1  UNL1       -0.0041
     12 C          -0.8706  -18.2327   20.3803 C.3     1  UNL1        0.0922
     13 N          -0.4988  -17.8606   18.9756 N.3     1  UNL1       -0.3175
     14 H          -0.6846  -18.6482   18.3548 H       1  UNL1        0.1192
     15 H           0.4927  -17.6242   18.9377 H       1  UNL1        0.1192
     16 C          -9.2551  -17.8774   21.7314 C.3     1  UNL1        0.1138
     17 C         -10.4508  -18.0769   22.6148 C.ar    1  UNL1       -0.0029
     18 C         -11.7419  -17.3824   22.2975 C.ar    1  UNL1       -0.0026
     19 C         -12.9377  -17.5819   23.1810 C.ar    1  UNL1       -0.0003
     20 C         -12.8422  -18.4758   24.3818 C.ar    1  UNL1       -0.0000
     21 C         -11.5510  -19.1703   24.6990 C.ar    1  UNL1       -0.0003
     22 C         -10.3554  -18.9708   23.8156 C.ar    1  UNL1       -0.0026
     23 C          -8.3907  -16.6634   21.9020 C.3     1  UNL1        0.0967
     24 N          -8.0045  -16.2049   23.2770 N.3     1  UNL1       -0.2710
     25 C          -8.9496  -15.8075   24.3718 C.3     1  UNL1        0.0722
     26 C          -8.1345  -15.4203   25.5701 C.3     1  UNL1        0.0188
     27 C          -6.6856  -15.5785   25.2158 C.3     1  UNL1        0.0188
     28 C          -6.6052  -16.0634   23.7986 C.3     1  UNL1        0.0722
@<TRIPOS>BOND
     1     1     2    1
     2     2     3   am
     3     3     4    2
     4     3     5    1
     5     5     6    1
     6     6     7   ar
     7     7     8   ar
     8     8     9   ar
     9     9    12    1
    10    12    13    1
    11     9    10   ar
    12    10    11   ar
    13     2    16    1
    14    16    23    1
    15    23    24    1
    16    24    25    1
    17    25    26    1
    18    26    27    1
    19    27    28    1
    20    16    17    1
    21    17    18   ar
    22    18    19   ar
    23    19    20   ar
    24    20    21   ar
    25    21    22   ar
    26    11     6   ar
    27    28    24    1
    28    22    17   ar
    29    13    14    1
    30    13    15    1
@<TRIPOS>MOLECULE
*****
 28 30 0 0 0
SMALL
GASTEIGER

@<TRIPOS>ATOM
      1 C          -8.3212  -15.5263   22.7722 C.3     1  UNL1        0.1152
      2 N          -7.3349  -16.6227   23.0459 N.am    1  UNL1       -0.2740
      3 C          -5.9322  -16.2845   23.4563 C.2     1  UNL1        0.2303
      4 O          -5.5160  -14.8499   23.5930 O.2     1  UNL1       -0.2745
      5 C          -4.9459  -17.3809   23.7300 C.3     1  UNL1        0.1116
      6 C          -3.7955  -17.6058   22.7939 C.ar    1  UNL1       -0.0131
      7 C          -3.0387  -16.4348   22.2408 C.ar    1  UNL1       -0.0041
      8 C          -1.8884  -16.6597   21.3048 C.ar    1  UNL1       -0.0032
      9 C          -1.4949  -18.0557   20.9219 C.ar    1  UNL1       -0.0066
     10 C          -2.2518  -19.2266   21.4749 C.ar    1  UNL1       -0.0032
     11 C          -3.4021  -19.0017   22.4109 C.ar    1  UNL1       -0.0041
     12 C          -0.3446  -18.2805   19.9858 C.3     1  UNL1        0.0922
     13 N          -0.4413  -17.8327   18.5575 N.3     1  UNL1       -0.3175
     14 H          -1.1596  -18.3760   18.0787 H       1  UNL1        0.1192
     15 H           0.4568  -17.9744   18.0952 H       1  UNL1        0.1192
     16 C          -7.7511  -18.0573   22.9092 C.3     1  UNL1        0.1138
     17 C          -7.0302  -18.9594   21.9520 C.ar    1  UNL1       -0.0029
     18 C          -6.7481  -20.3831   22.3309 C.ar    1  UNL1       -0.0026
     19 C          -6.0272  -21.2853   21.3736 C.ar    1  UNL1       -0.0003
     20 C          -5.5883  -20.7638   20.0374 C.ar    1  UNL1       -0.0000
     21 C          -5.8703  -19.3400   19.6585 C.ar    1  UNL1       -0.0003
     22 C          -6.5913  -18.4379   20.6158 C.ar    1  UNL1       -0.0026
     23 C          -8.8883  -18.5897   23.7298 C.3     1  UNL1        0.0967
     24 N         -10.3032  -18.3669   23.2845 N.3     1  UNL1       -0.2710
     25 C         -10.7570  -18.1312   21.8744 C.3     1  UNL1        0.0722
     26 C         -12.2471  -17.9593   21.8895 C.3     1  UNL1        0.0188
     27 C         -12.7142  -18.0888   23.3091 C.3     1  UNL1        0.0188
     28 C         -11.5128  -18.3407   24.1712 C.3     1  UNL1        0.0722
@<TRIPOS>BOND
     1     1     2    1
     2     2     3   am
     3     3     4    2
     4     3     5    1
     5     5     6    1
     6     6     7   ar
     7     7     8   ar
     8     8     9   ar
     9     9    12    1
    10    12    13    1
    11     9    10   ar
    12    10    11   ar
    13     2    16    1
    14    16    23    1
    15    23    24    1
    16    24    25    1
    17    25    26    1
    18    26    27    1
    19    27    28    1
    20    16    17    1
    21    17    18   ar
    22    18    19   ar
    23    19    20   ar
    24    20    21   ar
    25    21    22   ar
    26    11     6   ar
    27    28    24    1
    28    22    17   ar
    29    13    14    1
    30    13    15    1
@<TRIPOS>MOLECULE
*****
 28 30 0 0 0
SMALL
GASTEIGER

@<TRIPOS>ATOM
      1 C          -7.8623  -14.9694   23.2864 C.3     1  UNL1        0.1152
      2 N          -7.0586  -16.2356   23.2582 N.am    1  UNL1       -0.2740
      3 C          -5.6845  -16.2652   23.8592 C.2     1  UNL1        0.2303
      4 O          -5.1142  -15.0287   24.4883 O.2     1  UNL1       -0.2745
      5 C          -4.8808  -17.5314   23.8310 C.3     1  UNL1        0.1116
      6 C          -3.7887  -17.7041   22.8172 C.ar    1  UNL1       -0.0131
      7 C          -2.9734  -16.5218   22.3843 C.ar    1  UNL1       -0.0041
      8 C          -1.8813  -16.6946   21.3707 C.ar    1  UNL1       -0.0032
      9 C          -1.6046  -18.0496   20.7899 C.ar    1  UNL1       -0.0066
     10 C          -2.4199  -19.2319   21.2228 C.ar    1  UNL1       -0.0032
     11 C          -3.5119  -19.0591   22.2365 C.ar    1  UNL1       -0.0041
     12 C          -0.5125  -18.2223   19.7762 C.3     1  UNL1        0.0922
     13 N          -0.7269  -17.7779   18.3597 N.3     1  UNL1       -0.3175
     14 H          -1.4517  -18.3522   17.9292 H       1  UNL1        0.1192
     15 H           0.1427  -17.8792   17.8363 H       1  UNL1        0.1192
     16 C          -7.6289  -17.4721   22.6290 C.3     1  UNL1        0.1138
     17 C          -8.5264  -18.3728   23.4247 C.ar    1  UNL1       -0.0029
     18 C          -9.5086  -17.7861   24.3947 C.ar    1  UNL1       -0.0026
     19 C         -10.4063  -18.6868   25.1904 C.ar    1  UNL1       -0.0003
     20 C         -10.3216  -20.1742   25.0160 C.ar    1  UNL1       -0.0000
     21 C          -9.3392  -20.7609   24.0459 C.ar    1  UNL1       -0.0003
     22 C          -8.4417  -19.8602   23.2503 C.ar    1  UNL1       -0.0026
     23 C          -7.3015  -17.8078   21.2041 C.3     1  UNL1        0.0967
     24 N          -8.2833  -18.5763   20.3702 N.3     1  UNL1       -0.2710
     25 C          -7.9596  -19.7256   19.4622 C.3     1  UNL1        0.0722
     26 C          -9.2374  -20.1900   18.8286 C.3     1  UNL1        0.0188
     27 C         -10.3509  -19.3278   19.3450 C.3     1  UNL1        0.0188
     28 C          -9.7613  -18.3305   20.2977 C.3     1  UNL1        0.0722
@<TRIPOS>BOND
     1     1     2    1
     2     2     3   am
     3     3     4    2
     4     3     5    1
     5     5     6    1
     6     6     7   ar
     7     7     8   ar
     8     8     9   ar
     9     9    12    1
    10    12    13    1
    11     9    10   ar
    12    10    11   ar
    13     2    16    1
    14    16    23    1
    15    23    24    1
    16    24    25    1
    17    25    26    1
    18    26    27    1
    19    27    28    1
    20    16    17    1
    21    17    18   ar
    22    18    19   ar
    23    19    20   ar
    24    20    21   ar
    25    21    22   ar
    26    11     6   ar
    27    28    24    1
    28    22    17   ar
    29    13    14    1
    30    13    15    1
@<TRIPOS>MOLECULE
*****
 28 30 0 0 0
SMALL
GASTEIGER

@<TRIPOS>ATOM
      1 C          -9.3492  -19.1113   19.5030 C.3     1  UNL1        0.1152
      2 N          -8.2723  -19.0991   20.5470 N.am    1  UNL1       -0.2740
      3 C          -7.0613  -19.9694   20.3857 C.2     1  UNL1        0.2303
      4 O          -6.9273  -20.8520   19.1802 O.2     1  UNL1       -0.2745
      5 C          -5.9844  -19.9572   21.4297 C.3     1  UNL1        0.1116
      6 C          -4.5950  -19.5216   21.0690 C.ar    1  UNL1       -0.0131
      7 C          -4.2932  -19.0549   19.6758 C.ar    1  UNL1       -0.0041
      8 C          -2.9039  -18.6193   19.3152 C.ar    1  UNL1       -0.0032
      9 C          -1.8164  -18.6505   20.3478 C.ar    1  UNL1       -0.0066
     10 C          -2.1181  -19.1173   21.7410 C.ar    1  UNL1       -0.0032
     11 C          -3.5075  -19.5528   22.1016 C.ar    1  UNL1       -0.0041
     12 C          -0.4270  -18.2150   19.9872 C.3     1  UNL1        0.0922
     13 N          -0.0989  -16.7542   19.8959 N.3     1  UNL1       -0.3175
     14 H          -0.6150  -16.3376   19.1210 H       1  UNL1        0.1192
     15 H           0.9023  -16.6398   19.7382 H       1  UNL1        0.1192
     16 C          -8.4063  -18.2165   21.7525 C.3     1  UNL1        0.1138
     17 C          -9.0652  -18.7386   22.9948 C.ar    1  UNL1       -0.0029
     18 C          -9.1244  -20.2158   23.2480 C.ar    1  UNL1       -0.0026
     19 C          -9.7833  -20.7380   24.4904 C.ar    1  UNL1       -0.0003
     20 C         -10.3829  -19.7828   25.4794 C.ar    1  UNL1       -0.0000
     21 C         -10.3237  -18.3055   25.2260 C.ar    1  UNL1       -0.0003
     22 C          -9.6649  -17.7834   23.9837 C.ar    1  UNL1       -0.0026
     23 C          -7.8815  -16.8117   21.7156 C.3     1  UNL1        0.0967
     24 N          -7.0610  -16.2875   22.8566 N.3     1  UNL1       -0.2710
     25 C          -5.7092  -16.7868   23.2731 C.3     1  UNL1        0.0722
     26 C          -5.2610  -15.9798   24.4554 C.3     1  UNL1        0.0188
     27 C          -6.3357  -14.9817   24.7697 C.3     1  UNL1        0.0188
     28 C          -7.4482  -15.1719   23.7815 C.3     1  UNL1        0.0722
@<TRIPOS>BOND
     1     1     2    1
     2     2     3   am
     3     3     4    2
     4     3     5    1
     5     5     6    1
     6     6     7   ar
     7     7     8   ar
     8     8     9   ar
     9     9    12    1
    10    12    13    1
    11     9    10   ar
    12    10    11   ar
    13     2    16    1
    14    16    23    1
    15    23    24    1
    16    24    25    1
    17    25    26    1
    18    26    27    1
    19    27    28    1
    20    16    17    1
    21    17    18   ar
    22    18    19   ar
    23    19    20   ar
    24    20    21   ar
    25    21    22   ar
    26    11     6   ar
    27    28    24    1
    28    22    17   ar
    29    13    14    1
    30    13    15    1
@<TRIPOS>MOLECULE
*****
 28 30 0 0 0
SMALL
GASTEIGER

@<TRIPOS>ATOM
      1 C          -7.5790  -14.6080   24.6143 C.3     1  UNL1        0.1152
      2 N          -7.1847  -15.8711   23.9080 N.am    1  UNL1       -0.2740
      3 C          -5.7848  -16.3951   24.0337 C.2     1  UNL1        0.2303
      4 O          -4.7792  -15.6560   24.8659 O.2     1  UNL1       -0.2745
      5 C          -5.3905  -17.6583   23.3274 C.3     1  UNL1        0.1116
      6 C          -4.1710  -17.6799   22.4541 C.ar    1  UNL1       -0.0131
      7 C          -3.1887  -16.5476   22.5094 C.ar    1  UNL1       -0.0041
      8 C          -1.9693  -16.5693   21.6362 C.ar    1  UNL1       -0.0032
      9 C          -1.7322  -17.7233   20.7077 C.ar    1  UNL1       -0.0066
     10 C          -2.7145  -18.8555   20.6524 C.ar    1  UNL1       -0.0032
     11 C          -3.9339  -18.8338   21.5256 C.ar    1  UNL1       -0.0041
     12 C          -0.5127  -17.7449   19.8344 C.3     1  UNL1        0.0922
     13 N          -0.6589  -17.8340   18.3442 N.3     1  UNL1       -0.3175
     14 H          -1.0629  -18.7370   18.0956 H       1  UNL1        0.1192
     15 H           0.2576  -17.7395   17.9065 H       1  UNL1        0.1192
     16 C          -8.1902  -16.6103   23.0758 C.3     1  UNL1        0.1138
     17 C          -8.7653  -17.9050   23.5687 C.ar    1  UNL1       -0.0029
     18 C          -8.5258  -19.1720   22.8024 C.ar    1  UNL1       -0.0026
     19 C          -9.1009  -20.4668   23.2954 C.ar    1  UNL1       -0.0003
     20 C          -9.9154  -20.4945   24.5547 C.ar    1  UNL1       -0.0000
     21 C         -10.1548  -19.2274   25.3210 C.ar    1  UNL1       -0.0003
     22 C          -9.5797  -17.9327   24.8281 C.ar    1  UNL1       -0.0026
     23 C          -8.6207  -16.0547   21.7506 C.3     1  UNL1        0.0967
     24 N         -10.0554  -16.1569   21.3249 N.3     1  UNL1       -0.2710
     25 C         -10.5472  -16.3411   19.9198 C.3     1  UNL1        0.0722
     26 C         -12.0459  -16.3908   19.9560 C.3     1  UNL1        0.0188
     27 C         -12.4804  -16.2373   21.3835 C.3     1  UNL1        0.0188
     28 C         -11.2502  -16.0928   22.2294 C.3     1  UNL1        0.0722
@<TRIPOS>BOND
     1     1     2    1
     2     2     3   am
     3     3     4    2
     4     3     5    1
     5     5     6    1
     6     6     7   ar
     7     7     8   ar
     8     8     9   ar
     9     9    12    1
    10    12    13    1
    11     9    10   ar
    12    10    11   ar
    13     2    16    1
    14    16    23    1
    15    23    24    1
    16    24    25    1
    17    25    26    1
    18    26    27    1
    19    27    28    1
    20    16    17    1
    21    17    18   ar
    22    18    19   ar
    23    19    20   ar
    24    20    21   ar
    25    21    22   ar
    26    11     6   ar
    27    28    24    1
    28    22    17   ar
    29    13    14    1
    30    13    15    1
@<TRIPOS>MOLECULE
*****
 28 30 0 0 0
SMALL
GASTEIGER

@<TRIPOS>ATOM
      1 C          -8.0274  -14.9109   23.8477 C.3     1  UNL1        0.1152
      2 N          -7.3100  -16.2037   23.5949 N.am    1  UNL1       -0.2740
      3 C          -5.8441  -16.3185   23.8917 C.2     1  UNL1        0.2303
      4 O          -5.0956  -15.1404   24.4412 O.2     1  UNL1       -0.2745
      5 C          -5.1267  -17.6113   23.6390 C.3     1  UNL1        0.1116
      6 C          -3.9270  -17.6398   22.7389 C.ar    1  UNL1       -0.0131
      7 C          -3.5129  -18.9229   22.0816 C.ar    1  UNL1       -0.0041
      8 C          -2.3133  -18.9514   21.1815 C.ar    1  UNL1       -0.0032
      9 C          -1.5278  -17.6968   20.9388 C.ar    1  UNL1       -0.0066
     10 C          -1.9419  -16.4137   21.5962 C.ar    1  UNL1       -0.0032
     11 C          -3.1415  -16.3852   22.4962 C.ar    1  UNL1       -0.0041
     12 C          -0.3281  -17.7253   20.0388 C.3     1  UNL1        0.0922
     13 N           1.0322  -17.9945   20.6105 N.3     1  UNL1       -0.3175
     14 H           1.2997  -17.2274   21.2272 H       1  UNL1        0.1192
     15 H           1.7101  -18.0736   19.8524 H       1  UNL1        0.1192
     16 C          -8.0584  -17.3818   23.0454 C.3     1  UNL1        0.1138
     17 C          -9.5347  -17.5079   23.2792 C.ar    1  UNL1       -0.0029
     18 C         -10.0556  -18.5222   24.2538 C.ar    1  UNL1       -0.0026
     19 C         -11.5320  -18.6484   24.4877 C.ar    1  UNL1       -0.0003
     20 C         -12.4872  -17.7603   23.7469 C.ar    1  UNL1       -0.0000
     21 C         -11.9662  -16.7460   22.7722 C.ar    1  UNL1       -0.0003
     22 C         -10.4899  -16.6198   22.5384 C.ar    1  UNL1       -0.0026
     23 C          -7.3305  -18.4338   22.2621 C.3     1  UNL1        0.0967
     24 N          -7.9195  -18.9616   20.9875 N.3     1  UNL1       -0.2710
     25 C          -7.1676  -19.2509   19.7222 C.3     1  UNL1        0.0722
     26 C          -8.1471  -19.7609   18.7072 C.3     1  UNL1        0.0188
     27 C          -9.5045  -19.7869   19.3451 C.3     1  UNL1        0.0188
     28 C          -9.3637  -19.2929   20.7545 C.3     1  UNL1        0.0722
@<TRIPOS>BOND
     1     1     2    1
     2     2     3   am
     3     3     4    2
     4     3     5    1
     5     5     6    1
     6     6     7   ar
     7     7     8   ar
     8     8     9   ar
     9     9    12    1
    10    12    13    1
    11     9    10   ar
    12    10    11   ar
    13     2    16    1
    14    16    23    1
    15    23    24    1
    16    24    25    1
    17    25    26    1
    18    26    27    1
    19    27    28    1
    20    16    17    1
    21    17    18   ar
    22    18    19   ar
    23    19    20   ar
    24    20    21   ar
    25    21    22   ar
    26    11     6   ar
    27    28    24    1
    28    22    17   ar
    29    13    14    1
    30    13    15    1
@<TRIPOS>MOLECULE
*****
 28 30 0 0 0
SMALL
GASTEIGER

@<TRIPOS>ATOM
      1 C          -9.9882   -5.6798   18.7440 C.3     1  UNL1        0.1152
      2 N         -11.1592   -5.9740   17.8540 N.am    1  UNL1       -0.2740
      3 C         -11.3097   -7.3330   17.2370 C.2     1  UNL1        0.2303
      4 O         -10.2891   -8.3978   17.5102 O.2     1  UNL1       -0.2745
      5 C         -12.4807   -7.6271   16.3470 C.3     1  UNL1        0.1116
      6 C         -13.8285   -7.8999   16.9465 C.ar    1  UNL1       -0.0131
      7 C         -15.0701   -7.6655   16.1382 C.ar    1  UNL1       -0.0041
      8 C         -16.4178   -7.9382   16.7376 C.ar    1  UNL1       -0.0032
      9 C         -16.5238   -8.4453   18.1453 C.ar    1  UNL1       -0.0066
     10 C         -15.2822   -8.6797   18.9536 C.ar    1  UNL1       -0.0032
     11 C         -13.9345   -8.4070   18.3542 C.ar    1  UNL1       -0.0041
     12 C         -17.8716   -8.7181   18.7447 C.3     1  UNL1        0.0922
     13 N         -18.1639  -10.0565   19.3554 N.3     1  UNL1       -0.3175
     14 H         -18.1526  -10.7718   18.6282 H       1  UNL1        0.1192
     15 H         -19.0830  -10.0353   19.7971 H       1  UNL1        0.1192
     16 C         -12.1798   -4.9092   17.5809 C.3     1  UNL1        0.1138
     17 C         -13.4197   -4.8256   18.4208 C.ar    1  UNL1       -0.0029
     18 C         -14.7426   -4.5313   17.7780 C.ar    1  UNL1       -0.0026
     19 C         -15.9826   -4.4477   18.6180 C.ar    1  UNL1       -0.0003
     20 C         -15.8995   -4.6584   20.1008 C.ar    1  UNL1       -0.0000
     21 C         -14.5765   -4.9528   20.7436 C.ar    1  UNL1       -0.0003
     22 C         -13.3367   -5.0363   19.9037 C.ar    1  UNL1       -0.0026
     23 C         -11.9604   -3.9279   16.4677 C.3     1  UNL1        0.0967
     24 N         -11.6780   -2.4886   16.7815 N.3     1  UNL1       -0.2710
     25 C         -12.6849   -1.4685   17.2237 C.3     1  UNL1        0.0722
     26 C         -11.9683   -0.1661   17.4237 C.3     1  UNL1        0.0188
     27 C         -10.5184   -0.3811   17.1051 C.3     1  UNL1        0.0188
     28 C         -10.3390   -1.8165   16.7082 C.3     1  UNL1        0.0722
@<TRIPOS>BOND
     1     1     2    1
     2     2     3   am
     3     3     4    2
     4     3     5    1
     5     5     6    1
     6     6     7   ar
     7     7     8   ar
     8     8     9   ar
     9     9    12    1
    10    12    13    1
    11     9    10   ar
    12    10    11   ar
    13     2    16    1
    14    16    23    1
    15    23    24    1
    16    24    25    1
    17    25    26    1
    18    26    27    1
    19    27    28    1
    20    16    17    1
    21    17    18   ar
    22    18    19   ar
    23    19    20   ar
    24    20    21   ar
    25    21    22   ar
    26    11     6   ar
    27    28    24    1
    28    22    17   ar
    29    13    14    1
    30    13    15    1
