@<TRIPOS>MOLECULE
*****
 24 26 0 0 0
SMALL
GASTEIGER

@<TRIPOS>ATOM
      1 C          -8.0687  -17.9878   21.5617 C.3     1  UNL1        0.1471
      2 O          -6.7714  -17.3003   21.8687 O.3     1  UNL1       -0.3812
      3 C          -9.1815  -18.8963   21.1302 C.3     1  UNL1        0.0584
      4 C         -10.4805  -18.2571   21.5229 C.ar    1  UNL1       -0.0202
      5 C         -11.9055  -18.6936   21.3537 C.ar    1  UNL1       -0.0044
      6 C         -13.0204  -17.8265   21.8587 C.ar    1  UNL1       -0.0003
      7 C         -12.7103  -16.5229   22.5328 C.ar    1  UNL1       -0.0002
      8 C         -11.2853  -16.0864   22.7020 C.ar    1  UNL1       -0.0011
      9 C         -10.1704  -16.9535   22.1971 C.ar    1  UNL1        0.0157
     10 C          -8.6798  -16.7871   22.2210 C.3     1  UNL1        0.2136
     11 H          -6.0339  -17.8441   21.5504 H       1  UNL1        0.2105
     12 C          -7.1864  -19.0449   20.9665 C.3     1  UNL1        0.1001
     13 C          -4.8360  -19.3438   19.9005 C.3     1  UNL1        0.0859
     14 N          -6.1800  -18.6779   19.9165 N.3     1  UNL1       -0.2942
     15 H          -6.6139  -18.8687   19.0133 H       1  UNL1        0.1234
     16 O          -7.9317  -15.6241   22.8023 O.3     1  UNL1       -0.4725
     17 C          -7.6246  -15.5879   24.2701 C.ar    1  UNL1        0.1371
     18 C          -8.7345  -15.7083   25.2718 C.ar    1  UNL1        0.0367
     19 C          -8.4275  -15.6721   26.7396 C.ar    1  UNL1        0.0054
     20 C          -7.0103  -15.5156   27.2056 C.ar    1  UNL1        0.0295
     21 C          -5.9003  -15.3953   26.2039 C.ar    1  UNL1        0.1390
     22 F          -4.4832  -15.2388   26.6699 F       1  UNL1       -0.2044
     23 C          -6.2074  -15.4315   24.7362 C.ar    1  UNL1        0.0395
     24 C          -5.0974  -15.3111   23.7344 C.3     1  UNL1        0.0366
@<TRIPOS>BOND
     1    13    14    1
     2    14    12    1
     3    12     1    1
     4     1     2    1
     5     1     3    1
     6     3     4    1
     7     4     5   ar
     8     5     6   ar
     9     6     7   ar
    10     7     8   ar
    11     8     9   ar
    12     9    10    1
    13    10    16    1
    14    16    17    1
    15    17    18   ar
    16    18    19   ar
    17    19    20   ar
    18    20    21   ar
    19    21    22    1
    20    21    23   ar
    21    23    24    1
    22    10     1    1
    23    23    17   ar
    24     9     4   ar
    25    14    15    1
    26     2    11    1
@<TRIPOS>MOLECULE
*****
 24 26 0 0 0
SMALL
GASTEIGER

@<TRIPOS>ATOM
      1 C          -6.2357  -15.9040   23.8364 C.3     1  UNL1        0.1471
      2 O          -7.2670  -14.8496   24.1096 O.3     1  UNL1       -0.3812
      3 C          -5.0259  -16.7870   23.7557 C.3     1  UNL1        0.0584
      4 C          -5.3481  -17.9324   22.8422 C.ar    1  UNL1       -0.0202
      5 C          -4.5405  -19.1122   22.3885 C.ar    1  UNL1       -0.0044
      6 C          -5.1419  -20.1167   21.4510 C.ar    1  UNL1       -0.0003
      7 C          -6.5508  -19.9416   20.9671 C.ar    1  UNL1       -0.0002
      8 C          -7.3584  -18.7618   21.4208 C.ar    1  UNL1       -0.0011
      9 C          -6.7570  -17.7572   22.3584 C.ar    1  UNL1        0.0157
     10 C          -7.3056  -16.5036   22.9728 C.3     1  UNL1        0.2136
     11 H          -6.8995  -14.1871   24.7154 H       1  UNL1        0.2105
     12 C          -5.3814  -15.0840   24.7572 C.3     1  UNL1        0.1001
     13 C          -6.4006  -15.4120   27.1244 C.3     1  UNL1        0.0859
     14 N          -5.9699  -14.5054   26.0097 N.3     1  UNL1       -0.2942
     15 H          -5.2707  -13.8725   26.3984 H       1  UNL1        0.1234
     16 O          -8.6824  -15.9473   22.7609 O.3     1  UNL1       -0.4725
     17 C          -9.8859  -16.8043   23.0207 C.ar    1  UNL1        0.1371
     18 C          -9.9574  -17.6395   24.2647 C.ar    1  UNL1        0.0367
     19 C         -11.1607  -18.4964   24.5246 C.ar    1  UNL1        0.0054
     20 C         -12.2925  -18.5182   23.5405 C.ar    1  UNL1        0.0295
     21 C         -12.2210  -17.6830   22.2966 C.ar    1  UNL1        0.1390
     22 F         -13.3529  -17.7048   21.3125 F       1  UNL1       -0.2044
     23 C         -11.0177  -16.8261   22.0367 C.ar    1  UNL1        0.0395
     24 C         -10.9462  -15.9909   20.7927 C.3     1  UNL1        0.0366
@<TRIPOS>BOND
     1    13    14    1
     2    14    12    1
     3    12     1    1
     4     1     2    1
     5     1     3    1
     6     3     4    1
     7     4     5   ar
     8     5     6   ar
     9     6     7   ar
    10     7     8   ar
    11     8     9   ar
    12     9    10    1
    13    10    16    1
    14    16    17    1
    15    17    18   ar
    16    18    19   ar
    17    19    20   ar
    18    20    21   ar
    19    21    22    1
    20    21    23   ar
    21    23    24    1
    22    10     1    1
    23    23    17   ar
    24     9     4   ar
    25    14    15    1
    26     2    11    1
@<TRIPOS>MOLECULE
*****
 24 26 0 0 0
SMALL
GASTEIGER

@<TRIPOS>ATOM
      1 C          -6.5796  -15.9203   23.5006 C.3     1  UNL1        0.1471
      2 O          -7.4971  -14.7500   23.6973 O.3     1  UNL1       -0.3812
      3 C          -5.4738  -16.9338   23.4996 C.3     1  UNL1        0.0584
      4 C          -5.8829  -18.0653   22.6039 C.ar    1  UNL1       -0.0202
      5 C          -5.1938  -19.3412   22.2201 C.ar    1  UNL1       -0.0044
      6 C          -5.8633  -20.3028   21.2837 C.ar    1  UNL1       -0.0003
      7 C          -7.2219  -19.9886   20.7311 C.ar    1  UNL1       -0.0002
      8 C          -7.9110  -18.7128   21.1149 C.ar    1  UNL1       -0.0011
      9 C          -7.2415  -17.7511   22.0513 C.ar    1  UNL1        0.0157
     10 C          -7.6721  -16.4254   22.6055 C.3     1  UNL1        0.2136
     11 H          -7.0839  -14.1131   24.3010 H       1  UNL1        0.2105
     12 C          -5.6789  -15.1705   24.4369 C.3     1  UNL1        0.1001
     13 C          -6.4632  -15.5557   26.8836 C.3     1  UNL1        0.0859
     14 N          -6.2204  -14.6312   25.7276 N.3     1  UNL1       -0.2942
     15 H          -5.5613  -13.9229   26.0504 H       1  UNL1        0.1234
     16 O          -8.9677  -15.7274   22.3154 O.3     1  UNL1       -0.4725
     17 C         -10.2579  -16.4915   22.3610 C.ar    1  UNL1        0.1371
     18 C         -11.1945  -16.4523   21.1900 C.ar    1  UNL1        0.0367
     19 C         -12.4845  -17.2162   21.2356 C.ar    1  UNL1        0.0054
     20 C         -12.8380  -18.0194   22.4521 C.ar    1  UNL1        0.0295
     21 C         -11.9013  -18.0585   23.6231 C.ar    1  UNL1        0.1390
     22 F         -12.2548  -18.8617   24.8397 F       1  UNL1       -0.2044
     23 C         -10.6113  -17.2946   23.5776 C.ar    1  UNL1        0.0395
     24 C          -9.6747  -17.3338   24.7486 C.3     1  UNL1        0.0366
@<TRIPOS>BOND
     1    13    14    1
     2    14    12    1
     3    12     1    1
     4     1     2    1
     5     1     3    1
     6     3     4    1
     7     4     5   ar
     8     5     6   ar
     9     6     7   ar
    10     7     8   ar
    11     8     9   ar
    12     9    10    1
    13    10    16    1
    14    16    17    1
    15    17    18   ar
    16    18    19   ar
    17    19    20   ar
    18    20    21   ar
    19    21    22    1
    20    21    23   ar
    21    23    24    1
    22    10     1    1
    23    23    17   ar
    24     9     4   ar
    25    14    15    1
    26     2    11    1
@<TRIPOS>MOLECULE
*****
 24 26 0 0 0
SMALL
GASTEIGER

@<TRIPOS>ATOM
      1 C          -6.2457  -18.8286   21.6500 C.3     1  UNL1        0.1471
      2 O          -6.5180  -17.6072   22.4770 O.3     1  UNL1       -0.3812
      3 C          -5.7010  -20.0542   20.9782 C.3     1  UNL1        0.0584
      4 C          -6.7244  -20.5367   19.9934 C.ar    1  UNL1       -0.0202
      5 C          -6.7364  -21.7006   19.0474 C.ar    1  UNL1       -0.0044
      6 C          -7.9257  -21.9371   18.1644 C.ar    1  UNL1       -0.0003
      7 C          -9.1029  -21.0097   18.2275 C.ar    1  UNL1       -0.0002
      8 C          -9.0909  -19.8458   19.1736 C.ar    1  UNL1       -0.0011
      9 C          -7.9017  -19.6093   20.0565 C.ar    1  UNL1        0.0157
     10 C          -7.6058  -18.5537   21.0803 C.3     1  UNL1        0.2136
     11 H          -5.7604  -17.4342   23.0574 H       1  UNL1        0.2105
     12 C          -4.9425  -18.8483   22.3925 C.3     1  UNL1        0.1001
     13 C          -2.7567  -17.4758   22.6903 C.3     1  UNL1        0.0859
     14 N          -4.2538  -17.5600   22.7329 N.3     1  UNL1       -0.2942
     15 H          -4.6068  -16.8569   22.0837 H       1  UNL1        0.1234
     16 O          -8.5111  -17.4218   21.4666 O.3     1  UNL1       -0.4725
     17 C          -9.7988  -17.7023   22.1831 C.ar    1  UNL1        0.1371
     18 C          -9.7804  -18.1129   23.6257 C.ar    1  UNL1        0.0367
     19 C         -11.0680  -18.3934   24.3422 C.ar    1  UNL1        0.0054
     20 C         -12.3740  -18.2634   23.6161 C.ar    1  UNL1        0.0295
     21 C         -12.3925  -17.8529   22.1735 C.ar    1  UNL1        0.1390
     22 F         -13.6985  -17.7228   21.4473 F       1  UNL1       -0.2044
     23 C         -11.1049  -17.5723   21.4570 C.ar    1  UNL1        0.0395
     24 C         -11.1233  -17.1618   20.0144 C.3     1  UNL1        0.0366
@<TRIPOS>BOND
     1    13    14    1
     2    14    12    1
     3    12     1    1
     4     1     2    1
     5     1     3    1
     6     3     4    1
     7     4     5   ar
     8     5     6   ar
     9     6     7   ar
    10     7     8   ar
    11     8     9   ar
    12     9    10    1
    13    10    16    1
    14    16    17    1
    15    17    18   ar
    16    18    19   ar
    17    19    20   ar
    18    20    21   ar
    19    21    22    1
    20    21    23   ar
    21    23    24    1
    22    10     1    1
    23    23    17   ar
    24     9     4   ar
    25    14    15    1
    26     2    11    1
@<TRIPOS>MOLECULE
*****
 24 26 0 0 0
SMALL
GASTEIGER

@<TRIPOS>ATOM
      1 C          -6.2871  -18.7642   21.7579 C.3     1  UNL1        0.1471
      2 O          -6.4732  -17.5312   22.5917 O.3     1  UNL1       -0.3812
      3 C          -5.8300  -20.0216   21.0798 C.3     1  UNL1        0.0584
      4 C          -6.8829  -20.4236   20.0900 C.ar    1  UNL1       -0.0202
      5 C          -6.9760  -21.5781   19.1369 C.ar    1  UNL1       -0.0044
      6 C          -8.1770  -21.7236   18.2501 C.ar    1  UNL1       -0.0003
      7 C          -9.2849  -20.7146   18.3165 C.ar    1  UNL1       -0.0002
      8 C          -9.1918  -19.5601   19.2696 C.ar    1  UNL1       -0.0011
      9 C          -7.9908  -19.4146   20.1564 C.ar    1  UNL1        0.0157
     10 C          -7.6226  -18.3890   21.1872 C.3     1  UNL1        0.2136
     11 H          -5.7066  -17.4165   23.1748 H       1  UNL1        0.2105
     12 C          -4.9905  -18.8816   22.5029 C.3     1  UNL1        0.1001
     13 C          -2.4561  -18.4390   22.1412 C.3     1  UNL1        0.0859
     14 N          -3.8667  -17.9332   22.2066 N.3     1  UNL1       -0.2942
     15 H          -4.0699  -17.5096   21.3013 H       1  UNL1        0.1234
     16 O          -8.4455  -17.1975   21.5785 O.3     1  UNL1       -0.4725
     17 C          -9.9115  -17.3561   21.8538 C.ar    1  UNL1        0.1371
     18 C         -10.9168  -16.9666   20.8109 C.ar    1  UNL1        0.0367
     19 C         -12.3828  -17.1252   21.0860 C.ar    1  UNL1        0.0054
     20 C         -12.8435  -17.6734   22.4041 C.ar    1  UNL1        0.0295
     21 C         -11.8381  -18.0629   23.4470 C.ar    1  UNL1        0.1390
     22 F         -12.2988  -18.6111   24.7650 F       1  UNL1       -0.2044
     23 C         -10.3722  -17.9043   23.1718 C.ar    1  UNL1        0.0395
     24 C          -9.3668  -18.2939   24.2147 C.3     1  UNL1        0.0366
@<TRIPOS>BOND
     1    13    14    1
     2    14    12    1
     3    12     1    1
     4     1     2    1
     5     1     3    1
     6     3     4    1
     7     4     5   ar
     8     5     6   ar
     9     6     7   ar
    10     7     8   ar
    11     8     9   ar
    12     9    10    1
    13    10    16    1
    14    16    17    1
    15    17    18   ar
    16    18    19   ar
    17    19    20   ar
    18    20    21   ar
    19    21    22    1
    20    21    23   ar
    21    23    24    1
    22    10     1    1
    23    23    17   ar
    24     9     4   ar
    25    14    15    1
    26     2    11    1
@<TRIPOS>MOLECULE
*****
 24 26 0 0 0
SMALL
GASTEIGER

@<TRIPOS>ATOM
      1 C          -6.9578  -18.5652   22.0211 C.3     1  UNL1        0.1471
      2 O          -5.8094  -17.7211   22.4889 O.3     1  UNL1       -0.3812
      3 C          -7.8913  -19.6375   21.5430 C.3     1  UNL1        0.0584
      4 C          -9.2558  -19.0321   21.3950 C.ar    1  UNL1       -0.0202
      5 C         -10.5687  -19.6111   20.9581 C.ar    1  UNL1       -0.0044
      6 C         -11.7913  -18.7436   20.9079 C.ar    1  UNL1       -0.0003
      7 C         -11.7010  -17.2971   21.2946 C.ar    1  UNL1       -0.0002
      8 C         -10.3881  -16.7182   21.7315 C.ar    1  UNL1       -0.0011
      9 C          -9.1655  -17.5856   21.7817 C.ar    1  UNL1        0.0157
     10 C          -7.7452  -17.2971   22.1687 C.3     1  UNL1        0.2136
     11 H          -5.0056  -18.2625   22.5292 H       1  UNL1        0.2105
     12 C          -5.9303  -19.6569   21.9714 C.3     1  UNL1        0.1001
     13 C          -4.2225  -20.3747   20.1498 C.3     1  UNL1        0.0859
     14 N          -5.6281  -20.3438   20.6726 N.3     1  UNL1       -0.2942
     15 H          -5.9250  -21.3140   20.7766 H       1  UNL1        0.1234
     16 O          -7.2070  -15.9728   22.6233 O.3     1  UNL1       -0.4725
     17 C          -6.8791  -15.7535   24.0706 C.ar    1  UNL1        0.1371
     18 C          -5.4547  -15.5493   24.4943 C.ar    1  UNL1        0.0367
     19 C          -5.1267  -15.3300   25.9414 C.ar    1  UNL1        0.0054
     20 C          -6.2232  -15.3147   26.9649 C.ar    1  UNL1        0.0295
     21 C          -7.6475  -15.5189   26.5413 C.ar    1  UNL1        0.1390
     22 F          -8.7440  -15.5037   27.5648 F       1  UNL1       -0.2044
     23 C          -7.9755  -15.7383   25.0941 C.ar    1  UNL1        0.0395
     24 C          -9.3999  -15.9424   24.6704 C.3     1  UNL1        0.0366
@<TRIPOS>BOND
     1    13    14    1
     2    14    12    1
     3    12     1    1
     4     1     2    1
     5     1     3    1
     6     3     4    1
     7     4     5   ar
     8     5     6   ar
     9     6     7   ar
    10     7     8   ar
    11     8     9   ar
    12     9    10    1
    13    10    16    1
    14    16    17    1
    15    17    18   ar
    16    18    19   ar
    17    19    20   ar
    18    20    21   ar
    19    21    22    1
    20    21    23   ar
    21    23    24    1
    22    10     1    1
    23    23    17   ar
    24     9     4   ar
    25    14    15    1
    26     2    11    1
@<TRIPOS>MOLECULE
*****
 24 26 0 0 0
SMALL
GASTEIGER

@<TRIPOS>ATOM
      1 C          -6.0936  -17.2811   23.2406 C.3     1  UNL1        0.1471
      2 O          -7.3749  -16.8686   23.9026 O.3     1  UNL1       -0.3812
      3 C          -4.6933  -17.4453   22.7286 C.3     1  UNL1        0.0584
      4 C          -4.6652  -18.6486   21.8334 C.ar    1  UNL1       -0.0202
      5 C          -3.5590  -19.2915   21.0505 C.ar    1  UNL1       -0.0044
      6 C          -3.8357  -20.5139   20.2265 C.ar    1  UNL1       -0.0003
      7 C          -5.2186  -21.0934   20.1853 C.ar    1  UNL1       -0.0002
      8 C          -6.3248  -20.4506   20.9682 C.ar    1  UNL1       -0.0011
      9 C          -6.0481  -19.2282   21.7923 C.ar    1  UNL1        0.0157
     10 C          -6.9309  -18.3830   22.6620 C.3     1  UNL1        0.2136
     11 H          -7.2199  -16.0778   24.4424 H       1  UNL1        0.2105
     12 C          -5.5242  -16.0930   23.9577 C.3     1  UNL1        0.1001
     13 C          -5.7622  -15.2468   26.4025 C.3     1  UNL1        0.0859
     14 N          -6.3262  -15.4038   25.0215 N.3     1  UNL1       -0.2942
     15 H          -6.5269  -14.4649   24.6770 H       1  UNL1        0.1234
     16 O          -8.3941  -18.6014   22.9095 O.3     1  UNL1       -0.4725
     17 C          -9.3840  -18.3717   21.8060 C.ar    1  UNL1        0.1371
     18 C          -9.3063  -19.1844   20.5477 C.ar    1  UNL1        0.0367
     19 C         -10.2961  -18.9548   19.4442 C.ar    1  UNL1        0.0054
     20 C         -11.3635  -17.9124   19.5992 C.ar    1  UNL1        0.0295
     21 C         -11.4412  -17.0997   20.8576 C.ar    1  UNL1        0.1390
     22 F         -12.5086  -16.0573   21.0125 F       1  UNL1       -0.2044
     23 C         -10.4514  -17.3293   21.9610 C.ar    1  UNL1        0.0395
     24 C         -10.5290  -16.5166   23.2194 C.3     1  UNL1        0.0366
@<TRIPOS>BOND
     1    13    14    1
     2    14    12    1
     3    12     1    1
     4     1     2    1
     5     1     3    1
     6     3     4    1
     7     4     5   ar
     8     5     6   ar
     9     6     7   ar
    10     7     8   ar
    11     8     9   ar
    12     9    10    1
    13    10    16    1
    14    16    17    1
    15    17    18   ar
    16    18    19   ar
    17    19    20   ar
    18    20    21   ar
    19    21    22    1
    20    21    23   ar
    21    23    24    1
    22    10     1    1
    23    23    17   ar
    24     9     4   ar
    25    14    15    1
    26     2    11    1
@<TRIPOS>MOLECULE
*****
 24 26 0 0 0
SMALL
GASTEIGER

@<TRIPOS>ATOM
      1 C          -5.5447  -19.4437   21.1186 C.3     1  UNL1        0.1471
      2 O          -5.3490  -18.2664   22.0272 O.3     1  UNL1       -0.3812
      3 C          -5.4512  -20.6989   20.3027 C.3     1  UNL1        0.0584
      4 C          -6.7362  -20.8561   19.5450 C.ar    1  UNL1       -0.0202
      5 C          -7.2126  -21.9041   18.5835 C.ar    1  UNL1       -0.0044
      6 C          -8.5768  -21.7941   17.9696 C.ar    1  UNL1       -0.0003
      7 C          -9.4645  -20.6360   18.3172 C.ar    1  UNL1       -0.0002
      8 C          -8.9881  -19.5880   19.2788 C.ar    1  UNL1       -0.0011
      9 C          -7.6239  -19.6981   19.8927 C.ar    1  UNL1        0.0157
     10 C          -6.8875  -18.8252   20.8652 C.3     1  UNL1        0.2136
     11 H          -4.4710  -18.3164   22.4367 H       1  UNL1        0.2105
     12 C          -4.1610  -19.8162   21.5620 C.3     1  UNL1        0.1001
     13 C          -1.9291  -18.9177   20.5813 C.3     1  UNL1        0.0859
     14 N          -3.0517  -19.9122   20.5568 N.3     1  UNL1       -0.2942
     15 H          -2.6307  -20.8344   20.6701 H       1  UNL1        0.1234
     16 O          -7.4034  -17.5565   21.4769 O.3     1  UNL1       -0.4725
     17 C          -8.1743  -17.6032   22.7630 C.ar    1  UNL1        0.1371
     18 C          -9.0252  -18.7959   23.0844 C.ar    1  UNL1        0.0367
     19 C          -9.7960  -18.8427   24.3703 C.ar    1  UNL1        0.0054
     20 C          -9.7158  -17.6967   25.3349 C.ar    1  UNL1        0.0295
     21 C          -8.8649  -16.5040   25.0134 C.ar    1  UNL1        0.1390
     22 F          -8.7847  -15.3581   25.9780 F       1  UNL1       -0.2044
     23 C          -8.0941  -16.4572   23.7275 C.ar    1  UNL1        0.0395
     24 C          -7.2431  -15.2645   23.4061 C.3     1  UNL1        0.0366
@<TRIPOS>BOND
     1    13    14    1
     2    14    12    1
     3    12     1    1
     4     1     2    1
     5     1     3    1
     6     3     4    1
     7     4     5   ar
     8     5     6   ar
     9     6     7   ar
    10     7     8   ar
    11     8     9   ar
    12     9    10    1
    13    10    16    1
    14    16    17    1
    15    17    18   ar
    16    18    19   ar
    17    19    20   ar
    18    20    21   ar
    19    21    22    1
    20    21    23   ar
    21    23    24    1
    22    10     1    1
    23    23    17   ar
    24     9     4   ar
    25    14    15    1
    26     2    11    1
@<TRIPOS>MOLECULE
*****
 24 26 0 0 0
SMALL
GASTEIGER

@<TRIPOS>ATOM
      1 C          -6.4474  -15.9819   24.1168 C.3     1  UNL1        0.1471
      2 O          -7.7051  -15.3441   24.6282 O.3     1  UNL1       -0.3812
      3 C          -5.0481  -16.3847   23.7571 C.3     1  UNL1        0.0584
      4 C          -5.1242  -17.6242   22.9157 C.ar    1  UNL1       -0.0202
      5 C          -4.0633  -18.4690   22.2749 C.ar    1  UNL1       -0.0044
      6 C          -4.4489  -19.6771   21.4737 C.ar    1  UNL1       -0.0003
      7 C          -5.8954  -20.0403   21.3134 C.ar    1  UNL1       -0.0002
      8 C          -6.9563  -19.1955   21.9543 C.ar    1  UNL1       -0.0011
      9 C          -6.5707  -17.9875   22.7554 C.ar    1  UNL1        0.0157
     10 C          -7.3885  -16.9724   23.4977 C.3     1  UNL1        0.2136
     11 H          -7.4799  -14.5586   25.1508 H       1  UNL1        0.2105
     12 C          -5.7693  -14.8580   24.8427 C.3     1  UNL1        0.1001
     13 C          -6.3639  -15.7007   27.2274 C.3     1  UNL1        0.0859
     14 N          -6.1186  -14.5700   26.2728 N.3     1  UNL1       -0.2942
     15 H          -5.3508  -14.0203   26.6585 H       1  UNL1        0.1234
     16 O          -8.8847  -16.9517   23.6026 O.3     1  UNL1       -0.4725
     17 C          -9.7253  -17.2356   22.3930 C.ar    1  UNL1        0.1371
     18 C          -9.9950  -16.1487   21.3951 C.ar    1  UNL1        0.0367
     19 C         -10.8355  -16.4325   20.1857 C.ar    1  UNL1        0.0054
     20 C         -11.4064  -17.8034   19.9741 C.ar    1  UNL1        0.0295
     21 C         -11.1368  -18.8904   20.9720 C.ar    1  UNL1        0.1390
     22 F         -11.7077  -20.2613   20.7605 F       1  UNL1       -0.2044
     23 C         -10.2962  -18.6065   22.1815 C.ar    1  UNL1        0.0395
     24 C         -10.0265  -19.6934   23.1794 C.3     1  UNL1        0.0366
@<TRIPOS>BOND
     1    13    14    1
     2    14    12    1
     3    12     1    1
     4     1     2    1
     5     1     3    1
     6     3     4    1
     7     4     5   ar
     8     5     6   ar
     9     6     7   ar
    10     7     8   ar
    11     8     9   ar
    12     9    10    1
    13    10    16    1
    14    16    17    1
    15    17    18   ar
    16    18    19   ar
    17    19    20   ar
    18    20    21   ar
    19    21    22    1
    20    21    23   ar
    21    23    24    1
    22    10     1    1
    23    23    17   ar
    24     9     4   ar
    25    14    15    1
    26     2    11    1
