@<TRIPOS>MOLECULE
*****
 30 33 0 0 0
SMALL
GASTEIGER

@<TRIPOS>ATOM
      1 N           3.1559   -0.9225   22.6698 N.3     1  UNL1       -0.3195
      2 C           2.4093   -0.2663   21.5464 C.3     1  UNL1        0.0910
      3 C           1.3499    0.7861   21.6880 C.3     1  UNL1        0.1108
      4 N           0.8769    1.1555   20.3133 N.pl3   1  UNL1       -0.2749
      5 C           1.6439    0.3314   19.3221 C.3     1  UNL1        0.1148
      6 C           2.5910   -0.5474   20.0842 C.3     1  UNL1        0.1110
      7 H           2.8334   -0.5428   23.5599 H       1  UNL1        0.1189
      8 H           4.1545   -0.7425   22.5653 H       1  UNL1        0.1189
      9 N           3.5513   -1.5340   19.4887 N.am    1  UNL1       -0.2728
     10 C           3.1977   -2.9910   19.4432 C.3     1  UNL1        0.1600
     11 C           4.1579   -3.9775   18.8477 C.3     1  UNL1        0.2823
     12 F           4.7310   -5.2852   18.3877 F       1  UNL1       -0.2025
     13 F           3.0431   -4.9021   19.2380 F       1  UNL1       -0.2025
     14 C           5.4717   -3.5071   18.2977 C.3     1  UNL1        0.0779
     15 C           5.8253   -2.0500   18.3431 C.3     1  UNL1        0.0910
     16 C           4.8651   -1.0636   18.9386 C.2     1  UNL1        0.2260
     17 O           5.2187    0.3936   18.9841 O.2     1  UNL1       -0.2749
     18 C          -0.1780    2.1708   19.9870 C.ar    1  UNL1        0.2241
     19 N          -0.0571    3.0061   18.7470 N.ar    1  UNL1       -0.1912
     20 C          -1.1120    4.0214   18.4209 C.ar    1  UNL1        0.2037
     21 N          -2.2878    4.2013   19.3347 N.ar    1  UNL1       -0.1912
     22 C          -2.4087    3.3660   20.5747 C.ar    1  UNL1        0.2241
     23 N          -1.3539    2.3508   20.9008 N.ar    1  UNL1       -0.1807
     24 N          -3.5846    3.5460   21.4885 N.pl3   1  UNL1       -0.2726
     25 C          -3.5451    3.5387   22.9879 C.3     1  UNL1        0.0995
     26 C          -4.9425    3.7530   23.4895 C.3     1  UNL1        0.0898
     27 C          -5.8455    3.8928   22.2999 C.3     1  UNL1        0.2835
     28 F          -6.9205    4.0571   23.3330 F       1  UNL1       -0.2024
     29 F          -6.9733    4.0669   21.3264 F       1  UNL1       -0.2024
     30 C          -5.0063    3.7648   21.0633 C.3     1  UNL1        0.1602
@<TRIPOS>BOND
     1     2     1    1
     2     2     3    1
     3     3     4    1
     4     4    18    1
     5    18    19   ar
     6    19    20   ar
     7    20    21   ar
     8    21    22   ar
     9    22    24    1
    10    24    25    1
    11    25    26    1
    12    26    27    1
    13    27    28    1
    14    27    29    1
    15    27    30    1
    16    22    23   ar
    17     4     5    1
    18     5     6    1
    19     6     9    1
    20     9    10    1
    21    10    11    1
    22    11    12    1
    23    11    13    1
    24    11    14    1
    25    14    15    1
    26    15    16    1
    27    16    17    2
    28     6     2    1
    29    16     9   am
    30    23    18   ar
    31    30    24    1
    32     1     7    1
    33     1     8    1
@<TRIPOS>MOLECULE
*****
 30 33 0 0 0
SMALL
GASTEIGER

@<TRIPOS>ATOM
      1 N         -11.4421  -18.9035   18.8627 N.3     1  UNL1       -0.3195
      2 C         -10.1930  -19.0494   19.6803 C.3     1  UNL1        0.0910
      3 C          -8.8666  -19.5430   19.1833 C.3     1  UNL1        0.1108
      4 N          -7.9047  -19.5260   20.3342 N.pl3   1  UNL1       -0.2749
      5 C          -8.6367  -19.0218   21.5425 C.3     1  UNL1        0.1148
      6 C         -10.0508  -18.7272   21.1384 C.3     1  UNL1        0.1110
      7 H         -11.2560  -19.1937   17.9028 H       1  UNL1        0.1189
      8 H         -11.7420  -17.9286   18.8712 H       1  UNL1        0.1189
      9 N         -11.1330  -18.2026   22.0350 N.am    1  UNL1       -0.2728
     10 C         -11.4756  -18.9296   23.3015 C.3     1  UNL1        0.1600
     11 C         -12.5577  -18.4049   24.1981 C.3     1  UNL1        0.2823
     12 F         -13.4963  -18.3026   25.3637 F       1  UNL1       -0.2025
     13 F         -12.1442  -19.6210   24.9729 F       1  UNL1       -0.2025
     14 C         -13.2971  -17.1534   23.8281 C.3     1  UNL1        0.0779
     15 C         -12.9544  -16.4265   22.5615 C.3     1  UNL1        0.0910
     16 C         -11.8724  -16.9511   21.6650 C.2     1  UNL1        0.2260
     17 O         -11.5297  -16.2241   20.3984 O.2     1  UNL1       -0.2749
     18 C          -6.4639  -19.9404   20.2853 C.ar    1  UNL1        0.2241
     19 N          -6.1048  -21.3828   20.0842 N.ar    1  UNL1       -0.1912
     20 C          -4.6640  -21.7972   20.0353 C.ar    1  UNL1        0.2037
     21 N          -3.5824  -20.7691   20.1875 N.ar    1  UNL1       -0.1912
     22 C          -3.9415  -19.3267   20.3886 C.ar    1  UNL1        0.2241
     23 N          -5.3823  -18.9124   20.4375 N.ar    1  UNL1       -0.1807
     24 N          -2.8598  -18.2987   20.5409 N.pl3   1  UNL1       -0.2726
     25 C          -2.8451  -17.1748   21.5342 C.3     1  UNL1        0.0995
     26 C          -1.5792  -16.3955   21.3337 C.3     1  UNL1        0.0898
     27 C          -0.8115  -17.0378   20.2166 C.3     1  UNL1        0.2835
     28 F           0.1839  -15.9483   20.4848 F       1  UNL1       -0.2024
     29 F           0.1643  -17.4524   19.1555 F       1  UNL1       -0.2024
     30 C          -1.6030  -18.2140   19.7266 C.3     1  UNL1        0.1602
@<TRIPOS>BOND
     1     2     1    1
     2     2     3    1
     3     3     4    1
     4     4    18    1
     5    18    19   ar
     6    19    20   ar
     7    20    21   ar
     8    21    22   ar
     9    22    24    1
    10    24    25    1
    11    25    26    1
    12    26    27    1
    13    27    28    1
    14    27    29    1
    15    27    30    1
    16    22    23   ar
    17     4     5    1
    18     5     6    1
    19     6     9    1
    20     9    10    1
    21    10    11    1
    22    11    12    1
    23    11    13    1
    24    11    14    1
    25    14    15    1
    26    15    16    1
    27    16    17    2
    28     6     2    1
    29    16     9   am
    30    23    18   ar
    31    30    24    1
    32     1     7    1
    33     1     8    1
@<TRIPOS>MOLECULE
*****
 30 33 0 0 0
SMALL
GASTEIGER

@<TRIPOS>ATOM
      1 N           4.9986    1.8936   18.2778 N.3     1  UNL1       -0.3195
      2 C           3.5358    1.6966   18.5451 C.3     1  UNL1        0.0910
      3 C           2.4732    2.7515   18.4551 C.3     1  UNL1        0.1108
      4 N           1.1595    2.1171   18.8039 N.pl3   1  UNL1       -0.2749
      5 C           1.4101    0.6701   19.1094 C.3     1  UNL1        0.1148
      6 C           2.8788    0.4102   18.9495 C.3     1  UNL1        0.1110
      7 H           5.1695    2.8659   18.0213 H       1  UNL1        0.1189
      8 H           5.2896    1.2841   17.5134 H       1  UNL1        0.1189
      9 N           3.5692   -0.9051   19.1574 N.am    1  UNL1       -0.2728
     10 C           3.5532   -1.5551   20.5092 C.3     1  UNL1        0.1600
     11 C           4.2436   -2.8705   20.7171 C.3     1  UNL1        0.2823
     12 F           4.7497   -4.1035   21.4053 F       1  UNL1       -0.2025
     13 F           3.7129   -2.6333   22.1000 F       1  UNL1       -0.2025
     14 C           4.9499   -3.5358   19.5733 C.3     1  UNL1        0.0779
     15 C           4.9659   -2.8858   18.2215 C.3     1  UNL1        0.0910
     16 C           4.2756   -1.5705   18.0137 C.2     1  UNL1        0.2260
     17 O           4.2915   -0.9204   16.6618 O.2     1  UNL1       -0.2749
     18 C          -0.1713    2.8084   18.8406 C.ar    1  UNL1        0.2241
     19 N          -0.6597    3.5595   17.6376 N.ar    1  UNL1       -0.1912
     20 C          -1.9904    4.2507   17.6744 C.ar    1  UNL1        0.2037
     21 N          -2.8327    4.1908   18.9141 N.ar    1  UNL1       -0.1912
     22 C          -2.3443    3.4396   20.1171 C.ar    1  UNL1        0.2241
     23 N          -1.0136    2.7484   20.0803 N.ar    1  UNL1       -0.1807
     24 N          -3.1866    3.3797   21.3568 N.pl3   1  UNL1       -0.2726
     25 C          -4.6664    3.1400   21.4066 C.3     1  UNL1        0.0995
     26 C          -5.0914    3.1611   22.8450 C.3     1  UNL1        0.0898
     27 C          -3.8741    3.4139   23.6843 C.3     1  UNL1        0.2835
     28 F          -4.8390    3.3278   24.8294 F       1  UNL1       -0.2024
     29 F          -2.8585    3.6486   24.7629 F       1  UNL1       -0.2024
     30 C          -2.6969    3.5489   22.7645 C.3     1  UNL1        0.1602
@<TRIPOS>BOND
     1     2     1    1
     2     2     3    1
     3     3     4    1
     4     4    18    1
     5    18    19   ar
     6    19    20   ar
     7    20    21   ar
     8    21    22   ar
     9    22    24    1
    10    24    25    1
    11    25    26    1
    12    26    27    1
    13    27    28    1
    14    27    29    1
    15    27    30    1
    16    22    23   ar
    17     4     5    1
    18     5     6    1
    19     6     9    1
    20     9    10    1
    21    10    11    1
    22    11    12    1
    23    11    13    1
    24    11    14    1
    25    14    15    1
    26    15    16    1
    27    16    17    2
    28     6     2    1
    29    16     9   am
    30    23    18   ar
    31    30    24    1
    32     1     7    1
    33     1     8    1
@<TRIPOS>MOLECULE
*****
 30 33 0 0 0
SMALL
GASTEIGER

@<TRIPOS>ATOM
      1 N           6.8080   -6.0164   32.1233 N.3     1  UNL1       -0.3195
      2 C           6.8849   -5.2296   30.8485 C.3     1  UNL1        0.0910
      3 C           7.0656   -5.7969   29.4718 C.3     1  UNL1        0.1108
      4 N           7.0870   -4.6552   28.4991 N.pl3   1  UNL1       -0.2749
      5 C           6.9195   -3.3822   29.2747 C.3     1  UNL1        0.1148
      6 C           6.7946   -3.7372   30.7267 C.3     1  UNL1        0.1110
      7 H           6.8980   -7.0108   31.9149 H       1  UNL1        0.1189
      8 H           5.9104   -5.8437   32.5758 H       1  UNL1        0.1189
      9 N           6.6115   -2.7697   31.8583 N.am    1  UNL1       -0.2728
     10 C           5.3099   -2.7234   32.6024 C.3     1  UNL1        0.1600
     11 C           5.1268   -1.7559   33.7339 C.3     1  UNL1        0.2823
     12 F           4.4770   -1.0195   34.8677 F       1  UNL1       -0.2025
     13 F           3.7826   -2.4214   33.7401 F       1  UNL1       -0.2025
     14 C           6.2454   -0.8348   34.1214 C.3     1  UNL1        0.0779
     15 C           7.5471   -0.8810   33.3774 C.3     1  UNL1        0.0910
     16 C           7.7301   -1.8485   32.2459 C.2     1  UNL1        0.2260
     17 O           9.0318   -1.8948   31.5017 O.2     1  UNL1       -0.2749
     18 C           7.2477   -4.7668   27.0119 C.ar    1  UNL1        0.2241
     19 N           8.3449   -5.6130   26.4375 N.ar    1  UNL1       -0.1912
     20 C           8.5056   -5.7247   24.9503 C.ar    1  UNL1        0.2037
     21 N           7.5690   -4.9901   24.0375 N.ar    1  UNL1       -0.1912
     22 C           6.4717   -4.1439   24.6119 C.ar    1  UNL1        0.2241
     23 N           6.3111   -4.0323   26.0991 N.ar    1  UNL1       -0.1807
     24 N           5.5351   -3.4093   23.6991 N.pl3   1  UNL1       -0.2726
     25 C           4.7540   -2.1761   24.0441 C.3     1  UNL1        0.0995
     26 C           3.9513   -1.7836   22.8393 C.3     1  UNL1        0.0898
     27 C           4.2363   -2.7742   21.7496 C.3     1  UNL1        0.2835
     28 F           3.2751   -1.9402   20.9558 F       1  UNL1       -0.2024
     29 F           4.3204   -3.5906   20.4941 F       1  UNL1       -0.2024
     30 C           5.2151   -3.7790   22.2811 C.3     1  UNL1        0.1602
@<TRIPOS>BOND
     1     2     1    1
     2     2     3    1
     3     3     4    1
     4     4    18    1
     5    18    19   ar
     6    19    20   ar
     7    20    21   ar
     8    21    22   ar
     9    22    24    1
    10    24    25    1
    11    25    26    1
    12    26    27    1
    13    27    28    1
    14    27    29    1
    15    27    30    1
    16    22    23   ar
    17     4     5    1
    18     5     6    1
    19     6     9    1
    20     9    10    1
    21    10    11    1
    22    11    12    1
    23    11    13    1
    24    11    14    1
    25    14    15    1
    26    15    16    1
    27    16    17    2
    28     6     2    1
    29    16     9   am
    30    23    18   ar
    31    30    24    1
    32     1     7    1
    33     1     8    1
@<TRIPOS>MOLECULE
*****
 30 33 0 0 0
SMALL
GASTEIGER

@<TRIPOS>ATOM
      1 N         -10.5050  -20.1128   20.5558 N.3     1  UNL1       -0.3195
      2 C          -9.7375  -19.1868   21.4521 C.3     1  UNL1        0.0910
      3 C          -8.2579  -18.9436   21.4094 C.3     1  UNL1        0.1108
      4 N          -7.9208  -17.9479   22.4794 N.pl3   1  UNL1       -0.2749
      5 C          -9.1919  -17.5756   23.1834 C.3     1  UNL1        0.1148
      6 C         -10.3147  -18.3413   22.5485 C.3     1  UNL1        0.1110
      7 H          -9.8640  -20.5613   19.9013 H       1  UNL1        0.1189
      8 H         -11.2042  -19.5816   20.0368 H       1  UNL1        0.1189
      9 N         -11.7609  -18.2734   22.9410 N.am    1  UNL1       -0.2728
     10 C         -12.1718  -18.5914   24.3481 C.3     1  UNL1        0.1600
     11 C         -13.6180  -18.5235   24.7406 C.3     1  UNL1        0.2823
     12 F         -14.8536  -18.5987   25.5876 F       1  UNL1       -0.2025
     13 F         -13.0118  -18.9356   26.0494 F       1  UNL1       -0.2025
     14 C         -14.6531  -18.1376   23.7261 C.3     1  UNL1        0.0779
     15 C         -14.2421  -17.8195   22.3189 C.3     1  UNL1        0.0910
     16 C         -12.7961  -17.8874   21.9264 C.2     1  UNL1        0.2260
     17 O         -12.3851  -17.5693   20.5192 O.2     1  UNL1       -0.2749
     18 C          -6.5526  -17.4175   22.7908 C.ar    1  UNL1        0.2241
     19 N          -6.3742  -16.3884   23.8673 N.ar    1  UNL1       -0.1912
     20 C          -5.0061  -15.8581   24.1786 C.ar    1  UNL1        0.2037
     21 N          -3.8163  -16.3569   23.4133 N.ar    1  UNL1       -0.1912
     22 C          -3.9947  -17.3860   22.3368 C.ar    1  UNL1        0.2241
     23 N          -5.3628  -17.9163   22.0255 N.ar    1  UNL1       -0.1807
     24 N          -2.8049  -17.8848   21.5715 N.pl3   1  UNL1       -0.2726
     25 C          -2.5126  -19.3160   21.2307 C.3     1  UNL1        0.0995
     26 C          -1.2256  -19.3558   20.4612 C.3     1  UNL1        0.0898
     27 C          -0.7225  -17.9491   20.3264 C.3     1  UNL1        0.2835
     28 F           0.4081  -18.5922   19.5794 F       1  UNL1       -0.2024
     29 F           0.0168  -16.6768   20.0355 F       1  UNL1       -0.2024
     30 C          -1.6986  -17.0400   21.0126 C.3     1  UNL1        0.1602
@<TRIPOS>BOND
     1     2     1    1
     2     2     3    1
     3     3     4    1
     4     4    18    1
     5    18    19   ar
     6    19    20   ar
     7    20    21   ar
     8    21    22   ar
     9    22    24    1
    10    24    25    1
    11    25    26    1
    12    26    27    1
    13    27    28    1
    14    27    29    1
    15    27    30    1
    16    22    23   ar
    17     4     5    1
    18     5     6    1
    19     6     9    1
    20     9    10    1
    21    10    11    1
    22    11    12    1
    23    11    13    1
    24    11    14    1
    25    14    15    1
    26    15    16    1
    27    16    17    2
    28     6     2    1
    29    16     9   am
    30    23    18   ar
    31    30    24    1
    32     1     7    1
    33     1     8    1
@<TRIPOS>MOLECULE
*****
 30 33 0 0 0
SMALL
GASTEIGER

@<TRIPOS>ATOM
      1 N           8.3495   -0.6039   19.8653 N.3     1  UNL1       -0.3195
      2 C           7.7618   -1.8011   20.5517 C.3     1  UNL1        0.0910
      3 C           8.4740   -2.7023   21.5164 C.3     1  UNL1        0.1108
      4 N           7.5111   -3.7656   21.9548 N.pl3   1  UNL1       -0.2749
      5 C           6.2038   -3.5216   21.2610 C.3     1  UNL1        0.1148
      6 C           6.3587   -2.3076   20.3938 C.3     1  UNL1        0.1110
      7 H           9.3209   -0.4889   20.1546 H       1  UNL1        0.1189
      8 H           7.8182    0.2288   20.1198 H       1  UNL1        0.1189
      9 N           5.2970   -1.7056   19.5219 N.am    1  UNL1       -0.2728
     10 C           3.9992   -1.2542   20.1236 C.3     1  UNL1        0.1600
     11 C           2.9374   -0.6522   19.2516 C.3     1  UNL1        0.2823
     12 F           1.6369   -0.0271   18.8420 F       1  UNL1       -0.2025
     13 F           2.2497   -0.5858   20.5830 F       1  UNL1       -0.2025
     14 C           3.1735   -0.5016   17.7780 C.3     1  UNL1        0.0779
     15 C           4.4713   -0.9529   17.1763 C.3     1  UNL1        0.0910
     16 C           5.5330   -1.5549   18.0483 C.2     1  UNL1        0.2260
     17 O           6.8309   -2.0063   17.4466 O.2     1  UNL1       -0.2749
     18 C           7.8041   -4.8777   22.9179 C.ar    1  UNL1        0.2241
     19 N           8.3946   -6.1639   22.4212 N.ar    1  UNL1       -0.1912
     20 C           8.6876   -7.2759   23.3843 C.ar    1  UNL1        0.2037
     21 N           8.3901   -7.1016   24.8442 N.ar    1  UNL1       -0.1912
     22 C           7.7996   -5.8153   25.3409 C.ar    1  UNL1        0.2241
     23 N           7.5066   -4.7034   24.3778 N.ar    1  UNL1       -0.1807
     24 N           7.5021   -5.6410   26.8007 N.pl3   1  UNL1       -0.2726
     25 C           7.8607   -6.6027   27.8946 C.3     1  UNL1        0.0995
     26 C           7.3740   -6.0305   29.1929 C.3     1  UNL1        0.0898
     27 C           6.7145   -4.7151   28.9015 C.3     1  UNL1        0.2835
     28 F           6.4876   -4.6793   30.3837 F       1  UNL1       -0.2024
     29 F           6.0076   -3.3923   28.9199 F       1  UNL1       -0.2024
     30 C           6.7937   -4.4745   27.4230 C.3     1  UNL1        0.1602
@<TRIPOS>BOND
     1     2     1    1
     2     2     3    1
     3     3     4    1
     4     4    18    1
     5    18    19   ar
     6    19    20   ar
     7    20    21   ar
     8    21    22   ar
     9    22    24    1
    10    24    25    1
    11    25    26    1
    12    26    27    1
    13    27    28    1
    14    27    29    1
    15    27    30    1
    16    22    23   ar
    17     4     5    1
    18     5     6    1
    19     6     9    1
    20     9    10    1
    21    10    11    1
    22    11    12    1
    23    11    13    1
    24    11    14    1
    25    14    15    1
    26    15    16    1
    27    16    17    2
    28     6     2    1
    29    16     9   am
    30    23    18   ar
    31    30    24    1
    32     1     7    1
    33     1     8    1
@<TRIPOS>MOLECULE
*****
 30 33 0 0 0
SMALL
GASTEIGER

@<TRIPOS>ATOM
      1 N           1.1006    0.4390   18.1837 N.3     1  UNL1       -0.3195
      2 C           1.4005    0.4027   19.6529 C.3     1  UNL1        0.0910
      3 C           0.6771    1.1699   20.7197 C.3     1  UNL1        0.1108
      4 N           1.3060    0.8341   22.0395 N.pl3   1  UNL1       -0.2749
      5 C           2.4182   -0.1405   21.7884 C.3     1  UNL1        0.1148
      6 C           2.4766   -0.4072   20.3134 C.3     1  UNL1        0.1110
      7 H           0.3196    1.0722   18.0117 H       1  UNL1        0.1189
      8 H           0.8557   -0.4979   17.8634 H       1  UNL1        0.1189
      9 N           3.4417   -1.3230   19.6206 N.am    1  UNL1       -0.2728
     10 C           3.1605   -2.7947   19.5503 C.3     1  UNL1        0.1600
     11 C           4.1255   -3.7104   18.8575 C.3     1  UNL1        0.2823
     12 F           4.7308   -4.9713   18.3155 F       1  UNL1       -0.2025
     13 F           3.0894   -4.7043   19.2919 F       1  UNL1       -0.2025
     14 C           5.3717   -3.1545   18.2349 C.3     1  UNL1        0.0779
     15 C           5.6530   -1.6827   18.3051 C.3     1  UNL1        0.0910
     16 C           4.6880   -0.7670   18.9979 C.2     1  UNL1        0.2260
     17 O           4.9692    0.7048   19.0682 O.2     1  UNL1       -0.2749
     18 C           0.8949    1.3777   23.3758 C.ar    1  UNL1        0.2241
     19 N          -0.0900    2.5062   23.4557 N.ar    1  UNL1       -0.1912
     20 C          -0.5011    3.0497   24.7919 C.ar    1  UNL1        0.2037
     21 N           0.0728    2.4647   26.0483 N.ar    1  UNL1       -0.1912
     22 C           1.0577    1.3362   25.9684 C.ar    1  UNL1        0.2241
     23 N           1.4688    0.7927   24.6322 N.ar    1  UNL1       -0.1807
     24 N           1.6316    0.7512   27.2248 N.pl3   1  UNL1       -0.2726
     25 C           2.7858   -0.2033   27.3058 C.3     1  UNL1        0.0995
     26 C           3.0195   -0.5264   28.7518 C.3     1  UNL1        0.0898
     27 C           2.0097    0.2284   29.5645 C.3     1  UNL1        0.2835
     28 F           2.6860   -0.4322   30.7290 F       1  UNL1       -0.2024
     29 F           1.1413    0.8452   30.6206 F       1  UNL1       -0.2024
     30 C           1.1519    1.0180   28.6208 C.3     1  UNL1        0.1602
@<TRIPOS>BOND
     1     2     1    1
     2     2     3    1
     3     3     4    1
     4     4    18    1
     5    18    19   ar
     6    19    20   ar
     7    20    21   ar
     8    21    22   ar
     9    22    24    1
    10    24    25    1
    11    25    26    1
    12    26    27    1
    13    27    28    1
    14    27    29    1
    15    27    30    1
    16    22    23   ar
    17     4     5    1
    18     5     6    1
    19     6     9    1
    20     9    10    1
    21    10    11    1
    22    11    12    1
    23    11    13    1
    24    11    14    1
    25    14    15    1
    26    15    16    1
    27    16    17    2
    28     6     2    1
    29    16     9   am
    30    23    18   ar
    31    30    24    1
    32     1     7    1
    33     1     8    1
@<TRIPOS>MOLECULE
*****
 30 33 0 0 0
SMALL
GASTEIGER

@<TRIPOS>ATOM
      1 N           8.6963   -3.4147   20.1715 N.3     1  UNL1       -0.3195
      2 C           7.9578   -3.8543   21.4008 C.3     1  UNL1        0.0910
      3 C           8.5167   -4.6916   22.5129 C.3     1  UNL1        0.1108
      4 N           7.4351   -4.8886   23.5334 N.pl3   1  UNL1       -0.2749
      5 C           6.2078   -4.1731   23.0521 C.3     1  UNL1        0.1148
      6 C           6.5308   -3.5338   21.7341 C.3     1  UNL1        0.1110
      7 H           9.6505   -3.7737   20.2014 H       1  UNL1        0.1189
      8 H           8.7175   -2.3956   20.1338 H       1  UNL1        0.1189
      9 N           5.5917   -2.7175   20.8964 N.am    1  UNL1       -0.2728
     10 C           5.8133   -1.2419   20.7430 C.3     1  UNL1        0.1600
     11 C           4.8743   -0.4255   19.9053 C.3     1  UNL1        0.2823
     12 F           4.2648    0.7631   19.2229 F       1  UNL1       -0.2025
     13 F           5.8233    0.6465   20.3525 F       1  UNL1       -0.2025
     14 C           3.7136   -1.0848   19.2211 C.3     1  UNL1        0.0779
     15 C           3.4919   -2.5604   19.3745 C.3     1  UNL1        0.0910
     16 C           4.4310   -3.3767   20.2122 C.2     1  UNL1        0.2260
     17 O           4.2094   -4.8523   20.3657 O.2     1  UNL1       -0.2749
     18 C           7.5591   -5.6649   24.8109 C.ar    1  UNL1        0.2241
     19 N           7.9251   -7.1190   24.7725 N.ar    1  UNL1       -0.1912
     20 C           8.0491   -7.8952   26.0500 C.ar    1  UNL1        0.2037
     21 N           7.8071   -7.2173   27.3660 N.ar    1  UNL1       -0.1912
     22 C           7.4411   -5.7632   27.4045 C.ar    1  UNL1        0.2241
     23 N           7.3171   -4.9870   26.1269 N.ar    1  UNL1       -0.1807
     24 N           7.1990   -5.0853   28.7205 N.pl3   1  UNL1       -0.2726
     25 C           7.0493   -3.6086   28.9372 C.3     1  UNL1        0.0995
     26 C           6.8220   -3.3757   30.4015 C.3     1  UNL1        0.0898
     27 C           6.8311   -4.7084   31.0897 C.3     1  UNL1        0.2835
     28 F           6.5895   -3.8949   32.3265 F       1  UNL1       -0.2024
     29 F           6.7898   -5.8711   32.0365 F       1  UNL1       -0.2024
     30 C           7.0642   -5.7650   30.0508 C.3     1  UNL1        0.1602
@<TRIPOS>BOND
     1     2     1    1
     2     2     3    1
     3     3     4    1
     4     4    18    1
     5    18    19   ar
     6    19    20   ar
     7    20    21   ar
     8    21    22   ar
     9    22    24    1
    10    24    25    1
    11    25    26    1
    12    26    27    1
    13    27    28    1
    14    27    29    1
    15    27    30    1
    16    22    23   ar
    17     4     5    1
    18     5     6    1
    19     6     9    1
    20     9    10    1
    21    10    11    1
    22    11    12    1
    23    11    13    1
    24    11    14    1
    25    14    15    1
    26    15    16    1
    27    16    17    2
    28     6     2    1
    29    16     9   am
    30    23    18   ar
    31    30    24    1
    32     1     7    1
    33     1     8    1
@<TRIPOS>MOLECULE
*****
 30 33 0 0 0
SMALL
GASTEIGER

@<TRIPOS>ATOM
      1 N           2.1825    4.2874   25.6048 N.3     1  UNL1       -0.3195
      2 C           2.1033    3.1576   24.6213 C.3     1  UNL1        0.0910
      3 C           2.5074    3.2153   23.1779 C.3     1  UNL1        0.1108
      4 N           2.2600    1.8652   22.5729 N.pl3   1  UNL1       -0.2749
      5 C           1.7029    0.9731   23.6424 C.3     1  UNL1        0.1148
      6 C           1.6061    1.7718   24.9084 C.3     1  UNL1        0.1110
      7 H           2.5576    5.1154   25.1421 H       1  UNL1        0.1189
      8 H           2.7938    4.0233   26.3774 H       1  UNL1        0.1189
      9 N           1.1007    1.2725   26.2295 N.am    1  UNL1       -0.2728
     10 C           2.0304    0.5624   27.1683 C.3     1  UNL1        0.1600
     11 C           1.5251    0.0631   28.4894 C.3     1  UNL1        0.2823
     12 F           1.5171   -0.5880   29.8407 F       1  UNL1       -0.2025
     13 F           2.9574   -0.3738   28.5764 F       1  UNL1       -0.2025
     14 C           0.0901    0.2738   28.8716 C.3     1  UNL1        0.0779
     15 C          -0.8397    0.9840   27.9328 C.3     1  UNL1        0.0910
     16 C          -0.3343    1.4832   26.6118 C.2     1  UNL1        0.2260
     17 O          -1.2641    2.1934   25.6728 O.2     1  UNL1       -0.2749
     18 C           2.5234    1.4756   21.1485 C.ar    1  UNL1        0.2241
     19 N           2.2395    2.4462   20.0407 N.ar    1  UNL1       -0.1912
     20 C           2.5029    2.0565   18.6164 C.ar    1  UNL1        0.2037
     21 N           3.0502    0.6963   18.2999 N.ar    1  UNL1       -0.1912
     22 C           3.3342   -0.2743   19.4077 C.ar    1  UNL1        0.2241
     23 N           3.0707    0.1153   20.8320 N.ar    1  UNL1       -0.1807
     24 N           3.8815   -1.6345   19.0911 N.pl3   1  UNL1       -0.2726
     25 C           5.2222   -1.9263   18.4850 C.3     1  UNL1        0.0995
     26 C           5.3535   -3.4139   18.3444 C.3     1  UNL1        0.0898
     27 C           4.0940   -4.0416   18.8637 C.3     1  UNL1        0.2835
     28 F           4.7700   -5.3287   18.4946 F       1  UNL1       -0.2024
     29 F           2.9758   -4.9382   19.3058 F       1  UNL1       -0.2024
     30 C           3.1843   -2.9418   19.3252 C.3     1  UNL1        0.1602
@<TRIPOS>BOND
     1     2     1    1
     2     2     3    1
     3     3     4    1
     4     4    18    1
     5    18    19   ar
     6    19    20   ar
     7    20    21   ar
     8    21    22   ar
     9    22    24    1
    10    24    25    1
    11    25    26    1
    12    26    27    1
    13    27    28    1
    14    27    29    1
    15    27    30    1
    16    22    23   ar
    17     4     5    1
    18     5     6    1
    19     6     9    1
    20     9    10    1
    21    10    11    1
    22    11    12    1
    23    11    13    1
    24    11    14    1
    25    14    15    1
    26    15    16    1
    27    16    17    2
    28     6     2    1
    29    16     9   am
    30    23    18   ar
    31    30    24    1
    32     1     7    1
    33     1     8    1
