@<TRIPOS>MOLECULE
*****
 22 24 0 0 0
SMALL
GASTEIGER

@<TRIPOS>ATOM
      1 C          -9.2841  -18.8345   21.1678 C.ar    1  UNL1        0.0296
      2 C          -9.0929  -19.5489   19.8628 C.ar    1  UNL1        0.0070
      3 C          -7.6189  -19.6860   19.6209 C.ar    1  UNL1        0.0070
      4 C          -6.8991  -19.0562   20.7765 C.ar    1  UNL1        0.0295
      5 S          -7.9283  -18.5300   21.7325 S.2     1  UNL1       -0.0869
      6 C          -5.4113  -18.9682   20.9463 C.ar    1  UNL1        0.0084
      7 C          -4.8160  -18.9009   22.3215 C.ar    1  UNL1        0.0037
      8 C          -3.3283  -18.8129   22.4912 C.ar    1  UNL1        0.0390
      9 C          -2.4359  -18.7921   21.2858 C.ar    1  UNL1        0.1610
     10 O          -0.9481  -18.7041   21.4556 O.3     1  UNL1       -0.5034
     11 C          -3.0311  -18.8594   19.9106 C.ar    1  UNL1        0.1736
     12 F          -2.1386  -18.8386   18.7052 F       1  UNL1       -0.2010
     13 C          -4.5188  -18.9474   19.7409 C.ar    1  UNL1        0.0333
     14 H          -0.5762  -18.6621   22.3146 H       1  UNL1        0.2923
     15 O         -12.4342  -18.8281   25.3002 O.3     1  UNL1       -0.5055
     16 C         -12.1752  -18.4826   23.8637 C.ar    1  UNL1        0.1337
     17 C         -13.2321  -17.7884   23.0569 C.ar    1  UNL1        0.0366
     18 C         -12.9730  -17.4428   21.6205 C.ar    1  UNL1        0.0031
     19 C         -11.6571  -17.7915   20.9907 C.ar    1  UNL1        0.0007
     20 C         -10.6002  -18.4857   21.7975 C.ar    1  UNL1        0.0090
     21 C         -10.8592  -18.8313   23.2340 C.ar    1  UNL1        0.0371
     22 H         -13.2563  -18.6103   25.6936 H       1  UNL1        0.2922
@<TRIPOS>BOND
     1    15    16    1
     2    16    17   ar
     3    17    18   ar
     4    18    19   ar
     5    19    20   ar
     6    20     1    1
     7     1     2   ar
     8     2     3   ar
     9     3     4   ar
    10     4     6    1
    11     6     7   ar
    12     7     8   ar
    13     8     9   ar
    14     9    10    1
    15     9    11   ar
    16    11    12    1
    17    11    13   ar
    18     4     5   ar
    19    20    21   ar
    20    21    16   ar
    21     5     1   ar
    22    13     6   ar
    23    15    22    1
    24    10    14    1
@<TRIPOS>MOLECULE
*****
 22 24 0 0 0
SMALL
GASTEIGER

@<TRIPOS>ATOM
      1 C          -9.0892  -18.8611   21.1455 C.ar    1  UNL1        0.0296
      2 C          -8.8816  -19.5977   19.8554 C.ar    1  UNL1        0.0070
      3 C          -7.4049  -19.7056   19.6157 C.ar    1  UNL1        0.0070
      4 C          -6.6998  -19.0356   20.7577 C.ar    1  UNL1        0.0295
      5 S          -7.7408  -18.5137   21.7031 S.2     1  UNL1       -0.0869
      6 C          -5.2144  -18.9097   20.9248 C.ar    1  UNL1        0.0084
      7 C          -4.3056  -19.1416   19.7543 C.ar    1  UNL1        0.0037
      8 C          -2.8203  -19.0157   19.9214 C.ar    1  UNL1        0.0390
      9 C          -2.2438  -18.6579   21.2591 C.ar    1  UNL1        0.1610
     10 O          -0.7585  -18.5320   21.4263 O.3     1  UNL1       -0.5034
     11 C          -3.1526  -18.4260   22.4298 C.ar    1  UNL1        0.1736
     12 F          -2.5761  -18.0682   23.7676 F       1  UNL1       -0.2010
     13 C          -4.6379  -18.5519   22.2626 C.ar    1  UNL1        0.0333
     14 H          -0.1908  -18.6768   20.6950 H       1  UNL1        0.2923
     15 O         -12.2403  -18.8472   25.2772 O.3     1  UNL1       -0.5055
     16 C         -11.9885  -18.5231   23.8344 C.ar    1  UNL1        0.1337
     17 C         -13.0603  -17.8680   23.0148 C.ar    1  UNL1        0.0366
     18 C         -12.8085  -17.5438   21.5720 C.ar    1  UNL1        0.0031
     19 C         -11.4848  -17.8749   20.9489 C.ar    1  UNL1        0.0007
     20 C         -10.4130  -18.5300   21.7686 C.ar    1  UNL1        0.0090
     21 C         -10.6648  -18.8541   23.2114 C.ar    1  UNL1        0.0371
     22 H         -13.0672  -18.6404   25.6664 H       1  UNL1        0.2922
@<TRIPOS>BOND
     1    15    16    1
     2    16    17   ar
     3    17    18   ar
     4    18    19   ar
     5    19    20   ar
     6    20     1    1
     7     1     2   ar
     8     2     3   ar
     9     3     4   ar
    10     4     6    1
    11     6     7   ar
    12     7     8   ar
    13     8     9   ar
    14     9    10    1
    15     9    11   ar
    16    11    12    1
    17    11    13   ar
    18     4     5   ar
    19    20    21   ar
    20    21    16   ar
    21     5     1   ar
    22    13     6   ar
    23    15    22    1
    24    10    14    1
@<TRIPOS>MOLECULE
*****
 22 24 0 0 0
SMALL
GASTEIGER

@<TRIPOS>ATOM
      1 C          -5.6639  -19.0806   20.7474 C.ar    1  UNL1        0.0296
      2 C          -6.5731  -19.4786   19.6227 C.ar    1  UNL1        0.0070
      3 C          -7.9749  -19.5251   20.1542 C.ar    1  UNL1        0.0070
      4 C          -7.9322  -19.1559   21.6074 C.ar    1  UNL1        0.0295
      5 S          -6.5038  -18.8812   21.9741 S.2     1  UNL1       -0.0869
      6 C          -9.1108  -19.0756   22.5318 C.ar    1  UNL1        0.0084
      7 C          -9.2530  -20.0614   23.6533 C.ar    1  UNL1        0.0037
      8 C         -10.4316  -19.9811   24.5776 C.ar    1  UNL1        0.0390
      9 C         -11.4680  -18.9149   24.3804 C.ar    1  UNL1        0.1610
     10 O         -12.6467  -18.8345   25.3047 O.3     1  UNL1       -0.5034
     11 C         -11.3258  -17.9289   23.2588 C.ar    1  UNL1        0.1736
     12 F         -12.3623  -16.8627   23.0617 F       1  UNL1       -0.2010
     13 C         -10.1473  -18.0093   22.3346 C.ar    1  UNL1        0.0333
     14 H         -12.7355  -19.4504   26.0053 H       1  UNL1        0.2923
     15 O          -1.4220  -17.9027   17.9871 O.3     1  UNL1       -0.5055
     16 C          -2.0550  -18.3228   19.2805 C.ar    1  UNL1        0.1337
     17 C          -1.2001  -18.5739   20.4872 C.ar    1  UNL1        0.0366
     18 C          -1.8331  -18.9939   21.7806 C.ar    1  UNL1        0.0031
     19 C          -3.3210  -19.1628   21.8673 C.ar    1  UNL1        0.0007
     20 C          -4.1759  -18.9117   20.6607 C.ar    1  UNL1        0.0090
     21 C          -3.5429  -18.4917   19.3673 C.ar    1  UNL1        0.0371
     22 H          -0.4925  -17.7972   17.9329 H       1  UNL1        0.2922
@<TRIPOS>BOND
     1    15    16    1
     2    16    17   ar
     3    17    18   ar
     4    18    19   ar
     5    19    20   ar
     6    20     1    1
     7     1     2   ar
     8     2     3   ar
     9     3     4   ar
    10     4     6    1
    11     6     7   ar
    12     7     8   ar
    13     8     9   ar
    14     9    10    1
    15     9    11   ar
    16    11    12    1
    17    11    13   ar
    18     4     5   ar
    19    20    21   ar
    20    21    16   ar
    21     5     1   ar
    22    13     6   ar
    23    15    22    1
    24    10    14    1
@<TRIPOS>MOLECULE
*****
 22 24 0 0 0
SMALL
GASTEIGER

@<TRIPOS>ATOM
      1 C          -9.0012  -18.7644   22.0821 C.ar    1  UNL1        0.0296
      2 C          -8.7516  -20.0917   22.7347 C.ar    1  UNL1        0.0070
      3 C          -7.2910  -20.4063   22.6016 C.ar    1  UNL1        0.0070
      4 C          -6.6380  -19.2734   21.8667 C.ar    1  UNL1        0.0295
      5 S          -7.6949  -18.2586   21.5456 S.2     1  UNL1       -0.0869
      6 C          -5.1833  -19.1728   21.5146 C.ar    1  UNL1        0.0084
      7 C          -4.7156  -19.5566   20.1421 C.ar    1  UNL1        0.0037
      8 C          -3.2609  -19.4560   19.7901 C.ar    1  UNL1        0.0390
      9 C          -2.2741  -18.9718   20.8106 C.ar    1  UNL1        0.1610
     10 O          -0.8194  -18.8713   20.4586 O.3     1  UNL1       -0.5034
     11 C          -2.7418  -18.5881   22.1833 C.ar    1  UNL1        0.1736
     12 F          -1.7549  -18.1038   23.2038 F       1  UNL1       -0.2010
     13 C          -4.1964  -18.6886   22.5352 C.ar    1  UNL1        0.0333
     14 H          -0.5272  -19.1110   19.6012 H       1  UNL1        0.2923
     15 O         -12.3812  -15.8893   19.3784 O.3     1  UNL1       -0.5055
     16 C         -12.0148  -16.6280   20.6314 C.ar    1  UNL1        0.1337
     17 C         -12.9719  -16.6678   21.7856 C.ar    1  UNL1        0.0366
     18 C         -12.6055  -17.4065   23.0387 C.ar    1  UNL1        0.0031
     19 C         -11.2820  -18.1054   23.1375 C.ar    1  UNL1        0.0007
     20 C         -10.3249  -18.0655   21.9833 C.ar    1  UNL1        0.0090
     21 C         -10.6913  -17.3268   20.7303 C.ar    1  UNL1        0.0371
     22 H         -13.2080  -15.4528   19.3167 H       1  UNL1        0.2922
@<TRIPOS>BOND
     1    15    16    1
     2    16    17   ar
     3    17    18   ar
     4    18    19   ar
     5    19    20   ar
     6    20     1    1
     7     1     2   ar
     8     2     3   ar
     9     3     4   ar
    10     4     6    1
    11     6     7   ar
    12     7     8   ar
    13     8     9   ar
    14     9    10    1
    15     9    11   ar
    16    11    12    1
    17    11    13   ar
    18     4     5   ar
    19    20    21   ar
    20    21    16   ar
    21     5     1   ar
    22    13     6   ar
    23    15    22    1
    24    10    14    1
@<TRIPOS>MOLECULE
*****
 22 24 0 0 0
SMALL
GASTEIGER

@<TRIPOS>ATOM
      1 C          -6.5625  -19.2182   20.5168 C.ar    1  UNL1        0.0296
      2 C          -7.3297  -19.6578   19.3051 C.ar    1  UNL1        0.0070
      3 C          -8.7926  -19.5290   19.6108 C.ar    1  UNL1        0.0070
      4 C          -8.9294  -19.0098   21.0115 C.ar    1  UNL1        0.0295
      5 S          -7.5511  -18.8177   21.5714 S.2     1  UNL1       -0.0869
      6 C         -10.2182  -18.7316   21.7267 C.ar    1  UNL1        0.0084
      7 C         -11.3481  -18.0613   21.0028 C.ar    1  UNL1        0.0037
      8 C         -12.6370  -17.7831   21.7180 C.ar    1  UNL1        0.0390
      9 C         -12.7959  -18.1752   23.1570 C.ar    1  UNL1        0.1610
     10 O         -14.0847  -17.8969   23.8722 O.3     1  UNL1       -0.5034
     11 C         -11.6660  -18.8455   23.8810 C.ar    1  UNL1        0.1736
     12 F         -11.8250  -19.2376   25.3201 F       1  UNL1       -0.2010
     13 C         -10.3772  -19.1237   23.1658 C.ar    1  UNL1        0.0333
     14 H         -14.7905  -17.4782   23.4200 H       1  UNL1        0.2923
     15 O          -1.8752  -18.3951   18.4306 O.3     1  UNL1       -0.5055
     16 C          -2.7251  -18.7733   19.6072 C.ar    1  UNL1        0.1337
     17 C          -2.0815  -19.1183   20.9174 C.ar    1  UNL1        0.0366
     18 C          -2.9314  -19.4966   22.0941 C.ar    1  UNL1        0.0031
     19 C          -4.4250  -19.5299   21.9605 C.ar    1  UNL1        0.0007
     20 C          -5.0687  -19.1849   20.6504 C.ar    1  UNL1        0.0090
     21 C          -4.2188  -18.8066   19.4737 C.ar    1  UNL1        0.0371
     22 H          -0.9422  -18.3743   18.5140 H       1  UNL1        0.2922
@<TRIPOS>BOND
     1    15    16    1
     2    16    17   ar
     3    17    18   ar
     4    18    19   ar
     5    19    20   ar
     6    20     1    1
     7     1     2   ar
     8     2     3   ar
     9     3     4   ar
    10     4     6    1
    11     6     7   ar
    12     7     8   ar
    13     8     9   ar
    14     9    10    1
    15     9    11   ar
    16    11    12    1
    17    11    13   ar
    18     4     5   ar
    19    20    21   ar
    20    21    16   ar
    21     5     1   ar
    22    13     6   ar
    23    15    22    1
    24    10    14    1
@<TRIPOS>MOLECULE
*****
 22 24 0 0 0
SMALL
GASTEIGER

@<TRIPOS>ATOM
      1 C          -6.0982  -19.1091   20.8445 C.ar    1  UNL1        0.0296
      2 C          -6.8643  -19.8165   19.7662 C.ar    1  UNL1        0.0070
      3 C          -8.3144  -19.8140   20.1498 C.ar    1  UNL1        0.0070
      4 C          -8.4445  -19.1050   21.4653 C.ar    1  UNL1        0.0295
      5 S          -7.0749  -18.6694   21.8947 S.2     1  UNL1       -0.0869
      6 C          -9.7204  -18.8725   22.2191 C.ar    1  UNL1        0.0084
      7 C          -9.7543  -19.0484   23.7084 C.ar    1  UNL1        0.0037
      8 C         -11.0301  -18.8158   24.4622 C.ar    1  UNL1        0.0390
      9 C         -12.2720  -18.4075   23.7267 C.ar    1  UNL1        0.1610
     10 O         -13.5478  -18.1749   24.4805 O.3     1  UNL1       -0.5034
     11 C         -12.2380  -18.2316   22.2373 C.ar    1  UNL1        0.1736
     12 F         -13.4799  -17.8232   21.5019 F       1  UNL1       -0.2010
     13 C         -10.9623  -18.4641   21.4837 C.ar    1  UNL1        0.0333
     14 H         -13.5690  -18.2848   25.4108 H       1  UNL1        0.2923
     15 O          -1.7642  -17.9579   23.4696 O.3     1  UNL1       -0.5055
     16 C          -2.4488  -18.3059   22.1811 C.ar    1  UNL1        0.1337
     17 C          -1.6509  -18.4262   20.9166 C.ar    1  UNL1        0.0366
     18 C          -2.3355  -18.7741   19.6281 C.ar    1  UNL1        0.0031
     19 C          -3.8179  -19.0018   19.6041 C.ar    1  UNL1        0.0007
     20 C          -4.6157  -18.8815   20.8685 C.ar    1  UNL1        0.0090
     21 C          -3.9312  -18.5335   22.1571 C.ar    1  UNL1        0.0371
     22 H          -0.8382  -17.8157   23.4846 H       1  UNL1        0.2922
@<TRIPOS>BOND
     1    15    16    1
     2    16    17   ar
     3    17    18   ar
     4    18    19   ar
     5    19    20   ar
     6    20     1    1
     7     1     2   ar
     8     2     3   ar
     9     3     4   ar
    10     4     6    1
    11     6     7   ar
    12     7     8   ar
    13     8     9   ar
    14     9    10    1
    15     9    11   ar
    16    11    12    1
    17    11    13   ar
    18     4     5   ar
    19    20    21   ar
    20    21    16   ar
    21     5     1   ar
    22    13     6   ar
    23    15    22    1
    24    10    14    1
@<TRIPOS>MOLECULE
*****
 22 24 0 0 0
SMALL
GASTEIGER

@<TRIPOS>ATOM
      1 C          -4.9427  -19.4777   20.3885 C.ar    1  UNL1        0.0296
      2 C          -5.3900  -20.9000   20.2248 C.ar    1  UNL1        0.0070
      3 C          -6.8855  -20.9314   20.3363 C.ar    1  UNL1        0.0070
      4 C          -7.3625  -19.5284   20.5688 C.ar    1  UNL1        0.0295
      5 S          -6.1617  -18.6299   20.6010 S.2     1  UNL1       -0.0869
      6 C          -8.7896  -19.0991   20.7392 C.ar    1  UNL1        0.0084
      7 C          -9.7942  -19.3917   19.6644 C.ar    1  UNL1        0.0037
      8 C         -11.2214  -18.9624   19.8347 C.ar    1  UNL1        0.0390
      9 C         -11.6439  -18.2407   21.0799 C.ar    1  UNL1        0.1610
     10 O         -13.0710  -17.8115   21.2503 O.3     1  UNL1       -0.5034
     11 C         -10.6393  -17.9482   22.1548 C.ar    1  UNL1        0.1736
     12 F         -11.0619  -17.2264   23.4000 F       1  UNL1       -0.2010
     13 C          -9.2122  -18.3774   21.9844 C.ar    1  UNL1        0.0333
     14 H         -13.6986  -17.9942   20.5789 H       1  UNL1        0.2923
     15 O          -0.8439  -17.7857   17.6797 O.3     1  UNL1       -0.5055
     16 C          -1.4758  -18.1429   18.9924 C.ar    1  UNL1        0.1337
     17 C          -0.6901  -18.0113   20.2634 C.ar    1  UNL1        0.0366
     18 C          -1.3220  -18.3685   21.5761 C.ar    1  UNL1        0.0031
     19 C          -2.7395  -18.8573   21.6178 C.ar    1  UNL1        0.0007
     20 C          -3.5251  -18.9889   20.3468 C.ar    1  UNL1        0.0090
     21 C          -2.8932  -18.6317   19.0341 C.ar    1  UNL1        0.0371
     22 H           0.0416  -17.4804   17.6537 H       1  UNL1        0.2922
@<TRIPOS>BOND
     1    15    16    1
     2    16    17   ar
     3    17    18   ar
     4    18    19   ar
     5    19    20   ar
     6    20     1    1
     7     1     2   ar
     8     2     3   ar
     9     3     4   ar
    10     4     6    1
    11     6     7   ar
    12     7     8   ar
    13     8     9   ar
    14     9    10    1
    15     9    11   ar
    16    11    12    1
    17    11    13   ar
    18     4     5   ar
    19    20    21   ar
    20    21    16   ar
    21     5     1   ar
    22    13     6   ar
    23    15    22    1
    24    10    14    1
@<TRIPOS>MOLECULE
*****
 22 24 0 0 0
SMALL
GASTEIGER

@<TRIPOS>ATOM
      1 C          -5.7417  -19.3064   20.3771 C.ar    1  UNL1        0.0296
      2 C          -6.3828  -20.4253   19.6110 C.ar    1  UNL1        0.0070
      3 C          -7.8472  -20.4301   19.9359 C.ar    1  UNL1        0.0070
      4 C          -8.1111  -19.3140   20.9028 C.ar    1  UNL1        0.0295
      5 S          -6.8098  -18.6196   21.1755 S.2     1  UNL1       -0.0869
      6 C          -9.4425  -18.9554   21.4934 C.ar    1  UNL1        0.0084
      7 C         -10.5926  -18.6089   20.5950 C.ar    1  UNL1        0.0037
      8 C         -11.9240  -18.2503   21.1856 C.ar    1  UNL1        0.0390
      9 C         -12.1053  -18.2383   22.6744 C.ar    1  UNL1        0.1610
     10 O         -13.4367  -17.8797   23.2650 O.3     1  UNL1       -0.5034
     11 C         -10.9551  -18.5848   23.5729 C.ar    1  UNL1        0.1736
     12 F         -11.1364  -18.5728   25.0619 F       1  UNL1       -0.2010
     13 C          -9.6238  -18.9434   22.9823 C.ar    1  UNL1        0.0333
     14 H         -14.1551  -17.6632   22.7038 H       1  UNL1        0.2923
     15 O          -1.2354  -18.5827   22.8611 O.3     1  UNL1       -0.5055
     16 C          -2.0345  -18.5770   21.5917 C.ar    1  UNL1        0.1337
     17 C          -1.3796  -18.2037   20.2949 C.ar    1  UNL1        0.0366
     18 C          -2.1787  -18.1980   19.0255 C.ar    1  UNL1        0.0031
     19 C          -3.6327  -18.5656   19.0529 C.ar    1  UNL1        0.0007
     20 C          -4.2876  -18.9388   20.3497 C.ar    1  UNL1        0.0090
     21 C          -3.4885  -18.9445   21.6191 C.ar    1  UNL1        0.0371
     22 H          -0.3271  -18.3531   22.8440 H       1  UNL1        0.2922
@<TRIPOS>BOND
     1    15    16    1
     2    16    17   ar
     3    17    18   ar
     4    18    19   ar
     5    19    20   ar
     6    20     1    1
     7     1     2   ar
     8     2     3   ar
     9     3     4   ar
    10     4     6    1
    11     6     7   ar
    12     7     8   ar
    13     8     9   ar
    14     9    10    1
    15     9    11   ar
    16    11    12    1
    17    11    13   ar
    18     4     5   ar
    19    20    21   ar
    20    21    16   ar
    21     5     1   ar
    22    13     6   ar
    23    15    22    1
    24    10    14    1
@<TRIPOS>MOLECULE
*****
 22 24 0 0 0
SMALL
GASTEIGER

@<TRIPOS>ATOM
      1 C         -13.9317   -5.5916   19.0969 C.ar    1  UNL1        0.0296
      2 C         -15.0544   -4.7848   19.6789 C.ar    1  UNL1        0.0070
      3 C         -16.3028   -5.6138   19.6144 C.ar    1  UNL1        0.0070
      4 C         -15.9517   -6.9329   18.9924 C.ar    1  UNL1        0.0295
      5 S         -14.4862   -6.9191   18.6726 S.2     1  UNL1       -0.0869
      6 C         -16.8996   -8.0667   18.7354 C.ar    1  UNL1        0.0084
      7 C         -18.3009   -7.7843   18.2810 C.ar    1  UNL1        0.0037
      8 C         -19.2488   -8.9181   18.0240 C.ar    1  UNL1        0.0390
      9 C         -18.7954  -10.3341   18.2215 C.ar    1  UNL1        0.1610
     10 O         -19.7433  -11.4679   17.9645 O.3     1  UNL1       -0.5034
     11 C         -17.3940  -10.6165   18.6760 C.ar    1  UNL1        0.1736
     12 F         -16.9406  -12.0327   18.8735 F       1  UNL1       -0.2010
     13 C         -16.4462   -9.4828   18.9329 C.ar    1  UNL1        0.0333
     14 H         -20.6186  -11.2915   17.6806 H       1  UNL1        0.2923
     15 O         -10.4381   -1.7961   18.4730 O.3     1  UNL1       -0.5055
     16 C         -10.7581   -3.2507   18.6508 C.ar    1  UNL1        0.1337
     17 C          -9.6514   -4.2622   18.6944 C.ar    1  UNL1        0.0366
     18 C          -9.9714   -5.7169   18.8721 C.ar    1  UNL1        0.0031
     19 C         -11.3981   -6.1600   19.0063 C.ar    1  UNL1        0.0007
     20 C         -12.5048   -5.1485   18.9627 C.ar    1  UNL1        0.0090
     21 C         -12.1848   -3.6938   18.7849 C.ar    1  UNL1        0.0371
     22 H          -9.5468   -1.5193   18.3891 H       1  UNL1        0.2922
@<TRIPOS>BOND
     1    15    16    1
     2    16    17   ar
     3    17    18   ar
     4    18    19   ar
     5    19    20   ar
     6    20     1    1
     7     1     2   ar
     8     2     3   ar
     9     3     4   ar
    10     4     6    1
    11     6     7   ar
    12     7     8   ar
    13     8     9   ar
    14     9    10    1
    15     9    11   ar
    16    11    12    1
    17    11    13   ar
    18     4     5   ar
    19    20    21   ar
    20    21    16   ar
    21     5     1   ar
    22    13     6   ar
    23    15    22    1
    24    10    14    1
