@<TRIPOS>MOLECULE
*****
 29 31 0 0 0
SMALL
GASTEIGER

@<TRIPOS>ATOM
      1 C          -7.7775  -19.7715   21.0836 C.ar    1  UNL1        0.1344
      2 C          -8.0977  -20.1779   22.4915 C.ar    1  UNL1        0.0310
      3 C          -9.4104  -19.7889   23.1042 C.ar    1  UNL1       -0.0067
      4 C          -9.7306  -20.1954   24.5122 C.3     1  UNL1        0.0319
      5 C         -10.4028  -18.9935   22.3090 C.ar    1  UNL1        0.0959
      6 C         -10.0827  -18.5871   20.9011 C.ar    1  UNL1        0.1393
      7 N          -8.7700  -18.9761   20.2884 N.ar    1  UNL1       -0.2154
      8 N          -6.4647  -20.1604   20.4708 N.pl3   1  UNL1       -0.2819
      9 H          -6.4088  -20.9519   19.8880 H       1  UNL1        0.1551
     10 C          -2.4867  -17.7636   22.9829 C.3     1  UNL1        0.0515
     11 C          -3.4087  -18.2418   21.9006 C.ar    1  UNL1        0.0548
     12 C          -4.6135  -19.1148   22.0908 C.ar    1  UNL1        0.0502
     13 C          -5.2372  -19.3435   20.7459 C.ar    1  UNL1        0.1539
     14 N          -4.4178  -18.6118   19.7245 N.ar    1  UNL1       -0.1577
     15 N          -3.2877  -17.9309   20.4381 N.ar    1  UNL1       -0.2786
     16 H          -2.5893  -17.3771   20.0201 H       1  UNL1        0.1886
     17 C         -11.7156  -18.6046   22.9219 C.1     1  UNL1        0.1029
     18 N         -13.0283  -18.2156   23.5346 N.1     1  UNL1       -0.1907
     19 N         -11.0752  -17.7917   20.1060 N.pl3   1  UNL1       -0.3145
     20 H         -11.7307  -18.2529   19.5343 H       1  UNL1        0.1483
     21 C         -11.0689  -16.2937   20.1818 C.3     1  UNL1        0.1362
     22 C         -10.3899  -15.6035   21.3276 C.3     1  UNL1        0.2265
     23 O          -8.9190  -15.7932   21.5521 O.3     1  UNL1       -0.4735
     24 C          -8.3626  -15.7612   22.9447 C.ar    1  UNL1        0.1417
     25 C          -6.9367  -15.3553   23.1735 C.ar    1  UNL1        0.0576
     26 C          -6.3803  -15.3233   24.5661 C.ar    1  UNL1        0.1020
     27 N          -7.2498  -15.6971   25.7299 N.ar    1  UNL1       -0.2421
     28 C          -8.6756  -16.1028   25.5011 C.ar    1  UNL1        0.1020
     29 C          -9.2320  -16.1349   24.1085 C.ar    1  UNL1        0.0576
@<TRIPOS>BOND
     1    10    11    1
     2    11    12   ar
     3    12    13   ar
     4    13     8    1
     5     8     1    1
     6     1     2   ar
     7     2     3   ar
     8     3     4    1
     9     3     5   ar
    10     5    17    1
    11    17    18    3
    12     5     6   ar
    13     6    19    1
    14    19    21    1
    15    21    22    1
    16    22    23    1
    17    23    24    1
    18    24    25   ar
    19    25    26   ar
    20    26    27   ar
    21    27    28   ar
    22    28    29   ar
    23     6     7   ar
    24    13    14   ar
    25    14    15   ar
    26    15    11   ar
    27     7     1   ar
    28    29    24   ar
    29     8     9    1
    30    19    20    1
    31    15    16    1
@<TRIPOS>MOLECULE
*****
 29 31 0 0 0
SMALL
GASTEIGER

@<TRIPOS>ATOM
      1 C          -9.1481  -16.7412   22.1873 C.ar    1  UNL1        0.1344
      2 C         -10.3842  -17.4717   21.7535 C.ar    1  UNL1        0.0310
      3 C         -10.2851  -18.5861   20.7544 C.ar    1  UNL1       -0.0067
      4 C         -11.5213  -19.3167   20.3206 C.3     1  UNL1        0.0319
      5 C          -8.9498  -18.9699   20.1890 C.ar    1  UNL1        0.0959
      6 C          -7.7137  -18.2394   20.6228 C.ar    1  UNL1        0.1393
      7 N          -7.8128  -17.1250   21.6219 N.ar    1  UNL1       -0.2154
      8 N          -9.2472  -15.6267   23.1865 N.pl3   1  UNL1       -0.2819
      9 H          -9.9848  -14.9774   23.1281 H       1  UNL1        0.1551
     10 C          -6.7955  -16.0271   27.8458 C.3     1  UNL1        0.0515
     11 C          -7.0954  -15.6857   26.4163 C.ar    1  UNL1        0.0548
     12 C          -8.3483  -16.0372   25.6701 C.ar    1  UNL1        0.0502
     13 C          -8.2224  -15.5017   24.2746 C.ar    1  UNL1        0.1539
     14 N          -6.8917  -14.8193   24.1584 N.ar    1  UNL1       -0.1577
     15 N          -6.1952  -14.9330   25.4820 N.ar    1  UNL1       -0.2786
     16 H          -5.3037  -14.5762   25.6993 H       1  UNL1        0.1886
     17 C          -8.8507  -20.0843   19.1898 C.1     1  UNL1        0.1029
     18 N          -8.7516  -21.1987   18.1907 N.1     1  UNL1       -0.1907
     19 N          -6.3784  -18.6232   20.0574 N.pl3   1  UNL1       -0.3145
     20 H          -6.0250  -18.1539   19.2674 H       1  UNL1        0.1483
     21 C          -5.5815  -19.7221   20.6957 C.3     1  UNL1        0.1362
     22 C          -5.3728  -19.7318   22.1810 C.3     1  UNL1        0.2265
     23 O          -3.9998  -19.5201   22.7469 O.3     1  UNL1       -0.4735
     24 C          -3.0308  -18.6153   22.0453 C.ar    1  UNL1        0.1417
     25 C          -2.1157  -19.1681   20.9930 C.ar    1  UNL1        0.0576
     26 C          -1.1466  -18.2634   20.2914 C.ar    1  UNL1        0.1020
     27 N          -1.0926  -16.8058   20.6419 N.ar    1  UNL1       -0.2421
     28 C          -2.0077  -16.2532   21.6941 C.ar    1  UNL1        0.1020
     29 C          -2.9767  -17.1579   22.3958 C.ar    1  UNL1        0.0576
@<TRIPOS>BOND
     1    10    11    1
     2    11    12   ar
     3    12    13   ar
     4    13     8    1
     5     8     1    1
     6     1     2   ar
     7     2     3   ar
     8     3     4    1
     9     3     5   ar
    10     5    17    1
    11    17    18    3
    12     5     6   ar
    13     6    19    1
    14    19    21    1
    15    21    22    1
    16    22    23    1
    17    23    24    1
    18    24    25   ar
    19    25    26   ar
    20    26    27   ar
    21    27    28   ar
    22    28    29   ar
    23     6     7   ar
    24    13    14   ar
    25    14    15   ar
    26    15    11   ar
    27     7     1   ar
    28    29    24   ar
    29     8     9    1
    30    19    20    1
    31    15    16    1
@<TRIPOS>MOLECULE
*****
 29 31 0 0 0
SMALL
GASTEIGER

@<TRIPOS>ATOM
      1 C          -5.3935  -18.8142   22.0591 C.ar    1  UNL1        0.1344
      2 C          -5.5035  -19.9936   21.1389 C.ar    1  UNL1        0.0310
      3 C          -6.7738  -20.2359   20.3789 C.ar    1  UNL1       -0.0067
      4 C          -6.8838  -21.4154   19.4586 C.3     1  UNL1        0.0319
      5 C          -7.9340  -19.2988   20.5391 C.ar    1  UNL1        0.0959
      6 C          -7.8240  -18.1194   21.4593 C.ar    1  UNL1        0.1393
      7 N          -6.5537  -17.8771   22.2193 N.ar    1  UNL1       -0.2154
      8 N          -4.1232  -18.5718   22.8192 N.pl3   1  UNL1       -0.2819
      9 H          -4.0491  -18.8581   23.7582 H       1  UNL1        0.1551
     10 C           0.2176  -17.7274   19.9338 C.3     1  UNL1        0.0515
     11 C          -0.9705  -17.5052   20.8222 C.ar    1  UNL1        0.0548
     12 C          -1.9391  -18.5558   21.2783 C.ar    1  UNL1        0.0502
     13 C          -2.9657  -17.8934   22.1485 C.ar    1  UNL1        0.1539
     14 N          -2.6315  -16.4333   22.2302 N.ar    1  UNL1       -0.1577
     15 N          -1.3984  -16.1934   21.4105 N.ar    1  UNL1       -0.2786
     16 H          -0.9489  -15.3271   21.2813 H       1  UNL1        0.1886
     17 C          -9.2043  -19.5412   19.7790 C.1     1  UNL1        0.1029
     18 N         -10.4745  -19.7835   19.0189 N.1     1  UNL1       -0.1907
     19 N          -8.9842  -17.1823   21.6195 N.pl3   1  UNL1       -0.3145
     20 H          -9.0131  -16.3425   21.1065 H       1  UNL1        0.1483
     21 C         -10.1004  -17.5247   22.5612 C.3     1  UNL1        0.1362
     22 C          -9.9726  -17.2090   24.0220 C.3     1  UNL1        0.2265
     23 O          -9.5405  -15.8405   24.4586 O.3     1  UNL1       -0.4735
     24 C          -8.1971  -15.6464   25.0971 C.ar    1  UNL1        0.1417
     25 C          -8.0509  -15.7588   26.5857 C.ar    1  UNL1        0.0576
     26 C          -6.7075  -15.5646   27.2242 C.ar    1  UNL1        0.1020
     27 N          -5.5103  -15.2580   26.3739 N.ar    1  UNL1       -0.2421
     28 C          -5.6565  -15.1456   24.8853 C.ar    1  UNL1        0.1020
     29 C          -6.9999  -15.3398   24.2469 C.ar    1  UNL1        0.0576
@<TRIPOS>BOND
     1    10    11    1
     2    11    12   ar
     3    12    13   ar
     4    13     8    1
     5     8     1    1
     6     1     2   ar
     7     2     3   ar
     8     3     4    1
     9     3     5   ar
    10     5    17    1
    11    17    18    3
    12     5     6   ar
    13     6    19    1
    14    19    21    1
    15    21    22    1
    16    22    23    1
    17    23    24    1
    18    24    25   ar
    19    25    26   ar
    20    26    27   ar
    21    27    28   ar
    22    28    29   ar
    23     6     7   ar
    24    13    14   ar
    25    14    15   ar
    26    15    11   ar
    27     7     1   ar
    28    29    24   ar
    29     8     9    1
    30    19    20    1
    31    15    16    1
@<TRIPOS>MOLECULE
*****
 29 31 0 0 0
SMALL
GASTEIGER

@<TRIPOS>ATOM
      1 C          -3.9070  -18.2954   22.5132 C.ar    1  UNL1        0.1344
      2 C          -3.9490  -17.0713   23.3790 C.ar    1  UNL1        0.0310
      3 C          -5.2684  -16.4860   23.7868 C.ar    1  UNL1       -0.0067
      4 C          -5.3104  -15.2618   24.6526 C.3     1  UNL1        0.0319
      5 C          -6.5460  -17.1248   23.3287 C.ar    1  UNL1        0.0959
      6 C          -6.5040  -18.3489   22.4628 C.ar    1  UNL1        0.1393
      7 N          -5.1846  -18.9342   22.0551 N.ar    1  UNL1       -0.2154
      8 N          -2.5875  -18.8808   22.1054 N.pl3   1  UNL1       -0.2819
      9 H          -2.1227  -19.5105   22.7027 H       1  UNL1        0.1551
     10 C          -2.0294  -17.3723   17.0762 C.3     1  UNL1        0.0515
     11 C          -1.7197  -17.8135   18.4760 C.ar    1  UNL1        0.0548
     12 C          -2.7239  -18.0962   19.5538 C.ar    1  UNL1        0.0502
     13 C          -1.9762  -18.5069   20.7877 C.ar    1  UNL1        0.1539
     14 N          -0.5100  -18.4779   20.4724 N.ar    1  UNL1       -0.1577
     15 N          -0.3514  -18.0494   19.0437 N.ar    1  UNL1       -0.2786
     16 H           0.5010  -17.9418   18.5630 H       1  UNL1        0.1886
     17 C          -7.8655  -16.5394   23.7365 C.1     1  UNL1        0.1029
     18 N          -9.1850  -15.9540   24.1442 N.1     1  UNL1       -0.1907
     19 N          -7.7816  -18.9877   22.0048 N.pl3   1  UNL1       -0.3145
     20 H          -8.2300  -18.6630   21.1907 H       1  UNL1        0.1483
     21 C          -8.3759  -20.1211   22.7870 C.3     1  UNL1        0.1362
     22 C          -9.5914  -19.8908   23.6354 C.3     1  UNL1        0.2265
     23 O         -10.9535  -19.8806   23.0071 O.3     1  UNL1       -0.4735
     24 C         -11.3828  -18.7150   22.1662 C.ar    1  UNL1        0.1417
     25 C         -12.1160  -17.5668   22.7940 C.ar    1  UNL1        0.0576
     26 C         -12.5453  -16.4013   21.9531 C.ar    1  UNL1        0.1020
     27 N         -12.2413  -16.3839   20.4842 N.ar    1  UNL1       -0.2421
     28 C         -11.5082  -17.5321   19.8564 C.ar    1  UNL1        0.1020
     29 C         -11.0789  -18.6976   20.6974 C.ar    1  UNL1        0.0576
@<TRIPOS>BOND
     1    10    11    1
     2    11    12   ar
     3    12    13   ar
     4    13     8    1
     5     8     1    1
     6     1     2   ar
     7     2     3   ar
     8     3     4    1
     9     3     5   ar
    10     5    17    1
    11    17    18    3
    12     5     6   ar
    13     6    19    1
    14    19    21    1
    15    21    22    1
    16    22    23    1
    17    23    24    1
    18    24    25   ar
    19    25    26   ar
    20    26    27   ar
    21    27    28   ar
    22    28    29   ar
    23     6     7   ar
    24    13    14   ar
    25    14    15   ar
    26    15    11   ar
    27     7     1   ar
    28    29    24   ar
    29     8     9    1
    30    19    20    1
    31    15    16    1
@<TRIPOS>MOLECULE
*****
 29 31 0 0 0
SMALL
GASTEIGER

@<TRIPOS>ATOM
      1 C          -7.2715  -19.5908   21.7818 C.ar    1  UNL1        0.1344
      2 C          -7.9621  -19.7211   20.4567 C.ar    1  UNL1        0.0310
      3 C          -9.3803  -19.2578   20.3013 C.ar    1  UNL1       -0.0067
      4 C         -10.0709  -19.3881   18.9761 C.3     1  UNL1        0.0319
      5 C         -10.1078  -18.6642   21.4711 C.ar    1  UNL1        0.0959
      6 C          -9.4172  -18.5339   22.7962 C.ar    1  UNL1        0.1393
      7 N          -7.9991  -18.9972   22.9516 N.ar    1  UNL1       -0.2154
      8 N          -5.8533  -20.0541   21.9373 N.pl3   1  UNL1       -0.2819
      9 H          -5.6618  -20.9141   22.3765 H       1  UNL1        0.1551
     10 C          -1.9929  -18.1489   18.8798 C.3     1  UNL1        0.0515
     11 C          -2.9526  -18.3314   20.0181 C.ar    1  UNL1        0.0548
     12 C          -3.9983  -19.4013   20.1269 C.ar    1  UNL1        0.0502
     13 C          -4.7270  -19.2071   21.4235 C.ar    1  UNL1        0.1539
     14 N          -4.1317  -18.0172   22.1161 N.ar    1  UNL1       -0.1577
     15 N          -3.0350  -17.4760   21.2476 N.ar    1  UNL1       -0.2786
     16 H          -2.4687  -16.6962   21.4491 H       1  UNL1        0.1886
     17 C         -11.5260  -18.2009   21.3156 C.1     1  UNL1        0.1029
     18 N         -12.9442  -17.7376   21.1603 N.1     1  UNL1       -0.1907
     19 N         -10.1447  -17.9403   23.9660 N.pl3   1  UNL1       -0.3145
     20 H         -10.7515  -17.1767   23.8323 H       1  UNL1        0.1483
     21 C          -9.9478  -18.5103   25.3394 C.3     1  UNL1        0.1362
     22 C          -9.2632  -17.6971   26.3978 C.3     1  UNL1        0.2265
     23 O          -8.9946  -16.2395   26.1671 O.3     1  UNL1       -0.4735
     24 C          -7.6759  -15.7999   25.6033 C.ar    1  UNL1        0.1417
     25 C          -6.5131  -15.5548   26.5186 C.ar    1  UNL1        0.0576
     26 C          -5.1944  -15.1152   25.9548 C.ar    1  UNL1        0.1020
     27 N          -5.0386  -14.9207   24.4756 N.ar    1  UNL1       -0.2421
     28 C          -6.2014  -15.1658   23.5603 C.ar    1  UNL1        0.1020
     29 C          -7.5200  -15.6054   24.1241 C.ar    1  UNL1        0.0576
@<TRIPOS>BOND
     1    10    11    1
     2    11    12   ar
     3    12    13   ar
     4    13     8    1
     5     8     1    1
     6     1     2   ar
     7     2     3   ar
     8     3     4    1
     9     3     5   ar
    10     5    17    1
    11    17    18    3
    12     5     6   ar
    13     6    19    1
    14    19    21    1
    15    21    22    1
    16    22    23    1
    17    23    24    1
    18    24    25   ar
    19    25    26   ar
    20    26    27   ar
    21    27    28   ar
    22    28    29   ar
    23     6     7   ar
    24    13    14   ar
    25    14    15   ar
    26    15    11   ar
    27     7     1   ar
    28    29    24   ar
    29     8     9    1
    30    19    20    1
    31    15    16    1
@<TRIPOS>MOLECULE
*****
 29 31 0 0 0
SMALL
GASTEIGER

@<TRIPOS>ATOM
      1 C          -8.9646  -17.5242   23.9058 C.ar    1  UNL1        0.1344
      2 C          -9.2231  -16.8552   25.2232 C.ar    1  UNL1        0.0310
      3 C          -8.1593  -16.0076   25.8554 C.ar    1  UNL1       -0.0067
      4 C          -8.4177  -15.3386   27.1729 C.3     1  UNL1        0.0319
      5 C          -6.8370  -15.8288   25.1701 C.ar    1  UNL1        0.0959
      6 C          -6.5785  -16.4978   23.8527 C.ar    1  UNL1        0.1393
      7 N          -7.6423  -17.3454   23.2205 N.ar    1  UNL1       -0.2154
      8 N         -10.0285  -18.3719   23.2735 N.pl3   1  UNL1       -0.2819
      9 H         -10.1343  -19.3124   23.5447 H       1  UNL1        0.1551
     10 C         -11.7809  -15.6222   19.1204 C.3     1  UNL1        0.0515
     11 C         -11.7365  -16.5228   20.3192 C.ar    1  UNL1        0.0548
     12 C         -10.5176  -16.8548   21.1279 C.ar    1  UNL1        0.0502
     13 C         -10.9310  -17.7867   22.2282 C.ar    1  UNL1        0.1539
     14 N         -12.4055  -18.0306   22.0995 N.ar    1  UNL1       -0.1577
     15 N         -12.9034  -17.2495   20.9197 N.ar    1  UNL1       -0.2786
     16 H         -13.8327  -17.2190   20.5963 H       1  UNL1        0.1886
     17 C          -5.7731  -14.9811   25.8024 C.1     1  UNL1        0.1029
     18 N          -4.7093  -14.1334   26.4345 N.1     1  UNL1       -0.1907
     19 N          -5.2562  -16.3190   23.1674 N.pl3   1  UNL1       -0.3145
     20 H          -5.1197  -15.5643   22.5501 H       1  UNL1        0.1483
     21 C          -4.1419  -17.2901   23.4226 C.3     1  UNL1        0.1362
     22 C          -4.2281  -18.6884   22.8864 C.3     1  UNL1        0.2265
     23 O          -4.2600  -18.9230   21.4052 O.3     1  UNL1       -0.4735
     24 C          -3.0617  -18.5889   20.5670 C.ar    1  UNL1        0.1417
     25 C          -1.6827  -18.7285   21.1406 C.ar    1  UNL1        0.0576
     26 C          -0.4844  -18.3944   20.3024 C.ar    1  UNL1        0.1020
     27 N          -0.6652  -17.9207   18.8906 N.ar    1  UNL1       -0.2421
     28 C          -2.0441  -17.7812   18.3171 C.ar    1  UNL1        0.1020
     29 C          -3.2424  -18.1153   19.1553 C.ar    1  UNL1        0.0576
@<TRIPOS>BOND
     1    10    11    1
     2    11    12   ar
     3    12    13   ar
     4    13     8    1
     5     8     1    1
     6     1     2   ar
     7     2     3   ar
     8     3     4    1
     9     3     5   ar
    10     5    17    1
    11    17    18    3
    12     5     6   ar
    13     6    19    1
    14    19    21    1
    15    21    22    1
    16    22    23    1
    17    23    24    1
    18    24    25   ar
    19    25    26   ar
    20    26    27   ar
    21    27    28   ar
    22    28    29   ar
    23     6     7   ar
    24    13    14   ar
    25    14    15   ar
    26    15    11   ar
    27     7     1   ar
    28    29    24   ar
    29     8     9    1
    30    19    20    1
    31    15    16    1
@<TRIPOS>MOLECULE
*****
 29 31 0 0 0
SMALL
GASTEIGER

@<TRIPOS>ATOM
      1 C          -4.4427  -18.9086   22.0756 C.ar    1  UNL1        0.1344
      2 C          -4.3282  -17.7386   23.0073 C.ar    1  UNL1        0.0310
      3 C          -5.5635  -17.0244   23.4696 C.ar    1  UNL1       -0.0067
      4 C          -5.4491  -15.8544   24.4013 C.3     1  UNL1        0.0319
      5 C          -6.9134  -17.4801   23.0002 C.ar    1  UNL1        0.0959
      6 C          -7.0279  -18.6500   22.0686 C.ar    1  UNL1        0.1393
      7 N          -5.7925  -19.3643   21.6062 N.ar    1  UNL1       -0.2154
      8 N          -3.2074  -19.6229   21.6132 N.pl3   1  UNL1       -0.2819
      9 H          -3.0311  -20.5446   21.9111 H       1  UNL1        0.1551
     10 C           1.0139  -17.0119   19.8122 C.3     1  UNL1        0.0515
     11 C          -0.3002  -17.7328   19.8693 C.ar    1  UNL1        0.0548
     12 C          -0.9401  -18.3035   21.1002 C.ar    1  UNL1        0.0502
     13 C          -2.2406  -18.9330   20.6972 C.ar    1  UNL1        0.1539
     14 N          -2.4045  -18.7513   19.2172 N.ar    1  UNL1       -0.1577
     15 N          -1.2054  -18.0096   18.7056 N.ar    1  UNL1       -0.2786
     16 H          -1.0412  -17.7500   17.7702 H       1  UNL1        0.1886
     17 C          -8.1487  -16.7658   23.4626 C.1     1  UNL1        0.1029
     18 N          -9.3840  -16.0515   23.9249 N.1     1  UNL1       -0.1907
     19 N          -8.3777  -19.1057   21.5992 N.pl3   1  UNL1       -0.3145
     20 H          -9.1335  -19.1362   22.2293 H       1  UNL1        0.1483
     21 C          -8.5760  -19.5150   20.1698 C.3     1  UNL1        0.1362
     22 C          -9.8915  -19.2653   19.4937 C.3     1  UNL1        0.2265
     23 O         -10.5528  -17.9241   19.6118 O.3     1  UNL1       -0.4735
     24 C         -11.3430  -17.5831   20.8403 C.ar    1  UNL1        0.1417
     25 C         -11.7196  -16.1579   21.1183 C.ar    1  UNL1        0.0576
     26 C         -12.5099  -15.8169   22.3468 C.ar    1  UNL1        0.1020
     27 N         -12.9235  -16.9011   23.2974 N.ar    1  UNL1       -0.2421
     28 C         -12.5469  -18.3262   23.0194 C.ar    1  UNL1        0.1020
     29 C         -11.7566  -18.6671   21.7909 C.ar    1  UNL1        0.0576
@<TRIPOS>BOND
     1    10    11    1
     2    11    12   ar
     3    12    13   ar
     4    13     8    1
     5     8     1    1
     6     1     2   ar
     7     2     3   ar
     8     3     4    1
     9     3     5   ar
    10     5    17    1
    11    17    18    3
    12     5     6   ar
    13     6    19    1
    14    19    21    1
    15    21    22    1
    16    22    23    1
    17    23    24    1
    18    24    25   ar
    19    25    26   ar
    20    26    27   ar
    21    27    28   ar
    22    28    29   ar
    23     6     7   ar
    24    13    14   ar
    25    14    15   ar
    26    15    11   ar
    27     7     1   ar
    28    29    24   ar
    29     8     9    1
    30    19    20    1
    31    15    16    1
@<TRIPOS>MOLECULE
*****
 29 31 0 0 0
SMALL
GASTEIGER

@<TRIPOS>ATOM
      1 C          -8.8782  -17.4626   23.8971 C.ar    1  UNL1        0.1344
      2 C          -9.1606  -16.8427   25.2335 C.ar    1  UNL1        0.0310
      3 C          -8.1329  -15.9662   25.8859 C.ar    1  UNL1       -0.0067
      4 C          -8.4153  -15.3462   27.2223 C.3     1  UNL1        0.0319
      5 C          -6.8228  -15.7097   25.2018 C.ar    1  UNL1        0.0959
      6 C          -6.5404  -16.3296   23.8655 C.ar    1  UNL1        0.1393
      7 N          -7.5681  -17.2060   23.2131 N.ar    1  UNL1       -0.2154
      8 N          -9.9059  -18.3391   23.2447 N.pl3   1  UNL1       -0.2819
      9 H          -9.9891  -19.2829   23.5121 H       1  UNL1        0.1551
     10 C         -11.7077  -15.5047   19.1704 C.3     1  UNL1        0.0515
     11 C         -11.6349  -16.4747   20.3122 C.ar    1  UNL1        0.0548
     12 C         -10.4332  -16.7377   21.1706 C.ar    1  UNL1        0.0502
     13 C         -10.8068  -17.7776   22.1850 C.ar    1  UNL1        0.1539
     14 N         -12.2394  -18.1573   21.9536 N.ar    1  UNL1       -0.1577
     15 N         -12.7512  -17.3521   20.7962 N.ar    1  UNL1       -0.2786
     16 H         -13.6602  -17.3924   20.4202 H       1  UNL1        0.1886
     17 C          -5.7951  -14.8331   25.8543 C.1     1  UNL1        0.1029
     18 N          -4.7674  -13.9566   26.5066 N.1     1  UNL1       -0.1907
     19 N          -5.2303  -16.0730   23.1815 N.pl3   1  UNL1       -0.3145
     20 H          -5.1806  -15.4284   22.4390 H       1  UNL1        0.1483
     21 C          -3.9960  -16.7985   23.6287 C.3     1  UNL1        0.1362
     22 C          -2.9235  -17.1365   22.6360 C.3     1  UNL1        0.2265
     23 O          -2.6470  -18.5695   22.2893 O.3     1  UNL1       -0.4735
     24 C          -3.7156  -19.4062   21.6506 C.ar    1  UNL1        0.1417
     25 C          -3.4401  -20.1159   20.3581 C.ar    1  UNL1        0.0576
     26 C          -4.5087  -20.9527   19.7194 C.ar    1  UNL1        0.1020
     27 N          -5.8527  -21.0798   20.3732 N.ar    1  UNL1       -0.2421
     28 C          -6.1281  -20.3702   21.6657 C.ar    1  UNL1        0.1020
     29 C          -5.0596  -19.5334   22.3044 C.ar    1  UNL1        0.0576
@<TRIPOS>BOND
     1    10    11    1
     2    11    12   ar
     3    12    13   ar
     4    13     8    1
     5     8     1    1
     6     1     2   ar
     7     2     3   ar
     8     3     4    1
     9     3     5   ar
    10     5    17    1
    11    17    18    3
    12     5     6   ar
    13     6    19    1
    14    19    21    1
    15    21    22    1
    16    22    23    1
    17    23    24    1
    18    24    25   ar
    19    25    26   ar
    20    26    27   ar
    21    27    28   ar
    22    28    29   ar
    23     6     7   ar
    24    13    14   ar
    25    14    15   ar
    26    15    11   ar
    27     7     1   ar
    28    29    24   ar
    29     8     9    1
    30    19    20    1
    31    15    16    1
@<TRIPOS>MOLECULE
*****
 29 31 0 0 0
SMALL
GASTEIGER

@<TRIPOS>ATOM
      1 C          -6.3171  -19.3967   21.2300 C.ar    1  UNL1        0.1344
      2 C          -7.1028  -19.9268   20.0674 C.ar    1  UNL1        0.0310
      3 C          -8.5401  -19.5352   19.8927 C.ar    1  UNL1       -0.0067
      4 C          -9.3259  -20.0653   18.7300 C.3     1  UNL1        0.0319
      5 C          -9.1918  -18.6136   20.8805 C.ar    1  UNL1        0.0959
      6 C          -8.4061  -18.0835   22.0431 C.ar    1  UNL1        0.1393
      7 N          -6.9688  -18.4751   22.2178 N.ar    1  UNL1       -0.2154
      8 N          -4.8796  -19.7883   21.4048 N.pl3   1  UNL1       -0.2819
      9 H          -4.6389  -20.5131   22.0261 H       1  UNL1        0.1551
     10 C          -0.1704  -17.9683   19.8586 C.3     1  UNL1        0.0515
     11 C          -1.6444  -18.2390   19.9223 C.ar    1  UNL1        0.0548
     12 C          -2.3431  -19.0777   20.9511 C.ar    1  UNL1        0.0502
     13 C          -3.8090  -19.0756   20.6330 C.ar    1  UNL1        0.1539
     14 N          -4.0162  -18.2356   19.4076 N.ar    1  UNL1       -0.1577
     15 N          -2.6784  -17.7186   18.9683 N.ar    1  UNL1       -0.2786
     16 H          -2.5088  -17.1394   18.1905 H       1  UNL1        0.1886
     17 C         -10.6293  -18.2220   20.7057 C.1     1  UNL1        0.1029
     18 N         -12.0667  -17.8305   20.5310 N.1     1  UNL1       -0.1907
     19 N          -9.0578  -17.1618   23.0309 N.pl3   1  UNL1       -0.3145
     20 H         -10.0344  -17.1830   23.1539 H       1  UNL1        0.1483
     21 C          -8.2217  -16.2079   23.8313 C.3     1  UNL1        0.1362
     22 C          -7.5415  -15.0557   23.1531 C.3     1  UNL1        0.2265
     23 O          -6.0569  -14.8815   23.2792 O.3     1  UNL1       -0.4735
     24 C          -5.2615  -15.8217   24.1356 C.ar    1  UNL1        0.1417
     25 C          -4.3702  -16.8455   23.4972 C.ar    1  UNL1        0.0576
     26 C          -3.5747  -17.7857   24.3536 C.ar    1  UNL1        0.1020
     27 N          -3.6706  -17.7021   25.8482 N.ar    1  UNL1       -0.2421
     28 C          -4.5619  -16.6783   26.4865 C.ar    1  UNL1        0.1020
     29 C          -5.3574  -15.7381   25.6301 C.ar    1  UNL1        0.0576
@<TRIPOS>BOND
     1    10    11    1
     2    11    12   ar
     3    12    13   ar
     4    13     8    1
     5     8     1    1
     6     1     2   ar
     7     2     3   ar
     8     3     4    1
     9     3     5   ar
    10     5    17    1
    11    17    18    3
    12     5     6   ar
    13     6    19    1
    14    19    21    1
    15    21    22    1
    16    22    23    1
    17    23    24    1
    18    24    25   ar
    19    25    26   ar
    20    26    27   ar
    21    27    28   ar
    22    28    29   ar
    23     6     7   ar
    24    13    14   ar
    25    14    15   ar
    26    15    11   ar
    27     7     1   ar
    28    29    24   ar
    29     8     9    1
    30    19    20    1
    31    15    16    1
