@<TRIPOS>MOLECULE
*****
 20 22 0 0 0
SMALL
GASTEIGER

@<TRIPOS>ATOM
      1 C          -7.7592  -18.7901   21.1176 C.2     1  UNL1        0.1818
      2 O          -8.6378  -19.0252   19.9249 O.2     1  UNL1       -0.2903
      3 C          -6.3110  -19.1782   21.0706 C.2     1  UNL1        0.0183
      4 C          -5.8700  -20.3275   20.2136 C.2     1  UNL1        0.0005
      5 C          -4.4218  -20.7157   20.1666 C.2     1  UNL1        0.0204
      6 C          -3.4147  -19.9544   20.9766 C.2     1  UNL1        0.1007
      7 N          -1.9302  -20.1047   21.1307 N.2     1  UNL1       -0.1482
      8 N          -1.4538  -19.0483   22.0830 N.2     1  UNL1       -0.1467
      9 C          -2.6438  -18.2450   22.5174 C.2     1  UNL1        0.1197
     10 C          -3.8557  -18.8051   21.8336 C.2     1  UNL1        0.0226
     11 C          -5.3039  -18.4170   21.8806 C.3     1  UNL1        0.0588
     12 C          -8.3286  -18.1668   22.3575 C.3     1  UNL1        0.0977
     13 C          -8.9490  -17.8405   23.6837 C.3     1  UNL1        0.0233
     14 C          -8.9700  -16.3480   23.8309 C.3     1  UNL1        0.0189
     15 C          -8.3627  -15.7517   22.5958 C.3     1  UNL1        0.0689
     16 N          -7.9663  -16.8757   21.6851 N.3     1  UNL1       -0.2938
     17 H          -6.9613  -16.8447   21.5141 H       1  UNL1        0.1235
     18 C          -8.5719  -19.5881   22.7706 C.3     1  UNL1        0.0219
     19 C         -11.0267  -20.1820   22.1611 C.3     1  UNL1        0.0001
     20 C          -9.9453  -20.0231   23.1884 C.3     1  UNL1        0.0018
@<TRIPOS>BOND
     1    19    20    1
     2    20    18    1
     3    18    12    1
     4    12     1    1
     5     1     2    2
     6     1     3    1
     7     3     4    2
     8     4     5    1
     9     5     6    2
    10     6     7    1
    11     7     8    2
    12     8     9    1
    13     9    10    2
    14    10    11    1
    15    12    13    1
    16    13    14    1
    17    14    15    1
    18    15    16    1
    19    16    12    1
    20    11     3    1
    21    10     6    1
    22    16    17    1
@<TRIPOS>MOLECULE
*****
 20 22 0 0 0
SMALL
GASTEIGER

@<TRIPOS>ATOM
      1 C          -7.9641  -18.3158   22.2491 C.2     1  UNL1        0.1818
      2 O          -7.9477  -17.0195   23.0034 O.2     1  UNL1       -0.2903
      3 C          -6.6768  -18.9283   21.7823 C.2     1  UNL1        0.0183
      4 C          -6.6909  -19.9789   20.7119 C.2     1  UNL1        0.0005
      5 C          -5.4036  -20.5914   20.2451 C.2     1  UNL1        0.0204
      6 C          -4.1023  -20.1532   20.8489 C.2     1  UNL1        0.1007
      7 N          -2.6852  -20.5736   20.5933 N.2     1  UNL1       -0.1482
      8 N          -1.7954  -19.7828   21.5059 N.2     1  UNL1       -0.1467
      9 C          -2.6625  -18.8737   22.3254 C.2     1  UNL1        0.1197
     10 C          -4.0882  -19.1026   21.9194 C.2     1  UNL1        0.0226
     11 C          -5.3755  -18.4902   22.3861 C.3     1  UNL1        0.0588
     12 C          -9.2677  -18.9998   21.9616 C.3     1  UNL1        0.0977
     13 C         -10.4960  -19.8600   21.9222 C.3     1  UNL1        0.0233
     14 C         -11.3430  -19.4060   20.7706 C.3     1  UNL1        0.0189
     15 C         -10.6383  -18.2653   20.0982 C.3     1  UNL1        0.0689
     16 N          -9.3557  -18.0142   20.8342 N.3     1  UNL1       -0.2938
     17 H          -9.3492  -17.0637   21.2041 H       1  UNL1        0.1235
     18 C          -8.9072  -19.8424   23.1490 C.3     1  UNL1        0.0219
     19 C          -9.9539  -18.7831   25.2779 C.3     1  UNL1        0.0001
     20 C          -9.8429  -19.9304   24.3181 C.3     1  UNL1        0.0018
@<TRIPOS>BOND
     1    19    20    1
     2    20    18    1
     3    18    12    1
     4    12     1    1
     5     1     2    2
     6     1     3    1
     7     3     4    2
     8     4     5    1
     9     5     6    2
    10     6     7    1
    11     7     8    2
    12     8     9    1
    13     9    10    2
    14    10    11    1
    15    12    13    1
    16    13    14    1
    17    14    15    1
    18    15    16    1
    19    16    12    1
    20    11     3    1
    21    10     6    1
    22    16    17    1
@<TRIPOS>MOLECULE
*****
 20 22 0 0 0
SMALL
GASTEIGER

@<TRIPOS>ATOM
      1 C          -9.4819  -19.2778   20.2356 C.2     1  UNL1        0.1818
      2 O          -9.7909  -20.0040   18.9601 O.2     1  UNL1       -0.2903
      3 C          -8.0696  -19.2092   20.7365 C.2     1  UNL1        0.0183
      4 C          -7.7289  -18.3276   21.9012 C.2     1  UNL1        0.0005
      5 C          -6.3166  -18.2590   22.4021 C.2     1  UNL1        0.0204
      6 C          -5.2451  -19.0721   21.7381 C.2     1  UNL1        0.1007
      7 N          -3.7760  -19.2084   22.0085 N.2     1  UNL1       -0.1482
      8 N          -3.2088  -20.1743   21.0108 N.2     1  UNL1       -0.1467
      9 C          -4.3274  -20.6349   20.1239 C.2     1  UNL1        0.1197
     10 C          -5.5859  -19.9537   20.5733 C.2     1  UNL1        0.0226
     11 C          -6.9981  -20.0222   20.0725 C.3     1  UNL1        0.0588
     12 C         -10.5852  -18.6201   21.0103 C.3     1  UNL1        0.0977
     13 C         -11.7009  -18.2365   21.9368 C.3     1  UNL1        0.0233
     14 C         -12.1004  -16.8254   21.6219 C.3     1  UNL1        0.0189
     15 C         -11.2317  -16.3369   20.5009 C.3     1  UNL1        0.0689
     16 N         -10.2952  -17.4460   20.1229 N.3     1  UNL1       -0.2938
     17 H          -9.3299  -17.1435   20.2534 H       1  UNL1        0.1235
     18 C         -10.6445  -19.9316   21.7358 C.3     1  UNL1        0.0219
     19 C          -9.6195  -20.4636   24.0631 C.3     1  UNL1        0.0001
     20 C         -10.7602  -19.9570   23.2311 C.3     1  UNL1        0.0018
@<TRIPOS>BOND
     1    19    20    1
     2    20    18    1
     3    18    12    1
     4    12     1    1
     5     1     2    2
     6     1     3    1
     7     3     4    2
     8     4     5    1
     9     5     6    2
    10     6     7    1
    11     7     8    2
    12     8     9    1
    13     9    10    2
    14    10    11    1
    15    12    13    1
    16    13    14    1
    17    14    15    1
    18    15    16    1
    19    16    12    1
    20    11     3    1
    21    10     6    1
    22    16    17    1
@<TRIPOS>MOLECULE
*****
 20 22 0 0 0
SMALL
GASTEIGER

@<TRIPOS>ATOM
      1 C          -9.0265  -17.7651   21.8046 C.2     1  UNL1        0.1818
      2 O          -8.1239  -18.1301   20.6636 O.2     1  UNL1       -0.2903
      3 C          -8.4654  -17.0800   23.0154 C.2     1  UNL1        0.0183
      4 C          -9.3287  -16.8649   24.2229 C.2     1  UNL1        0.0005
      5 C          -8.7676  -16.1798   25.4337 C.2     1  UNL1        0.0204
      6 C          -7.3432  -15.7098   25.4367 C.2     1  UNL1        0.1007
      7 N          -6.5197  -15.0091   26.4764 N.2     1  UNL1       -0.1482
      8 N          -5.1475  -14.7911   25.9113 N.2     1  UNL1       -0.1467
      9 C          -5.1228  -15.3572   24.5224 C.2     1  UNL1        0.1197
     10 C          -6.4798  -15.9249   24.2291 C.2     1  UNL1        0.0226
     11 C          -7.0410  -16.6100   23.0184 C.3     1  UNL1        0.0588
     12 C         -10.4903  -18.0852   21.7350 C.3     1  UNL1        0.0977
     13 C         -11.8601  -18.6965   21.7336 C.3     1  UNL1        0.0233
     14 C         -12.8504  -17.6143   21.4207 C.3     1  UNL1        0.0189
     15 C         -12.0926  -16.3341   21.2285 C.3     1  UNL1        0.0689
     16 N         -10.6340  -16.6251   21.4228 N.3     1  UNL1       -0.2938
     17 H         -10.2700  -16.0683   22.1960 H       1  UNL1        0.1235
     18 C         -10.0405  -19.4784   22.0617 C.3     1  UNL1        0.0219
     19 C          -9.7270  -20.5205   24.4209 C.3     1  UNL1        0.0001
     20 C         -10.6091  -20.1899   23.2536 C.3     1  UNL1        0.0018
@<TRIPOS>BOND
     1    19    20    1
     2    20    18    1
     3    18    12    1
     4    12     1    1
     5     1     2    2
     6     1     3    1
     7     3     4    2
     8     4     5    1
     9     5     6    2
    10     6     7    1
    11     7     8    2
    12     8     9    1
    13     9    10    2
    14    10    11    1
    15    12    13    1
    16    13    14    1
    17    14    15    1
    18    15    16    1
    19    16    12    1
    20    11     3    1
    21    10     6    1
    22    16    17    1
@<TRIPOS>MOLECULE
*****
 20 22 0 0 0
SMALL
GASTEIGER

@<TRIPOS>ATOM
      1 C          -9.6588  -17.3122   22.3349 C.2     1  UNL1        0.1818
      2 O          -9.2063  -17.8744   21.0200 O.2     1  UNL1       -0.2903
      3 C          -8.6519  -16.7673   23.3040 C.2     1  UNL1        0.0183
      4 C          -7.2255  -16.5821   22.8788 C.2     1  UNL1        0.0005
      5 C          -6.2185  -16.0372   23.8479 C.2     1  UNL1        0.0204
      6 C          -6.6381  -15.6775   25.2424 C.2     1  UNL1        0.1007
      7 N          -5.8748  -15.1235   26.4088 N.2     1  UNL1       -0.1482
      8 N          -6.8296  -14.9663   27.5549 N.2     1  UNL1       -0.1467
      9 C          -8.1830  -15.4232   27.0969 C.2     1  UNL1        0.1197
     10 C          -8.0646  -15.8627   25.6677 C.2     1  UNL1        0.0226
     11 C          -9.0715  -16.4076   24.6985 C.3     1  UNL1        0.0588
     12 C         -11.1183  -17.2949   22.6808 C.3     1  UNL1        0.0977
     13 C         -12.5887  -17.0365   22.8267 C.3     1  UNL1        0.0233
     14 C         -13.1402  -18.0341   23.8016 C.3     1  UNL1        0.0189
     15 C         -12.0107  -18.9092   24.2582 C.3     1  UNL1        0.0689
     16 N         -10.7611  -18.4524   23.5656 N.3     1  UNL1       -0.2938
     17 H         -10.3792  -19.2129   23.0033 H       1  UNL1        0.1235
     18 C         -11.1704  -16.1411   21.7238 C.3     1  UNL1        0.0219
     19 C         -11.6920  -15.6922   19.2185 C.3     1  UNL1        0.0001
     20 C         -12.1318  -16.1643   20.5726 C.3     1  UNL1        0.0018
@<TRIPOS>BOND
     1    19    20    1
     2    20    18    1
     3    18    12    1
     4    12     1    1
     5     1     2    2
     6     1     3    1
     7     3     4    2
     8     4     5    1
     9     5     6    2
    10     6     7    1
    11     7     8    2
    12     8     9    1
    13     9    10    2
    14    10    11    1
    15    12    13    1
    16    13    14    1
    17    14    15    1
    18    15    16    1
    19    16    12    1
    20    11     3    1
    21    10     6    1
    22    16    17    1
@<TRIPOS>MOLECULE
*****
 20 22 0 0 0
SMALL
GASTEIGER

@<TRIPOS>ATOM
      1 C         -10.2373  -18.6622   22.4498 C.2     1  UNL1        0.1818
      2 O         -10.5420  -20.1132   22.6770 O.2     1  UNL1       -0.2903
      3 C          -8.8475  -18.1437   22.6729 C.2     1  UNL1        0.0183
      4 C          -7.6681  -18.9128   22.1561 C.2     1  UNL1        0.0005
      5 C          -6.2783  -18.3943   22.3791 C.2     1  UNL1        0.0204
      6 C          -6.0681  -17.1066   23.1191 C.2     1  UNL1        0.1007
      7 N          -4.8251  -16.3525   23.4881 N.2     1  UNL1       -0.1482
      8 N          -5.2363  -15.1172   24.2331 N.2     1  UNL1       -0.1467
      9 C          -6.7335  -15.1079   24.3245 C.2     1  UNL1        0.1197
     10 C          -7.2476  -16.3374   23.6359 C.2     1  UNL1        0.0226
     11 C          -8.6373  -16.8559   23.4129 C.3     1  UNL1        0.0588
     12 C         -11.3224  -17.7295   21.9996 C.3     1  UNL1        0.0977
     13 C         -12.5341  -16.8618   21.8287 C.3     1  UNL1        0.0233
     14 C         -12.4509  -16.2099   20.4805 C.3     1  UNL1        0.0189
     15 C         -11.1879  -16.6746   19.8180 C.3     1  UNL1        0.0689
     16 N         -10.4905  -17.6138   20.7568 N.3     1  UNL1       -0.2938
     17 H          -9.5677  -17.2475   20.9909 H       1  UNL1        0.1235
     18 C         -11.9276  -18.0403   23.3365 C.3     1  UNL1        0.0219
     19 C         -14.0369  -18.3545   24.8204 C.3     1  UNL1        0.0001
     20 C         -13.4030  -17.8733   23.5489 C.3     1  UNL1        0.0018
@<TRIPOS>BOND
     1    19    20    1
     2    20    18    1
     3    18    12    1
     4    12     1    1
     5     1     2    2
     6     1     3    1
     7     3     4    2
     8     4     5    1
     9     5     6    2
    10     6     7    1
    11     7     8    2
    12     8     9    1
    13     9    10    2
    14    10    11    1
    15    12    13    1
    16    13    14    1
    17    14    15    1
    18    15    16    1
    19    16    12    1
    20    11     3    1
    21    10     6    1
    22    16    17    1
@<TRIPOS>MOLECULE
*****
 20 22 0 0 0
SMALL
GASTEIGER

@<TRIPOS>ATOM
      1 C         -10.2029  -18.4476   23.3634 C.2     1  UNL1        0.1818
      2 O         -10.6112  -19.6765   24.1201 O.2     1  UNL1       -0.2903
      3 C          -9.1468  -17.5398   23.9208 C.2     1  UNL1        0.0183
      4 C          -8.0837  -16.9843   23.0203 C.2     1  UNL1        0.0005
      5 C          -7.0275  -16.0765   23.5778 C.2     1  UNL1        0.0204
      6 C          -7.0347  -15.7244   25.0358 C.2     1  UNL1        0.1007
      7 N          -6.1302  -14.8609   25.8642 N.2     1  UNL1       -0.1482
      8 N          -6.6343  -14.8828   27.2767 N.2     1  UNL1       -0.1467
      9 C          -7.8504  -15.7598   27.3214 C.2     1  UNL1        0.1197
     10 C          -8.0979  -16.2799   25.9364 C.2     1  UNL1        0.0226
     11 C          -9.1539  -17.1877   25.3789 C.3     1  UNL1        0.0588
     12 C         -10.8506  -18.1262   22.0492 C.3     1  UNL1        0.0977
     13 C         -11.6876  -17.6258   20.9093 C.3     1  UNL1        0.0233
     14 C         -11.1639  -18.2402   19.6451 C.3     1  UNL1        0.0189
     15 C         -10.0033  -19.1202   20.0036 C.3     1  UNL1        0.0689
     16 N          -9.8096  -19.0498   21.4893 N.3     1  UNL1       -0.2938
     17 H          -8.8786  -18.6906   21.7004 H       1  UNL1        0.1235
     18 C         -11.7561  -17.2698   22.8838 C.3     1  UNL1        0.0219
     19 C         -13.8409  -18.0224   24.2392 C.3     1  UNL1        0.0001
     20 C         -13.2241  -17.5714   22.9485 C.3     1  UNL1        0.0018
@<TRIPOS>BOND
     1    19    20    1
     2    20    18    1
     3    18    12    1
     4    12     1    1
     5     1     2    2
     6     1     3    1
     7     3     4    2
     8     4     5    1
     9     5     6    2
    10     6     7    1
    11     7     8    2
    12     8     9    1
    13     9    10    2
    14    10    11    1
    15    12    13    1
    16    13    14    1
    17    14    15    1
    18    15    16    1
    19    16    12    1
    20    11     3    1
    21    10     6    1
    22    16    17    1
@<TRIPOS>MOLECULE
*****
 20 22 0 0 0
SMALL
GASTEIGER

@<TRIPOS>ATOM
      1 C          -8.1126  -18.2322   22.0447 C.2     1  UNL1        0.1818
      2 O          -8.7520  -17.9087   20.7270 O.2     1  UNL1       -0.2903
      3 C          -6.6210  -18.3565   22.1442 C.2     1  UNL1        0.0183
      4 C          -5.8636  -17.5247   23.1363 C.2     1  UNL1        0.0005
      5 C          -4.3721  -17.6490   23.2358 C.2     1  UNL1        0.0204
      6 C          -3.6380  -18.6052   22.3431 C.2     1  UNL1        0.1007
      7 N          -2.1819  -18.9414   22.2142 N.2     1  UNL1       -0.1482
      8 N          -2.0394  -19.9810   21.1423 N.2     1  UNL1       -0.1467
      9 C          -3.4074  -20.2874   20.6088 C.2     1  UNL1        0.1197
     10 C          -4.3955  -19.4370   21.3510 C.2     1  UNL1        0.0226
     11 C          -5.8870  -19.3127   21.2515 C.3     1  UNL1        0.0588
     12 C          -8.9647  -18.4315   23.2630 C.3     1  UNL1        0.0977
     13 C          -9.8366  -18.3179   24.4783 C.3     1  UNL1        0.0233
     14 C         -10.1024  -19.7028   24.9892 C.3     1  UNL1        0.0189
     15 C          -9.3948  -20.6725   24.0897 C.3     1  UNL1        0.0689
     16 N          -8.6916  -19.8868   23.0229 N.3     1  UNL1       -0.2938
     17 H          -9.0433  -20.1580   22.1046 H       1  UNL1        0.1235
     18 C          -9.0596  -16.9346   23.2485 C.3     1  UNL1        0.0219
     19 C          -8.0667  -15.1187   24.8190 C.3     1  UNL1        0.0001
     20 C          -9.0967  -16.1728   24.5401 C.3     1  UNL1        0.0018
@<TRIPOS>BOND
     1    19    20    1
     2    20    18    1
     3    18    12    1
     4    12     1    1
     5     1     2    2
     6     1     3    1
     7     3     4    2
     8     4     5    1
     9     5     6    2
    10     6     7    1
    11     7     8    2
    12     8     9    1
    13     9    10    2
    14    10    11    1
    15    12    13    1
    16    13    14    1
    17    14    15    1
    18    15    16    1
    19    16    12    1
    20    11     3    1
    21    10     6    1
    22    16    17    1
@<TRIPOS>MOLECULE
*****
 20 22 0 0 0
SMALL
GASTEIGER

@<TRIPOS>ATOM
      1 C          -6.8080  -18.6349   21.3722 C.2     1  UNL1        0.1818
      2 O          -6.7562  -18.5863   19.8739 O.2     1  UNL1       -0.2903
      3 C          -8.1293  -18.7440   22.0738 C.2     1  UNL1        0.0183
      4 C          -8.3881  -19.8849   23.0126 C.2     1  UNL1        0.0005
      5 C          -9.7094  -19.9940   23.7142 C.2     1  UNL1        0.0204
      6 C         -10.7719  -18.9621   23.4770 C.2     1  UNL1        0.1007
      7 N         -12.1608  -18.8080   24.0222 N.2     1  UNL1       -0.1482
      8 N         -12.7604  -17.5718   23.4203 N.2     1  UNL1       -0.1467
      9 C         -11.7421  -16.9619   22.5032 C.2     1  UNL1        0.1197
     10 C         -10.5132  -17.8212   22.5383 C.2     1  UNL1        0.0226
     11 C          -9.1919  -17.7121   21.8367 C.3     1  UNL1        0.0588
     12 C          -5.5386  -18.5743   22.1689 C.3     1  UNL1        0.0977
     13 C          -4.2019  -18.7817   22.8175 C.3     1  UNL1        0.0233
     14 C          -3.9624  -17.6405   23.7609 C.3     1  UNL1        0.0189
     15 C          -5.1509  -16.7277   23.6955 C.3     1  UNL1        0.0689
     16 N          -6.1251  -17.3048   22.7116 N.3     1  UNL1       -0.2938
     17 H          -6.2820  -16.6433   21.9512 H       1  UNL1        0.1235
     18 C          -5.2174  -19.8564   21.4597 C.3     1  UNL1        0.0219
     19 C          -3.5367  -19.6595   19.4883 C.3     1  UNL1        0.0001
     20 C          -3.8455  -20.0780   20.8953 C.3     1  UNL1        0.0018
@<TRIPOS>BOND
     1    19    20    1
     2    20    18    1
     3    18    12    1
     4    12     1    1
     5     1     2    2
     6     1     3    1
     7     3     4    2
     8     4     5    1
     9     5     6    2
    10     6     7    1
    11     7     8    2
    12     8     9    1
    13     9    10    2
    14    10    11    1
    15    12    13    1
    16    13    14    1
    17    14    15    1
    18    15    16    1
    19    16    12    1
    20    11     3    1
    21    10     6    1
    22    16    17    1
