@<TRIPOS>MOLECULE
*****
 32 35 0 0 0
SMALL
GASTEIGER

@<TRIPOS>ATOM
      1 N          -5.3993  -18.9923   20.5834 N.am    1  UNL1       -0.2683
      2 C          -6.6936  -18.5187   21.1757 C.2     1  UNL1        0.3047
      3 O          -6.6904  -17.7316   22.4526 O.2     1  UNL1       -0.2525
      4 N          -7.9909  -18.8322   20.4911 N.am    1  UNL1       -0.2863
      5 H          -5.4014  -19.5089   19.7454 H       1  UNL1        0.1564
      6 H          -7.9929  -19.3489   19.6531 H       1  UNL1        0.1512
      7 C          -1.8874  -17.7719   16.6558 C.3     1  UNL1        0.0521
      8 C          -1.7924  -17.8419   18.1511 C.ar    1  UNL1        0.0594
      9 C          -2.9947  -18.2254   18.9619 C.ar    1  UNL1        0.0160
     10 C          -2.8997  -18.2953   20.4572 C.ar    1  UNL1        0.0162
     11 C          -4.1021  -18.6788   21.2680 C.ar    1  UNL1        0.0516
     12 C          -4.0071  -18.7488   22.7634 C.ar    1  UNL1        0.0147
     13 C          -2.7097  -18.4352   23.4479 C.ar    1  UNL1        0.0013
     14 C          -1.5074  -18.0517   22.6372 C.ar    1  UNL1        0.0016
     15 C          -1.6024  -17.9818   21.1418 C.ar    1  UNL1        0.0204
     16 C          -0.4001  -17.5983   20.3310 C.ar    1  UNL1        0.0984
     17 N          -0.4951  -17.5284   18.8357 N.ar    1  UNL1       -0.2481
     18 C          -9.2850  -18.3586   21.0834 C.3     1  UNL1        0.1022
     19 C         -10.0846  -17.2975   20.3873 C.3     1  UNL1        0.0700
     20 C         -11.3788  -16.8239   20.9796 C.3     1  UNL1        0.2001
     21 O         -11.8733  -17.4115   22.2681 O.3     1  UNL1       -0.4749
     22 C         -11.0737  -18.4726   22.9643 C.ar    1  UNL1        0.1632
     23 C         -11.5682  -19.0601   24.2528 C.ar    1  UNL1        0.1735
     24 F         -12.8624  -18.5865   24.8452 F       1  UNL1       -0.2010
     25 C         -10.7686  -20.1212   24.9490 C.ar    1  UNL1        0.0328
     26 C          -9.4745  -20.5948   24.3567 C.ar    1  UNL1        0.0022
     27 C          -8.9800  -20.0073   23.0682 C.ar    1  UNL1        0.0005
     28 C          -9.7796  -18.9462   22.3720 C.ar    1  UNL1        0.0319
     29 C         -12.6551  -16.0533   21.1443 C.3     1  UNL1        0.2357
     30 F         -13.0746  -15.5785   22.5039 F       1  UNL1       -0.2303
     31 C         -11.3276  -15.9688   19.7483 C.3     1  UNL1        0.2357
     32 F         -12.6000  -15.4967   19.1096 F       1  UNL1       -0.2303
@<TRIPOS>BOND
     1     7     8    1
     2     8     9   ar
     3     9    10   ar
     4    10    11   ar
     5    11     1    1
     6     1     2   am
     7     2     3    2
     8     2     4   am
     9    18     4    1
    10    18    19    1
    11    19    20    1
    12    20    29    1
    13    29    30    1
    14    20    31    1
    15    31    32    1
    16    20    21    1
    17    21    22    1
    18    22    23   ar
    19    23    24    1
    20    23    25   ar
    21    25    26   ar
    22    26    27   ar
    23    27    28   ar
    24    11    12   ar
    25    12    13   ar
    26    13    14   ar
    27    14    15   ar
    28    15    16   ar
    29    16    17   ar
    30    17     8   ar
    31    15    10   ar
    32    28    18    1
    33    28    22   ar
    34     1     5    1
    35     4     6    1
@<TRIPOS>MOLECULE
*****
 32 35 0 0 0
SMALL
GASTEIGER

@<TRIPOS>ATOM
      1 N          -0.5700    3.4888   21.1627 N.am    1  UNL1       -0.2683
      2 C           0.1772    2.2191   20.8803 C.2     1  UNL1        0.3047
      3 O          -0.5756    0.9529   20.5979 O.2     1  UNL1       -0.2525
      4 N           1.6772    2.2158   20.8803 N.am    1  UNL1       -0.2863
      5 H          -0.0759    4.3199   21.3480 H       1  UNL1        0.1564
      6 H           2.1713    3.0469   21.0656 H       1  UNL1        0.1512
      7 C          -2.0696    3.6015   26.3577 C.3     1  UNL1        0.0521
      8 C          -2.8197    3.5759   25.0590 C.ar    1  UNL1        0.0594
      9 C          -2.0698    3.5468   23.7602 C.ar    1  UNL1        0.0160
     10 C          -2.8199    3.5212   22.4615 C.ar    1  UNL1        0.0162
     11 C          -2.0699    3.4922   21.1627 C.ar    1  UNL1        0.0516
     12 C          -2.8200    3.4666   19.8639 C.ar    1  UNL1        0.0147
     13 C          -4.3201    3.4699   19.8640 C.ar    1  UNL1        0.0013
     14 C          -5.0700    3.4989   21.1627 C.ar    1  UNL1        0.0016
     15 C          -4.3199    3.5246   22.4615 C.ar    1  UNL1        0.0204
     16 C          -5.0698    3.5536   23.7602 C.ar    1  UNL1        0.0984
     17 N          -4.3197    3.5792   25.0590 N.ar    1  UNL1       -0.2481
     18 C           2.4243    0.9461   20.5979 C.3     1  UNL1        0.1022
     19 C           2.7319    0.5558   19.1826 C.3     1  UNL1        0.0700
     20 C           3.4791   -0.7139   18.9003 C.3     1  UNL1        0.2001
     21 O           3.9185   -1.5932   20.0332 O.3     1  UNL1       -0.4749
     22 C           3.6109   -1.2030   21.4485 C.ar    1  UNL1        0.1632
     23 C           4.0504   -2.0823   22.5814 C.ar    1  UNL1        0.1735
     24 F           4.7975   -3.3520   22.2991 F       1  UNL1       -0.2010
     25 C           3.7427   -1.6920   23.9967 C.ar    1  UNL1        0.0328
     26 C           2.9956   -0.4224   24.2791 C.ar    1  UNL1        0.0022
     27 C           2.5561    0.4570   23.1462 C.ar    1  UNL1        0.0005
     28 C           2.8638    0.0667   21.7309 C.ar    1  UNL1        0.0319
     29 C           4.1551   -1.8104   18.1317 C.3     1  UNL1        0.2357
     30 F           3.9581   -3.2413   18.5361 F       1  UNL1       -0.2303
     31 C           3.2744   -0.2153   17.5004 C.3     1  UNL1        0.2357
     32 F           3.5329   -1.1240   16.3354 F       1  UNL1       -0.2303
@<TRIPOS>BOND
     1     7     8    1
     2     8     9   ar
     3     9    10   ar
     4    10    11   ar
     5    11     1    1
     6     1     2   am
     7     2     3    2
     8     2     4   am
     9    18     4    1
    10    18    19    1
    11    19    20    1
    12    20    29    1
    13    29    30    1
    14    20    31    1
    15    31    32    1
    16    20    21    1
    17    21    22    1
    18    22    23   ar
    19    23    24    1
    20    23    25   ar
    21    25    26   ar
    22    26    27   ar
    23    27    28   ar
    24    11    12   ar
    25    12    13   ar
    26    13    14   ar
    27    14    15   ar
    28    15    16   ar
    29    16    17   ar
    30    17     8   ar
    31    15    10   ar
    32    28    18    1
    33    28    22   ar
    34     1     5    1
    35     4     6    1
@<TRIPOS>MOLECULE
*****
 32 35 0 0 0
SMALL
GASTEIGER

@<TRIPOS>ATOM
      1 N          -8.5076  -17.2034   23.7021 N.am    1  UNL1       -0.2683
      2 C          -7.5504  -17.9570   22.8269 C.2     1  UNL1        0.3047
      3 O          -8.0428  -19.0950   21.9828 O.2     1  UNL1       -0.2525
      4 N          -6.1008  -17.5727   22.7959 N.am    1  UNL1       -0.2863
      5 H          -8.1844  -16.4565   24.2562 H       1  UNL1        0.1564
      6 H          -5.7776  -16.8258   23.3499 H       1  UNL1        0.1512
      7 C         -10.6929  -15.1797   19.1878 C.3     1  UNL1        0.0521
      8 C         -11.2337  -15.9739   20.3396 C.ar    1  UNL1        0.0594
      9 C         -10.3251  -16.3837   21.4605 C.ar    1  UNL1        0.0160
     10 C         -10.8659  -17.1779   22.6123 C.ar    1  UNL1        0.0162
     11 C          -9.9571  -17.5878   23.7331 C.ar    1  UNL1        0.0516
     12 C         -10.4980  -18.3819   24.8850 C.ar    1  UNL1        0.0147
     13 C         -11.9477  -18.7663   24.9160 C.ar    1  UNL1        0.0013
     14 C         -12.8564  -18.3564   23.7952 C.ar    1  UNL1        0.0016
     15 C         -12.3155  -17.5623   22.6433 C.ar    1  UNL1        0.0204
     16 C         -13.2242  -17.1524   21.5225 C.ar    1  UNL1        0.0984
     17 N         -12.6833  -16.3582   20.3707 N.ar    1  UNL1       -0.2481
     18 C          -5.1437  -18.3263   21.9207 C.3     1  UNL1        0.1022
     19 C          -5.5503  -19.6401   21.3219 C.3     1  UNL1        0.0700
     20 C          -4.5931  -20.3937   20.4467 C.3     1  UNL1        0.2001
     21 O          -3.2294  -19.8335   20.1704 O.3     1  UNL1       -0.4749
     22 C          -2.8228  -18.5197   20.7692 C.ar    1  UNL1        0.1632
     23 C          -1.4591  -17.9595   20.4928 C.ar    1  UNL1        0.1735
     24 F          -0.5019  -18.7131   19.6176 F       1  UNL1       -0.2010
     25 C          -1.0525  -16.6457   21.0916 C.ar    1  UNL1        0.0328
     26 C          -2.0096  -15.8921   21.9667 C.ar    1  UNL1        0.0022
     27 C          -3.3733  -16.4523   22.2431 C.ar    1  UNL1        0.0005
     28 C          -3.7799  -17.7661   21.6443 C.ar    1  UNL1        0.0319
     29 C          -4.0433  -21.4720   19.5607 C.3     1  UNL1        0.2357
     30 F          -3.2772  -21.1082   18.3235 F       1  UNL1       -0.2303
     31 C          -5.7659  -21.3284   20.4154 C.3     1  UNL1        0.2357
     32 F          -7.0027  -20.9546   19.6535 F       1  UNL1       -0.2303
@<TRIPOS>BOND
     1     7     8    1
     2     8     9   ar
     3     9    10   ar
     4    10    11   ar
     5    11     1    1
     6     1     2   am
     7     2     3    2
     8     2     4   am
     9    18     4    1
    10    18    19    1
    11    19    20    1
    12    20    29    1
    13    29    30    1
    14    20    31    1
    15    31    32    1
    16    20    21    1
    17    21    22    1
    18    22    23   ar
    19    23    24    1
    20    23    25   ar
    21    25    26   ar
    22    26    27   ar
    23    27    28   ar
    24    11    12   ar
    25    12    13   ar
    26    13    14   ar
    27    14    15   ar
    28    15    16   ar
    29    16    17   ar
    30    17     8   ar
    31    15    10   ar
    32    28    18    1
    33    28    22   ar
    34     1     5    1
    35     4     6    1
@<TRIPOS>MOLECULE
*****
 32 35 0 0 0
SMALL
GASTEIGER

@<TRIPOS>ATOM
      1 N           1.7390    2.3417   20.4180 N.am    1  UNL1       -0.2683
      2 C           0.2744    2.3655   20.7413 C.2     1  UNL1        0.3047
      3 O          -0.5646    1.1438   20.5099 O.2     1  UNL1       -0.2525
      4 N          -0.3512    3.6109   21.2959 N.am    1  UNL1       -0.2863
      5 H           2.2897    3.1436   20.5698 H       1  UNL1        0.1564
      6 H           0.1995    4.4128   21.4477 H       1  UNL1        0.1512
      7 C           3.2057   -0.6310   24.6913 C.3     1  UNL1        0.0521
      8 C           3.3082   -0.8219   23.2071 C.ar    1  UNL1        0.0594
      9 C           2.7851    0.2326   22.2774 C.ar    1  UNL1        0.0160
     10 C           2.8876    0.0417   20.7931 C.ar    1  UNL1        0.0162
     11 C           2.3645    1.0963   19.8634 C.ar    1  UNL1        0.0516
     12 C           2.4670    0.9054   18.3791 C.ar    1  UNL1        0.0147
     13 C           3.0926   -0.3401   17.8246 C.ar    1  UNL1        0.0013
     14 C           3.6156   -1.3946   18.7543 C.ar    1  UNL1        0.0016
     15 C           3.5131   -1.2037   20.2385 C.ar    1  UNL1        0.0204
     16 C           4.0362   -2.2582   21.1682 C.ar    1  UNL1        0.0984
     17 N           3.9337   -2.0673   22.6525 N.ar    1  UNL1       -0.2481
     18 C          -1.8157    3.6346   21.6191 C.3     1  UNL1        0.1022
     19 C          -2.8276    3.6686   20.5123 C.3     1  UNL1        0.0700
     20 C          -4.2922    3.6923   20.8356 C.3     1  UNL1        0.2001
     21 O          -4.7449    3.6820   22.2656 O.3     1  UNL1       -0.4749
     22 C          -3.7330    3.6481   23.3724 C.ar    1  UNL1        0.1632
     23 C          -4.1856    3.6378   24.8024 C.ar    1  UNL1        0.1735
     24 F          -5.6502    3.6615   25.1257 F       1  UNL1       -0.2010
     25 C          -3.1737    3.6039   25.9092 C.ar    1  UNL1        0.0328
     26 C          -1.7092    3.5802   25.5859 C.ar    1  UNL1        0.0022
     27 C          -1.2566    3.5904   24.1559 C.ar    1  UNL1        0.0005
     28 C          -2.2684    3.6244   23.0492 C.ar    1  UNL1        0.0319
     29 C          -5.7788    3.7233   20.6384 C.3     1  UNL1        0.2357
     30 F          -6.6873    3.9304   21.8138 F       1  UNL1       -0.2303
     31 C          -4.3558    3.7133   19.3371 C.3     1  UNL1        0.2357
     32 F          -5.5203    3.0888   18.6271 F       1  UNL1       -0.2303
@<TRIPOS>BOND
     1     7     8    1
     2     8     9   ar
     3     9    10   ar
     4    10    11   ar
     5    11     1    1
     6     1     2   am
     7     2     3    2
     8     2     4   am
     9    18     4    1
    10    18    19    1
    11    19    20    1
    12    20    29    1
    13    29    30    1
    14    20    31    1
    15    31    32    1
    16    20    21    1
    17    21    22    1
    18    22    23   ar
    19    23    24    1
    20    23    25   ar
    21    25    26   ar
    22    26    27   ar
    23    27    28   ar
    24    11    12   ar
    25    12    13   ar
    26    13    14   ar
    27    14    15   ar
    28    15    16   ar
    29    16    17   ar
    30    17     8   ar
    31    15    10   ar
    32    28    18    1
    33    28    22   ar
    34     1     5    1
    35     4     6    1
@<TRIPOS>MOLECULE
*****
 32 35 0 0 0
SMALL
GASTEIGER

@<TRIPOS>ATOM
      1 N           1.6380    2.4687   20.1416 N.am    1  UNL1       -0.2683
      2 C           0.1772    2.4512   20.4819 C.2     1  UNL1        0.3047
      3 O          -0.5966    1.1689   20.4000 O.2     1  UNL1       -0.2525
      4 N          -0.5097    3.7161   20.9040 N.am    1  UNL1       -0.2863
      5 H           2.1459    3.3104   20.1953 H       1  UNL1        0.1564
      6 H          -0.0018    4.5577   20.9577 H       1  UNL1        0.1512
      7 C           2.8479   -0.1749   24.7020 C.3     1  UNL1        0.0521
      8 C           3.0607   -0.4627   23.2453 C.ar    1  UNL1        0.0594
      9 C           2.5865    0.5144   22.2107 C.ar    1  UNL1        0.0160
     10 C           2.7992    0.2267   20.7540 C.ar    1  UNL1        0.0162
     11 C           2.3250    1.2039   19.7194 C.ar    1  UNL1        0.0516
     12 C           2.5377    0.9161   18.2628 C.ar    1  UNL1        0.0147
     13 C           3.2247   -0.3488   17.8406 C.ar    1  UNL1        0.0013
     14 C           3.6989   -1.3259   18.8752 C.ar    1  UNL1        0.0016
     15 C           3.4862   -1.0381   20.3319 C.ar    1  UNL1        0.0204
     16 C           3.9603   -2.0152   21.3665 C.ar    1  UNL1        0.0984
     17 N           3.7476   -1.7275   22.8231 N.ar    1  UNL1       -0.2481
     18 C          -1.9705    3.6985   21.2443 C.3     1  UNL1        0.1022
     19 C          -2.4058    3.6294   22.6781 C.3     1  UNL1        0.0700
     20 C          -3.8667    3.6119   23.0183 C.3     1  UNL1        0.2001
     21 O          -4.8921    3.6635   21.9248 O.3     1  UNL1       -0.4749
     22 C          -4.4568    3.7326   20.4910 C.ar    1  UNL1        0.1632
     23 C          -5.4822    3.7841   19.3975 C.ar    1  UNL1        0.1735
     24 F          -6.9430    3.7666   19.7378 F       1  UNL1       -0.2010
     25 C          -5.0469    3.8532   17.9638 C.ar    1  UNL1        0.0328
     26 C          -3.5861    3.8707   17.6235 C.ar    1  UNL1        0.0022
     27 C          -2.5607    3.8192   18.7170 C.ar    1  UNL1        0.0005
     28 C          -2.9960    3.7501   20.1508 C.ar    1  UNL1        0.0319
     29 C          -5.1228    3.5716   23.8372 C.3     1  UNL1        0.2357
     30 F          -5.0534    3.2562   25.3020 F       1  UNL1       -0.2303
     31 C          -3.2774    3.5464   24.3962 C.3     1  UNL1        0.2357
     32 F          -1.9402    2.9014   24.6102 F       1  UNL1       -0.2303
@<TRIPOS>BOND
     1     7     8    1
     2     8     9   ar
     3     9    10   ar
     4    10    11   ar
     5    11     1    1
     6     1     2   am
     7     2     3    2
     8     2     4   am
     9    18     4    1
    10    18    19    1
    11    19    20    1
    12    20    29    1
    13    29    30    1
    14    20    31    1
    15    31    32    1
    16    20    21    1
    17    21    22    1
    18    22    23   ar
    19    23    24    1
    20    23    25   ar
    21    25    26   ar
    22    26    27   ar
    23    27    28   ar
    24    11    12   ar
    25    12    13   ar
    26    13    14   ar
    27    14    15   ar
    28    15    16   ar
    29    16    17   ar
    30    17     8   ar
    31    15    10   ar
    32    28    18    1
    33    28    22   ar
    34     1     5    1
    35     4     6    1
@<TRIPOS>MOLECULE
*****
 32 35 0 0 0
SMALL
GASTEIGER

@<TRIPOS>ATOM
      1 N           8.0591   -3.4305   23.0687 N.am    1  UNL1       -0.2683
      2 C           6.8368   -3.0092   22.3080 C.2     1  UNL1        0.3047
      3 O           5.7473   -4.0020   22.0299 O.2     1  UNL1       -0.2525
      4 N           6.7041   -1.5952   21.8255 N.am    1  UNL1       -0.2863
      5 H           8.7742   -2.7789   23.2513 H       1  UNL1        0.1564
      6 H           7.4192   -0.9436   22.0080 H       1  UNL1        0.1512
      7 C           6.1517   -3.4736   28.1293 C.3     1  UNL1        0.0521
      8 C           6.7281   -4.5234   27.2261 C.ar    1  UNL1        0.0594
      9 C           7.1717   -4.1591   25.8403 C.ar    1  UNL1        0.0160
     10 C           7.7481   -5.2089   24.9371 C.ar    1  UNL1        0.0162
     11 C           8.1918   -4.8445   23.5513 C.ar    1  UNL1        0.0516
     12 C           8.7682   -5.8943   22.6481 C.ar    1  UNL1        0.0147
     13 C           8.9010   -7.3083   23.1307 C.ar    1  UNL1        0.0013
     14 C           8.4573   -7.6726   24.5165 C.ar    1  UNL1        0.0016
     15 C           7.8809   -6.6229   25.4197 C.ar    1  UNL1        0.0204
     16 C           7.4372   -6.9871   26.8055 C.ar    1  UNL1        0.0984
     17 N           6.8608   -5.9374   27.7087 N.ar    1  UNL1       -0.2481
     18 C           5.4818   -1.1740   21.0648 C.3     1  UNL1        0.1022
     19 C           5.4503   -1.2940   19.5700 C.3     1  UNL1        0.0700
     20 C           4.2280   -0.8727   18.8093 C.3     1  UNL1        0.2001
     21 O           3.0373   -0.3315   19.5435 O.3     1  UNL1       -0.4749
     22 C           3.0688   -0.2114   21.0384 C.ar    1  UNL1        0.1632
     23 C           1.8780    0.3298   21.7726 C.ar    1  UNL1        0.1735
     24 F           0.6557    0.7511   21.0120 F       1  UNL1       -0.2010
     25 C           1.9095    0.4498   23.2675 C.ar    1  UNL1        0.0328
     26 C           3.1318    0.0286   24.0281 C.ar    1  UNL1        0.0022
     27 C           4.3225   -0.5126   23.2939 C.ar    1  UNL1        0.0005
     28 C           4.2910   -0.6327   21.7990 C.ar    1  UNL1        0.0319
     29 C           3.3084   -0.6075   17.6544 C.3     1  UNL1        0.2357
     30 F           3.7645   -0.8869   16.2530 F       1  UNL1       -0.2303
     31 C           5.0994   -1.3219   17.6740 C.3     1  UNL1        0.2357
     32 F           5.7547   -2.6704   17.7196 F       1  UNL1       -0.2303
@<TRIPOS>BOND
     1     7     8    1
     2     8     9   ar
     3     9    10   ar
     4    10    11   ar
     5    11     1    1
     6     1     2   am
     7     2     3    2
     8     2     4   am
     9    18     4    1
    10    18    19    1
    11    19    20    1
    12    20    29    1
    13    29    30    1
    14    20    31    1
    15    31    32    1
    16    20    21    1
    17    21    22    1
    18    22    23   ar
    19    23    24    1
    20    23    25   ar
    21    25    26   ar
    22    26    27   ar
    23    27    28   ar
    24    11    12   ar
    25    12    13   ar
    26    13    14   ar
    27    14    15   ar
    28    15    16   ar
    29    16    17   ar
    30    17     8   ar
    31    15    10   ar
    32    28    18    1
    33    28    22   ar
    34     1     5    1
    35     4     6    1
@<TRIPOS>MOLECULE
*****
 32 35 0 0 0
SMALL
GASTEIGER

@<TRIPOS>ATOM
      1 N           6.0461   -1.4345   23.0741 N.am    1  UNL1       -0.2683
      2 C           6.1473   -2.6611   23.9315 C.2     1  UNL1        0.3047
      3 O           5.3400   -3.8799   23.5954 O.2     1  UNL1       -0.2525
      4 N           7.0558   -2.6691   25.1250 N.am    1  UNL1       -0.2863
      5 H           6.5760   -0.6346   23.2947 H       1  UNL1        0.1564
      6 H           7.5857   -1.8692   25.3457 H       1  UNL1        0.1512
      7 C           9.1664   -2.5745   18.8063 C.3     1  UNL1        0.0521
      8 C           7.7050   -2.2836   18.9781 C.ar    1  UNL1        0.0594
      9 C           7.1520   -2.0006   20.3434 C.ar    1  UNL1        0.0160
     10 C           5.6906   -1.7096   20.5152 C.ar    1  UNL1        0.0162
     11 C           5.1376   -1.4266   21.8806 C.ar    1  UNL1        0.0516
     12 C           3.6762   -1.1356   22.0523 C.ar    1  UNL1        0.0147
     13 C           2.7676   -1.1277   20.8587 C.ar    1  UNL1        0.0013
     14 C           3.3206   -1.4108   19.4934 C.ar    1  UNL1        0.0016
     15 C           4.7821   -1.7017   19.3216 C.ar    1  UNL1        0.0204
     16 C           5.3350   -1.9847   17.9564 C.ar    1  UNL1        0.0984
     17 N           6.7965   -2.2757   17.7846 N.ar    1  UNL1       -0.2481
     18 C           7.1570   -3.8957   25.9824 C.3     1  UNL1        0.1022
     19 C           7.4828   -5.2210   25.3600 C.3     1  UNL1        0.0700
     20 C           7.5840   -6.4476   26.2175 C.3     1  UNL1        0.2001
     21 O           7.3594   -6.3489   27.6972 O.3     1  UNL1       -0.4749
     22 C           7.0335   -5.0236   28.3196 C.ar    1  UNL1        0.1632
     23 C           6.8089   -4.9249   29.7994 C.ar    1  UNL1        0.1735
     24 F           6.9100   -6.1516   30.6568 F       1  UNL1       -0.2010
     25 C           6.4830   -3.5996   30.4218 C.ar    1  UNL1        0.0328
     26 C           6.3818   -2.3730   29.5644 C.ar    1  UNL1        0.0022
     27 C           6.6065   -2.4717   28.0846 C.ar    1  UNL1        0.0005
     28 C           6.9323   -3.7970   27.4622 C.ar    1  UNL1        0.0319
     29 C           7.7878   -7.8815   26.6079 C.3     1  UNL1        0.2357
     30 F           8.9987   -8.6249   26.1274 F       1  UNL1       -0.2303
     31 C           7.8795   -7.0443   24.8733 C.3     1  UNL1        0.2357
     32 F           7.7736   -6.1997   23.6382 F       1  UNL1       -0.2303
@<TRIPOS>BOND
     1     7     8    1
     2     8     9   ar
     3     9    10   ar
     4    10    11   ar
     5    11     1    1
     6     1     2   am
     7     2     3    2
     8     2     4   am
     9    18     4    1
    10    18    19    1
    11    19    20    1
    12    20    29    1
    13    29    30    1
    14    20    31    1
    15    31    32    1
    16    20    21    1
    17    21    22    1
    18    22    23   ar
    19    23    24    1
    20    23    25   ar
    21    25    26   ar
    22    26    27   ar
    23    27    28   ar
    24    11    12   ar
    25    12    13   ar
    26    13    14   ar
    27    14    15   ar
    28    15    16   ar
    29    16    17   ar
    30    17     8   ar
    31    15    10   ar
    32    28    18    1
    33    28    22   ar
    34     1     5    1
    35     4     6    1
@<TRIPOS>MOLECULE
*****
 32 35 0 0 0
SMALL
GASTEIGER

@<TRIPOS>ATOM
      1 N           6.9781   -2.3975   21.8675 N.am    1  UNL1       -0.2683
      2 C           6.8780   -3.4345   22.9468 C.2     1  UNL1        0.3047
      3 O           5.7874   -4.4633   22.8996 O.2     1  UNL1       -0.2525
      4 N           7.8684   -3.4426   24.0733 N.am    1  UNL1       -0.2863
      5 H           7.6939   -1.7223   21.8985 H       1  UNL1        0.1564
      6 H           8.5842   -2.7674   24.1043 H       1  UNL1        0.1512
      7 C           2.5526    0.0542   23.7789 C.3     1  UNL1        0.0521
      8 C           2.9162   -0.5527   22.4562 C.ar    1  UNL1        0.0594
      9 C           4.2701   -1.1676   22.2600 C.ar    1  UNL1        0.0160
     10 C           4.6337   -1.7744   20.9373 C.ar    1  UNL1        0.0162
     11 C           5.9877   -2.3894   20.7410 C.ar    1  UNL1        0.0516
     12 C           6.3513   -2.9963   19.4183 C.ar    1  UNL1        0.0147
     13 C           5.3608   -2.9881   18.2918 C.ar    1  UNL1        0.0013
     14 C           4.0068   -2.3732   18.4881 C.ar    1  UNL1        0.0016
     15 C           3.6433   -1.7663   19.8108 C.ar    1  UNL1        0.0204
     16 C           2.2893   -1.1514   20.0071 C.ar    1  UNL1        0.0984
     17 N           1.9257   -0.5445   21.3298 N.ar    1  UNL1       -0.2481
     18 C           7.7682   -4.4795   25.1525 C.3     1  UNL1        0.1022
     19 C           8.1745   -5.8959   24.8718 C.3     1  UNL1        0.0700
     20 C           8.0743   -6.9328   25.9511 C.3     1  UNL1        0.2001
     21 O           7.5679   -6.5533   27.3110 O.3     1  UNL1       -0.4749
     22 C           7.1616   -5.1369   27.5917 C.ar    1  UNL1        0.1632
     23 C           6.6552   -4.7574   28.9517 C.ar    1  UNL1        0.1735
     24 F           6.5550   -5.7944   30.0310 F       1  UNL1       -0.2010
     25 C           6.2489   -3.3410   29.2324 C.ar    1  UNL1        0.0328
     26 C           6.3491   -2.3042   28.1532 C.ar    1  UNL1        0.0022
     27 C           6.8555   -2.6836   26.7932 C.ar    1  UNL1        0.0005
     28 C           7.2618   -4.1000   26.5125 C.ar    1  UNL1        0.0319
     29 C           8.1604   -8.2618   26.6412 C.3     1  UNL1        0.2357
     30 F           8.3488   -8.3241   28.1279 F       1  UNL1       -0.2303
     31 C           8.6106   -7.7739   24.8308 C.3     1  UNL1        0.2357
     32 F           8.2257   -7.4690   23.4134 F       1  UNL1       -0.2303
@<TRIPOS>BOND
     1     7     8    1
     2     8     9   ar
     3     9    10   ar
     4    10    11   ar
     5    11     1    1
     6     1     2   am
     7     2     3    2
     8     2     4   am
     9    18     4    1
    10    18    19    1
    11    19    20    1
    12    20    29    1
    13    29    30    1
    14    20    31    1
    15    31    32    1
    16    20    21    1
    17    21    22    1
    18    22    23   ar
    19    23    24    1
    20    23    25   ar
    21    25    26   ar
    22    26    27   ar
    23    27    28   ar
    24    11    12   ar
    25    12    13   ar
    26    13    14   ar
    27    14    15   ar
    28    15    16   ar
    29    16    17   ar
    30    17     8   ar
    31    15    10   ar
    32    28    18    1
    33    28    22   ar
    34     1     5    1
    35     4     6    1
@<TRIPOS>MOLECULE
*****
 32 35 0 0 0
SMALL
GASTEIGER

@<TRIPOS>ATOM
      1 N           5.5566   -1.0059   22.9612 N.am    1  UNL1       -0.2683
      2 C           5.7175   -2.2319   23.8103 C.2     1  UNL1        0.3047
      3 O           4.7531   -3.3723   23.6714 O.2     1  UNL1       -0.2525
      4 N           6.8429   -2.3175   24.7984 N.am    1  UNL1       -0.2863
      5 H           6.1896   -0.2574   23.0523 H       1  UNL1        0.1564
      6 H           7.4759   -1.5690   24.8896 H       1  UNL1        0.1512
      7 C           7.6569   -2.3865   18.1724 C.3     1  UNL1        0.0521
      8 C           6.2878   -1.9772   18.6285 C.ar    1  UNL1        0.0594
      9 C           6.0441   -1.6534   20.0727 C.ar    1  UNL1        0.0160
     10 C           4.6750   -1.2441   20.5288 C.ar    1  UNL1        0.0162
     11 C           4.4313   -0.9203   21.9731 C.ar    1  UNL1        0.0516
     12 C           3.0622   -0.5110   22.4293 C.ar    1  UNL1        0.0147
     13 C           1.9368   -0.4254   21.4411 C.ar    1  UNL1        0.0013
     14 C           2.1806   -0.7492   19.9970 C.ar    1  UNL1        0.0016
     15 C           3.5497   -1.1585   19.5408 C.ar    1  UNL1        0.0204
     16 C           3.7934   -1.4823   18.0966 C.ar    1  UNL1        0.0984
     17 N           5.1625   -1.8916   17.6405 N.ar    1  UNL1       -0.2481
     18 C           7.0037   -3.5435   25.6475 C.3     1  UNL1        0.1022
     19 C           6.6338   -3.5032   27.1006 C.3     1  UNL1        0.0700
     20 C           6.7947   -4.7293   27.9497 C.3     1  UNL1        0.2001
     21 O           7.3255   -5.9956   27.3457 O.3     1  UNL1       -0.4749
     22 C           7.6954   -6.0358   25.8926 C.ar    1  UNL1        0.1632
     23 C           8.2262   -7.3020   25.2886 C.ar    1  UNL1        0.1735
     24 F           8.3871   -8.5281   26.1377 F       1  UNL1       -0.2010
     25 C           8.5961   -7.3423   23.8355 C.ar    1  UNL1        0.0328
     26 C           8.4353   -6.1163   22.9864 C.ar    1  UNL1        0.0022
     27 C           7.9045   -4.8501   23.5904 C.ar    1  UNL1        0.0005
     28 C           7.5345   -4.8098   25.0435 C.ar    1  UNL1        0.0319
     29 C           6.7680   -5.6233   29.1539 C.3     1  UNL1        0.2357
     30 F           7.7495   -6.7514   29.2724 F       1  UNL1       -0.2303
     31 C           6.2546   -3.7736   28.9719 C.3     1  UNL1        0.2357
     32 F           6.3231   -4.1176   30.4303 F       1  UNL1       -0.2303
@<TRIPOS>BOND
     1     7     8    1
     2     8     9   ar
     3     9    10   ar
     4    10    11   ar
     5    11     1    1
     6     1     2   am
     7     2     3    2
     8     2     4   am
     9    18     4    1
    10    18    19    1
    11    19    20    1
    12    20    29    1
    13    29    30    1
    14    20    31    1
    15    31    32    1
    16    20    21    1
    17    21    22    1
    18    22    23   ar
    19    23    24    1
    20    23    25   ar
    21    25    26   ar
    22    26    27   ar
    23    27    28   ar
    24    11    12   ar
    25    12    13   ar
    26    13    14   ar
    27    14    15   ar
    28    15    16   ar
    29    16    17   ar
    30    17     8   ar
    31    15    10   ar
    32    28    18    1
    33    28    22   ar
    34     1     5    1
    35     4     6    1
