@<TRIPOS>MOLECULE
*****
 31 33 0 0 0
SMALL
GASTEIGER

@<TRIPOS>ATOM
      1 N          -8.3147  -17.1490   22.7350 N.pl3   1  UNL1       -0.3037
      2 C          -9.7320  -17.4591   23.1157 C.ar    1  UNL1        0.0490
      3 C         -10.0204  -18.5336   24.1218 C.ar    1  UNL1        0.0153
      4 C         -11.4378  -18.8437   24.5025 C.ar    1  UNL1        0.0124
      5 C         -12.5668  -18.0794   23.8770 C.ar    1  UNL1        0.0791
      6 C         -12.2784  -17.0049   22.8708 C.ar    1  UNL1        0.0685
      7 CL        -13.4074  -16.2406   22.2453 Cl      1  UNL1       -0.0815
      8 C         -10.8610  -16.6948   22.4901 C.ar    1  UNL1        0.0266
      9 C         -13.9841  -18.3895   24.2577 C.1     1  UNL1        0.1013
     10 N         -15.4015  -18.6997   24.6384 N.1     1  UNL1       -0.1908
     11 N          -5.6727  -19.3313   20.9120 N.3     1  UNL1       -0.1577
     12 C          -6.9482  -19.9483   20.4193 C.3     1  UNL1        0.0972
     13 C          -8.0931  -19.2059   21.0423 C.3     1  UNL1        0.0403
     14 C          -7.5252  -18.1301   21.9199 C.3     1  UNL1        0.0922
     15 C          -6.0294  -18.2076   21.8393 C.3     1  UNL1        0.1151
     16 S          -4.2845  -19.7623   20.5421 S.O2    1  UNL1        0.0439
     17 O          -3.7443  -18.4585   21.0506 O.2     1  UNL1       -0.1573
     18 O          -4.8246  -21.0660   20.0337 O.2     1  UNL1       -0.1573
     19 C          -1.7806  -19.1906   20.1494 C.3     1  UNL1        0.0289
     20 C          -2.8961  -20.1933   20.1723 C.3     1  UNL1        0.1692
     21 C          -7.6868  -15.8579   23.1693 C.3     1  UNL1        0.1176
     22 C          -7.3368  -15.6421   24.6119 C.ar    1  UNL1        0.0015
     23 C          -8.4243  -15.4499   25.6269 C.ar    1  UNL1       -0.0027
     24 C          -8.0742  -15.2341   27.0694 C.ar    1  UNL1       -0.0003
     25 C          -6.6367  -15.2105   27.4969 C.ar    1  UNL1       -0.0001
     26 C          -5.5491  -15.4026   26.4819 C.ar    1  UNL1        0.0036
     27 C          -5.8991  -15.6184   25.0393 C.ar    1  UNL1        0.0691
     28 C          -4.8116  -15.8106   24.0243 C.3     1  UNL1        0.4183
     29 F          -3.7241  -16.0027   23.0093 F       1  UNL1       -0.1659
     30 F          -4.4653  -17.1313   24.6454 F       1  UNL1       -0.1659
     31 F          -5.1579  -14.4899   23.4033 F       1  UNL1       -0.1659
@<TRIPOS>BOND
     1    19    20    1
     2    20    16    1
     3    16    17    2
     4    16    18    2
     5    16    11    1
     6    11    12    1
     7    12    13    1
     8    13    14    1
     9    14     1    1
    10     1    21    1
    11    21    22    1
    12    22    23   ar
    13    23    24   ar
    14    24    25   ar
    15    25    26   ar
    16    26    27   ar
    17    27    28    1
    18    28    29    1
    19    28    30    1
    20    28    31    1
    21     1     2    1
    22     2     3   ar
    23     3     4   ar
    24     4     5   ar
    25     5     9    1
    26     9    10    3
    27     5     6   ar
    28     6     7    1
    29     6     8   ar
    30    14    15    1
    31    15    11    1
    32    27    22   ar
    33     8     2   ar
@<TRIPOS>MOLECULE
*****
 31 33 0 0 0
SMALL
GASTEIGER

@<TRIPOS>ATOM
      1 N          -8.0486  -18.8718   21.5015 N.pl3   1  UNL1       -0.3037
      2 C          -8.1735  -18.0585   22.7557 C.ar    1  UNL1        0.0490
      3 C          -8.7795  -18.6657   23.9861 C.ar    1  UNL1        0.0153
      4 C          -8.9044  -17.8524   25.2403 C.ar    1  UNL1        0.0124
      5 C          -8.4233  -16.4319   25.2640 C.ar    1  UNL1        0.0791
      6 C          -7.8172  -15.8246   24.0335 C.ar    1  UNL1        0.0685
      7 CL         -7.3361  -14.4041   24.0573 Cl      1  UNL1       -0.0815
      8 C          -7.6923  -16.6379   22.7794 C.ar    1  UNL1        0.0266
      9 C          -8.5482  -15.6186   26.5182 C.1     1  UNL1        0.1013
     10 N          -8.6731  -14.8053   27.7724 N.1     1  UNL1       -0.1908
     11 N          -4.3208  -19.4596   20.5941 N.3     1  UNL1       -0.1577
     12 C          -4.9379  -20.7464   20.1321 C.3     1  UNL1        0.0972
     13 C          -6.4095  -20.6828   20.4158 C.3     1  UNL1        0.0403
     14 C          -6.7018  -19.3568   21.0531 C.3     1  UNL1        0.0922
     15 C          -5.4109  -18.6008   21.1633 C.3     1  UNL1        0.1151
     16 S          -2.8685  -19.0957   20.5029 S.O2    1  UNL1        0.0439
     17 O          -2.5092  -20.3399   21.2598 O.2     1  UNL1       -0.1573
     18 O          -3.2278  -17.8514   19.7461 O.2     1  UNL1       -0.1573
     19 C          -0.9509  -17.7588   19.3690 C.3     1  UNL1        0.0289
     20 C          -1.4162  -18.7317   20.4117 C.3     1  UNL1        0.1692
     21 C          -9.2704  -19.2002   20.6958 C.3     1  UNL1        0.1176
     22 C         -10.4533  -18.2781   20.7175 C.ar    1  UNL1        0.0015
     23 C         -10.5277  -17.1308   19.7541 C.ar    1  UNL1       -0.0027
     24 C         -11.7106  -16.2087   19.7758 C.ar    1  UNL1       -0.0003
     25 C         -12.8191  -16.4339   20.7608 C.ar    1  UNL1       -0.0001
     26 C         -12.7448  -17.5812   21.7243 C.ar    1  UNL1        0.0036
     27 C         -11.5619  -18.5033   21.7026 C.ar    1  UNL1        0.0691
     28 C         -11.4875  -19.6506   22.6660 C.3     1  UNL1        0.4183
     29 F         -11.4131  -20.7979   23.6294 F       1  UNL1       -0.1659
     30 F         -11.2165  -20.5889   21.5276 F       1  UNL1       -0.1659
     31 F         -11.7585  -18.7122   23.8044 F       1  UNL1       -0.1659
@<TRIPOS>BOND
     1    19    20    1
     2    20    16    1
     3    16    17    2
     4    16    18    2
     5    16    11    1
     6    11    12    1
     7    12    13    1
     8    13    14    1
     9    14     1    1
    10     1    21    1
    11    21    22    1
    12    22    23   ar
    13    23    24   ar
    14    24    25   ar
    15    25    26   ar
    16    26    27   ar
    17    27    28    1
    18    28    29    1
    19    28    30    1
    20    28    31    1
    21     1     2    1
    22     2     3   ar
    23     3     4   ar
    24     4     5   ar
    25     5     9    1
    26     9    10    3
    27     5     6   ar
    28     6     7    1
    29     6     8   ar
    30    14    15    1
    31    15    11    1
    32    27    22   ar
    33     8     2   ar
@<TRIPOS>MOLECULE
*****
 31 33 0 0 0
SMALL
GASTEIGER

@<TRIPOS>ATOM
      1 N          -8.2478  -18.2892   21.7717 N.pl3   1  UNL1       -0.3037
      2 C          -8.1808  -17.4918   23.0405 C.ar    1  UNL1        0.0490
      3 C          -7.4924  -16.1592   23.0534 C.ar    1  UNL1        0.0153
      4 C          -7.4254  -15.3619   24.3221 C.ar    1  UNL1        0.0124
      5 C          -8.0468  -15.8972   25.5780 C.ar    1  UNL1        0.0791
      6 C          -8.7352  -17.2298   25.5652 C.ar    1  UNL1        0.0685
      7 CL         -9.3567  -17.7651   26.8211 Cl      1  UNL1       -0.0815
      8 C          -8.8022  -18.0272   24.2964 C.ar    1  UNL1        0.0266
      9 C          -7.9798  -15.0998   26.8468 C.1     1  UNL1        0.1013
     10 N          -7.9128  -14.3025   28.1155 N.1     1  UNL1       -0.1908
     11 N          -4.7039  -19.3159   20.5665 N.3     1  UNL1       -0.1577
     12 C          -5.4994  -20.5330   20.1977 C.3     1  UNL1        0.0972
     13 C          -6.9238  -20.2965   20.6043 C.3     1  UNL1        0.0403
     14 C          -7.0085  -18.9333   21.2244 C.3     1  UNL1        0.0922
     15 C          -5.6366  -18.3273   21.2010 C.3     1  UNL1        0.1151
     16 S          -3.2339  -19.1216   20.3405 S.O2    1  UNL1        0.0439
     17 O          -2.9432  -20.3067   21.2130 O.2     1  UNL1       -0.1573
     18 O          -3.5245  -17.9366   19.4680 O.2     1  UNL1       -0.1573
     19 C          -1.2658  -17.6782   19.4498 C.3     1  UNL1        0.0289
     20 C          -1.7638  -18.9274   20.1145 C.3     1  UNL1        0.1692
     21 C          -9.5539  -18.4424   21.0503 C.3     1  UNL1        0.1176
     22 C         -10.8386  -18.0970   21.7434 C.ar    1  UNL1        0.0015
     23 C         -11.3790  -18.9980   22.8139 C.ar    1  UNL1       -0.0027
     24 C         -12.6637  -18.6526   23.5070 C.ar    1  UNL1       -0.0003
     25 C         -13.4079  -17.4061   23.1295 C.ar    1  UNL1       -0.0001
     26 C         -12.8674  -16.5051   22.0589 C.ar    1  UNL1        0.0036
     27 C         -11.5828  -16.8505   21.3659 C.ar    1  UNL1        0.0691
     28 C         -11.0423  -15.9495   20.2953 C.3     1  UNL1        0.4183
     29 F         -10.5019  -15.0485   19.2248 F       1  UNL1       -0.1659
     30 F         -10.1688  -15.2703   21.3080 F       1  UNL1       -0.1659
     31 F         -11.9159  -16.6287   19.2827 F       1  UNL1       -0.1659
@<TRIPOS>BOND
     1    19    20    1
     2    20    16    1
     3    16    17    2
     4    16    18    2
     5    16    11    1
     6    11    12    1
     7    12    13    1
     8    13    14    1
     9    14     1    1
    10     1    21    1
    11    21    22    1
    12    22    23   ar
    13    23    24   ar
    14    24    25   ar
    15    25    26   ar
    16    26    27   ar
    17    27    28    1
    18    28    29    1
    19    28    30    1
    20    28    31    1
    21     1     2    1
    22     2     3   ar
    23     3     4   ar
    24     4     5   ar
    25     5     9    1
    26     9    10    3
    27     5     6   ar
    28     6     7    1
    29     6     8   ar
    30    14    15    1
    31    15    11    1
    32    27    22   ar
    33     8     2   ar
@<TRIPOS>MOLECULE
*****
 31 33 0 0 0
SMALL
GASTEIGER

@<TRIPOS>ATOM
      1 N          -8.2963  -16.9023   22.3835 N.pl3   1  UNL1       -0.3037
      2 C          -7.2989  -17.8648   21.8101 C.ar    1  UNL1        0.0490
      3 C          -7.6165  -18.6113   20.5485 C.ar    1  UNL1        0.0153
      4 C          -6.6191  -19.5738   19.9751 C.ar    1  UNL1        0.0124
      5 C          -5.3040  -19.7898   20.6635 C.ar    1  UNL1        0.0791
      6 C          -4.9863  -19.0434   21.9252 C.ar    1  UNL1        0.0685
      7 CL         -3.6712  -19.2595   22.6136 Cl      1  UNL1       -0.0815
      8 C          -5.9837  -18.0809   22.4986 C.ar    1  UNL1        0.0266
      9 C          -4.3066  -20.7524   20.0901 C.1     1  UNL1        0.1013
     10 N          -3.3092  -21.7149   19.5168 N.1     1  UNL1       -0.1908
     11 N         -12.0321  -17.7831   22.9607 N.3     1  UNL1       -0.1577
     12 C         -12.0039  -17.6011   21.4719 C.3     1  UNL1        0.0972
     13 C         -10.6009  -17.2490   21.0745 C.3     1  UNL1        0.0403
     14 C          -9.7622  -17.2134   22.3177 C.3     1  UNL1        0.0922
     15 C         -10.6467  -17.5435   23.4833 C.3     1  UNL1        0.1151
     16 S         -13.2346  -18.1417   23.7824 S.O2    1  UNL1        0.0439
     17 O         -12.3397  -18.5374   24.9193 O.2     1  UNL1       -0.1573
     18 O         -14.1296  -17.7461   22.6455 O.2     1  UNL1       -0.1573
     19 C         -14.3541  -18.4842   26.1018 C.3     1  UNL1        0.0289
     20 C         -14.4372  -18.5004   24.6041 C.3     1  UNL1        0.1692
     21 C          -7.8278  -15.6287   23.0226 C.3     1  UNL1        0.1176
     22 C          -7.5510  -15.5867   24.4963 C.ar    1  UNL1        0.0015
     23 C          -8.6890  -15.5287   25.4717 C.ar    1  UNL1       -0.0027
     24 C          -8.4122  -15.4867   26.9454 C.ar    1  UNL1       -0.0003
     25 C          -6.9975  -15.5027   27.4435 C.ar    1  UNL1       -0.0001
     26 C          -5.8594  -15.5608   26.4680 C.ar    1  UNL1        0.0036
     27 C          -6.1362  -15.6028   24.9944 C.ar    1  UNL1        0.0691
     28 C          -4.9982  -15.6608   24.0189 C.3     1  UNL1        0.4183
     29 F          -3.8603  -15.7188   23.0434 F       1  UNL1       -0.1659
     30 F          -5.6108  -14.5365   23.2375 F       1  UNL1       -0.1659
     31 F          -4.3857  -16.7851   24.8004 F       1  UNL1       -0.1659
@<TRIPOS>BOND
     1    19    20    1
     2    20    16    1
     3    16    17    2
     4    16    18    2
     5    16    11    1
     6    11    12    1
     7    12    13    1
     8    13    14    1
     9    14     1    1
    10     1    21    1
    11    21    22    1
    12    22    23   ar
    13    23    24   ar
    14    24    25   ar
    15    25    26   ar
    16    26    27   ar
    17    27    28    1
    18    28    29    1
    19    28    30    1
    20    28    31    1
    21     1     2    1
    22     2     3   ar
    23     3     4   ar
    24     4     5   ar
    25     5     9    1
    26     9    10    3
    27     5     6   ar
    28     6     7    1
    29     6     8   ar
    30    14    15    1
    31    15    11    1
    32    27    22   ar
    33     8     2   ar
@<TRIPOS>MOLECULE
*****
 31 33 0 0 0
SMALL
GASTEIGER

@<TRIPOS>ATOM
      1 N         -14.1198   -4.9153   17.5633 N.pl3   1  UNL1       -0.3037
      2 C         -15.1012   -6.0491   17.5971 C.ar    1  UNL1        0.0490
      3 C         -15.9528   -6.3400   16.3971 C.ar    1  UNL1        0.0153
      4 C         -16.9343   -7.4738   16.4309 C.ar    1  UNL1        0.0124
      5 C         -17.0641   -8.3168   17.6647 C.ar    1  UNL1        0.0791
      6 C         -16.2125   -8.0260   18.8649 C.ar    1  UNL1        0.0685
      7 CL        -16.3424   -8.8690   20.0988 Cl      1  UNL1       -0.0815
      8 C         -15.2311   -6.8921   18.8311 C.ar    1  UNL1        0.0266
      9 C         -18.0456   -9.4507   17.6986 C.1     1  UNL1        0.1013
     10 N         -19.0270  -10.5845   17.7324 N.1     1  UNL1       -0.1908
     11 N         -14.6749   -1.2596   18.7438 N.3     1  UNL1       -0.1577
     12 C         -15.1825   -2.0270   19.9286 C.3     1  UNL1        0.0972
     13 C         -15.0363   -3.4899   19.6305 C.3     1  UNL1        0.0403
     14 C         -14.4384   -3.6265   18.2616 C.3     1  UNL1        0.0922
     15 C         -14.2151   -2.2481   17.7136 C.3     1  UNL1        0.1151
     16 S         -14.6344    0.2340   18.6124 S.O2    1  UNL1        0.0439
     17 O         -15.8657    0.3422   19.4622 O.2     1  UNL1       -0.1573
     18 O         -13.4030    0.1259   17.7626 O.2     1  UNL1       -0.1573
     19 C         -15.4667    2.5813   19.3526 C.3     1  UNL1        0.0289
     20 C         -14.5938    1.7277   18.4810 C.3     1  UNL1        0.1692
     21 C         -12.8198   -5.0702   16.8312 C.3     1  UNL1        0.1176
     22 C         -11.6979   -5.8490   17.4515 C.ar    1  UNL1        0.0015
     23 C         -11.5502   -7.3129   17.1598 C.ar    1  UNL1       -0.0027
     24 C         -10.4283   -8.0918   17.7801 C.ar    1  UNL1       -0.0003
     25 C          -9.4541   -7.4067   18.6921 C.ar    1  UNL1       -0.0001
     26 C          -9.6019   -5.9428   18.9838 C.ar    1  UNL1        0.0036
     27 C         -10.7238   -5.1639   18.3635 C.ar    1  UNL1        0.0691
     28 C         -10.8715   -3.7000   18.6552 C.3     1  UNL1        0.4183
     29 F         -11.0193   -2.2361   18.9469 F       1  UNL1       -0.1659
     30 F          -9.9564   -3.3796   17.5107 F       1  UNL1       -0.1659
     31 F         -11.7866   -4.0204   19.7997 F       1  UNL1       -0.1659
@<TRIPOS>BOND
     1    19    20    1
     2    20    16    1
     3    16    17    2
     4    16    18    2
     5    16    11    1
     6    11    12    1
     7    12    13    1
     8    13    14    1
     9    14     1    1
    10     1    21    1
    11    21    22    1
    12    22    23   ar
    13    23    24   ar
    14    24    25   ar
    15    25    26   ar
    16    26    27   ar
    17    27    28    1
    18    28    29    1
    19    28    30    1
    20    28    31    1
    21     1     2    1
    22     2     3   ar
    23     3     4   ar
    24     4     5   ar
    25     5     9    1
    26     9    10    3
    27     5     6   ar
    28     6     7    1
    29     6     8   ar
    30    14    15    1
    31    15    11    1
    32    27    22   ar
    33     8     2   ar
@<TRIPOS>MOLECULE
*****
 31 33 0 0 0
SMALL
GASTEIGER

@<TRIPOS>ATOM
      1 N          -6.8305  -18.4784   22.0025 N.pl3   1  UNL1       -0.3037
      2 C          -5.4111  -18.5674   21.5259 C.ar    1  UNL1        0.0490
      3 C          -5.1182  -18.9884   20.1164 C.ar    1  UNL1        0.0153
      4 C          -3.6987  -19.0775   19.6398 C.ar    1  UNL1        0.0124
      5 C          -2.5721  -18.7455   20.5728 C.ar    1  UNL1        0.0791
      6 C          -2.8649  -18.3245   21.9824 C.ar    1  UNL1        0.0685
      7 CL         -1.7383  -17.9926   22.9154 Cl      1  UNL1       -0.0815
      8 C          -4.2844  -18.2355   22.4590 C.ar    1  UNL1        0.0266
      9 C          -1.1526  -18.8346   20.0962 C.1     1  UNL1        0.1013
     10 N           0.2669  -18.9236   19.6196 N.1     1  UNL1       -0.1908
     11 N          -7.5797  -15.9193   24.8230 N.3     1  UNL1       -0.1577
     12 C          -8.2431  -15.2603   23.6501 C.3     1  UNL1        0.0972
     13 C          -8.0431  -16.1388   22.4507 C.3     1  UNL1        0.0403
     14 C          -7.2563  -17.3406   22.8825 C.3     1  UNL1        0.0922
     15 C          -6.9698  -17.2049   24.3486 C.3     1  UNL1        0.1151
     16 S          -7.5342  -15.3862   26.2243 S.O2    1  UNL1        0.0439
     17 O          -6.0393  -15.5106   26.2231 O.2     1  UNL1       -0.1573
     18 O          -9.0290  -15.2616   26.2256 O.2     1  UNL1       -0.1573
     19 C          -8.7487  -14.3842   28.2910 C.3     1  UNL1        0.0289
     20 C          -7.4887  -14.8530   27.6256 C.3     1  UNL1        0.1692
     21 C          -7.8243  -19.5270   21.5991 C.3     1  UNL1        0.1176
     22 C          -9.2466  -19.1433   21.3166 C.ar    1  UNL1        0.0015
     23 C          -9.6554  -18.7489   19.9284 C.ar    1  UNL1       -0.0027
     24 C         -11.0777  -18.3651   19.6459 C.ar    1  UNL1       -0.0003
     25 C         -12.0912  -18.3759   20.7516 C.ar    1  UNL1       -0.0001
     26 C         -11.6824  -18.7704   22.1400 C.ar    1  UNL1        0.0036
     27 C         -10.2601  -19.1541   22.4225 C.ar    1  UNL1        0.0691
     28 C          -9.8513  -19.5485   23.8107 C.3     1  UNL1        0.4183
     29 F          -9.4425  -19.9430   25.1989 F       1  UNL1       -0.1659
     30 F         -10.0606  -18.1372   24.2734 F       1  UNL1       -0.1659
     31 F          -9.6420  -20.9599   23.3480 F       1  UNL1       -0.1659
@<TRIPOS>BOND
     1    19    20    1
     2    20    16    1
     3    16    17    2
     4    16    18    2
     5    16    11    1
     6    11    12    1
     7    12    13    1
     8    13    14    1
     9    14     1    1
    10     1    21    1
    11    21    22    1
    12    22    23   ar
    13    23    24   ar
    14    24    25   ar
    15    25    26   ar
    16    26    27   ar
    17    27    28    1
    18    28    29    1
    19    28    30    1
    20    28    31    1
    21     1     2    1
    22     2     3   ar
    23     3     4   ar
    24     4     5   ar
    25     5     9    1
    26     9    10    3
    27     5     6   ar
    28     6     7    1
    29     6     8   ar
    30    14    15    1
    31    15    11    1
    32    27    22   ar
    33     8     2   ar
@<TRIPOS>MOLECULE
*****
 31 33 0 0 0
SMALL
GASTEIGER

@<TRIPOS>ATOM
      1 N          -8.1058  -18.2277   22.9592 N.pl3   1  UNL1       -0.3037
      2 C          -7.8615  -17.2977   24.1106 C.ar    1  UNL1        0.0490
      3 C          -8.8393  -17.2375   25.2464 C.ar    1  UNL1        0.0153
      4 C          -8.5951  -16.3075   26.3978 C.ar    1  UNL1        0.0124
      5 C          -7.3731  -15.4379   26.4133 C.ar    1  UNL1        0.0791
      6 C          -6.3952  -15.4981   25.2774 C.ar    1  UNL1        0.0685
      7 CL         -5.1732  -14.6285   25.2929 Cl      1  UNL1       -0.0815
      8 C          -6.6394  -16.4280   24.1260 C.ar    1  UNL1        0.0266
      9 C          -7.1289  -14.5080   27.5646 C.1     1  UNL1        0.1013
     10 N          -6.8846  -13.5780   28.7159 N.1     1  UNL1       -0.1908
     11 N          -4.7505  -18.8947   21.1255 N.3     1  UNL1       -0.1577
     12 C          -5.7358  -19.4385   20.1338 C.3     1  UNL1        0.0972
     13 C          -7.1127  -19.2548   20.7000 C.3     1  UNL1        0.0403
     14 C          -6.9782  -18.5975   22.0416 C.3     1  UNL1        0.0922
     15 C          -5.5183  -18.3750   22.3046 C.3     1  UNL1        0.1151
     16 S          -3.2592  -18.8743   20.9660 S.O2    1  UNL1        0.0439
     17 O          -3.1980  -17.5707   21.7056 O.2     1  UNL1       -0.1573
     18 O          -3.3203  -20.1779   20.2264 O.2     1  UNL1       -0.1573
     19 C          -1.1479  -18.1442   19.6394 C.3     1  UNL1        0.0289
     20 C          -1.7678  -18.8539   20.8066 C.3     1  UNL1        0.1692
     21 C          -9.4775  -18.7877   22.7254 C.3     1  UNL1        0.1176
     22 C         -10.5501  -17.9223   22.1333 C.ar    1  UNL1        0.0015
     23 C         -11.1322  -16.7957   22.9345 C.ar    1  UNL1       -0.0027
     24 C         -12.2048  -15.9303   22.3424 C.ar    1  UNL1       -0.0003
     25 C         -12.6953  -16.1915   20.9492 C.ar    1  UNL1       -0.0001
     26 C         -12.1132  -17.3181   20.1479 C.ar    1  UNL1        0.0036
     27 C         -11.0406  -18.1836   20.7400 C.ar    1  UNL1        0.0691
     28 C         -10.4585  -19.3102   19.9389 C.3     1  UNL1        0.4183
     29 F          -9.8764  -20.4368   19.1378 F       1  UNL1       -0.1659
     30 F          -9.6694  -18.3256   19.1277 F       1  UNL1       -0.1659
     31 F         -11.2475  -20.2947   20.7501 F       1  UNL1       -0.1659
@<TRIPOS>BOND
     1    19    20    1
     2    20    16    1
     3    16    17    2
     4    16    18    2
     5    16    11    1
     6    11    12    1
     7    12    13    1
     8    13    14    1
     9    14     1    1
    10     1    21    1
    11    21    22    1
    12    22    23   ar
    13    23    24   ar
    14    24    25   ar
    15    25    26   ar
    16    26    27   ar
    17    27    28    1
    18    28    29    1
    19    28    30    1
    20    28    31    1
    21     1     2    1
    22     2     3   ar
    23     3     4   ar
    24     4     5   ar
    25     5     9    1
    26     9    10    3
    27     5     6   ar
    28     6     7    1
    29     6     8   ar
    30    14    15    1
    31    15    11    1
    32    27    22   ar
    33     8     2   ar
@<TRIPOS>MOLECULE
*****
 31 33 0 0 0
SMALL
GASTEIGER

@<TRIPOS>ATOM
      1 N           2.4230   -0.5287   21.1246 N.pl3   1  UNL1       -0.3037
      2 C           2.9277   -0.7508   22.5196 C.ar    1  UNL1        0.0490
      3 C           3.9361   -1.8278   22.7897 C.ar    1  UNL1        0.0153
      4 C           4.4408   -2.0499   24.1847 C.ar    1  UNL1        0.0124
      5 C           3.9371   -1.1950   25.3095 C.ar    1  UNL1        0.0791
      6 C           2.9285   -0.1179   25.0394 C.ar    1  UNL1        0.0685
      7 CL          2.4248    0.7370   26.1643 Cl      1  UNL1       -0.0815
      8 C           2.4238    0.1042   23.6445 C.ar    1  UNL1        0.0266
      9 C           4.4418   -1.4170   26.7045 C.1     1  UNL1        0.1013
     10 N           4.9465   -1.6391   28.0995 N.1     1  UNL1       -0.1908
     11 N           0.0783    2.4340   20.2355 N.3     1  UNL1       -0.1577
     12 C           1.4212    3.1001   20.1790 C.3     1  UNL1        0.0972
     13 C           2.4630    2.0712   20.5052 C.3     1  UNL1        0.0403
     14 C           1.7639    0.7694   20.7633 C.3     1  UNL1        0.0922
     15 C           0.2901    0.9936   20.5966 C.3     1  UNL1        0.1151
     16 S          -1.2441    3.0927   19.9764 S.O2    1  UNL1        0.0439
     17 O          -1.7150    2.6838   21.3406 O.2     1  UNL1       -0.1573
     18 O          -0.7733    3.5015   18.6121 O.2     1  UNL1       -0.1573
     19 C          -3.7731    3.3502   20.5133 C.3     1  UNL1        0.0289
     20 C          -2.5666    3.7514   19.7173 C.3     1  UNL1        0.1692
     21 C           2.5773   -1.6047   20.0910 C.3     1  UNL1        0.1176
     22 C           3.8657   -1.7388   19.3346 C.ar    1  UNL1        0.0015
     23 C           4.5229   -0.5233   18.7511 C.ar    1  UNL1       -0.0027
     24 C           5.8113   -0.6574   17.9948 C.ar    1  UNL1       -0.0003
     25 C           6.4425   -2.0071   17.8219 C.ar    1  UNL1       -0.0001
     26 C           5.7853   -3.2227   18.4054 C.ar    1  UNL1        0.0036
     27 C           4.4969   -3.0886   19.1618 C.ar    1  UNL1        0.0691
     28 C           3.8397   -4.3041   19.7453 C.3     1  UNL1        0.4183
     29 F           3.1825   -5.5197   20.3288 F       1  UNL1       -0.1659
     30 F           4.7587   -4.2329   20.9286 F       1  UNL1       -0.1659
     31 F           2.9207   -4.3753   18.5619 F       1  UNL1       -0.1659
@<TRIPOS>BOND
     1    19    20    1
     2    20    16    1
     3    16    17    2
     4    16    18    2
     5    16    11    1
     6    11    12    1
     7    12    13    1
     8    13    14    1
     9    14     1    1
    10     1    21    1
    11    21    22    1
    12    22    23   ar
    13    23    24   ar
    14    24    25   ar
    15    25    26   ar
    16    26    27   ar
    17    27    28    1
    18    28    29    1
    19    28    30    1
    20    28    31    1
    21     1     2    1
    22     2     3   ar
    23     3     4   ar
    24     4     5   ar
    25     5     9    1
    26     9    10    3
    27     5     6   ar
    28     6     7    1
    29     6     8   ar
    30    14    15    1
    31    15    11    1
    32    27    22   ar
    33     8     2   ar
@<TRIPOS>MOLECULE
*****
 31 33 0 0 0
SMALL
GASTEIGER

@<TRIPOS>ATOM
      1 N           6.4411   -2.6024   25.7831 N.pl3   1  UNL1       -0.3037
      2 C           5.5250   -2.0053   26.8099 C.ar    1  UNL1        0.0490
      3 C           4.1799   -1.4824   26.4013 C.ar    1  UNL1        0.0153
      4 C           3.2638   -0.8852   27.4281 C.ar    1  UNL1        0.0124
      5 C           3.6929   -0.8110   28.8634 C.ar    1  UNL1        0.0791
      6 C           5.0382   -1.3340   29.2721 C.ar    1  UNL1        0.0685
      7 CL          5.4673   -1.2597   30.7074 Cl      1  UNL1       -0.0815
      8 C           5.9542   -1.9311   28.2453 C.ar    1  UNL1        0.0266
      9 C           2.7768   -0.2139   29.8902 C.1     1  UNL1        0.1013
     10 N           1.8608    0.3832   30.9170 N.1     1  UNL1       -0.1908
     11 N           5.3056   -2.6600   22.0719 N.3     1  UNL1       -0.1577
     12 C           6.2082   -1.4619   22.0803 C.3     1  UNL1        0.0972
     13 C           6.7434   -1.2945   23.4716 C.3     1  UNL1        0.0403
     14 C           6.1716   -2.3891   24.3229 C.3     1  UNL1        0.0922
     15 C           5.2830   -3.2330   23.4579 C.3     1  UNL1        0.1151
     16 S           4.5571   -3.1916   20.8858 S.O2    1  UNL1        0.0439
     17 O           4.4537   -4.5317   21.5517 O.2     1  UNL1       -0.1573
     18 O           4.6605   -1.8515   20.2198 O.2     1  UNL1       -0.1573
     19 C           4.3579   -4.8846   18.9250 C.3     1  UNL1        0.0289
     20 C           3.8086   -3.7233   19.6996 C.3     1  UNL1        0.1692
     21 C           7.6266   -3.4127   26.2164 C.3     1  UNL1        0.1176
     22 C           7.7008   -4.8726   25.8797 C.ar    1  UNL1        0.0015
     23 C           8.1540   -5.3059   24.5171 C.ar    1  UNL1       -0.0027
     24 C           8.2282   -6.7657   24.1804 C.ar    1  UNL1       -0.0003
     25 C           7.8492   -7.7922   25.2063 C.ar    1  UNL1       -0.0001
     26 C           7.3959   -7.3590   26.5690 C.ar    1  UNL1        0.0036
     27 C           7.3218   -5.8991   26.9057 C.ar    1  UNL1        0.0691
     28 C           6.8686   -5.4658   28.2683 C.3     1  UNL1        0.4183
     29 F           6.4154   -5.0325   29.6309 F       1  UNL1       -0.1659
     30 F           5.4416   -5.5121   27.8084 F       1  UNL1       -0.1659
     31 F           8.2955   -5.4195   28.7282 F       1  UNL1       -0.1659
@<TRIPOS>BOND
     1    19    20    1
     2    20    16    1
     3    16    17    2
     4    16    18    2
     5    16    11    1
     6    11    12    1
     7    12    13    1
     8    13    14    1
     9    14     1    1
    10     1    21    1
    11    21    22    1
    12    22    23   ar
    13    23    24   ar
    14    24    25   ar
    15    25    26   ar
    16    26    27   ar
    17    27    28    1
    18    28    29    1
    19    28    30    1
    20    28    31    1
    21     1     2    1
    22     2     3   ar
    23     3     4   ar
    24     4     5   ar
    25     5     9    1
    26     9    10    3
    27     5     6   ar
    28     6     7    1
    29     6     8   ar
    30    14    15    1
    31    15    11    1
    32    27    22   ar
    33     8     2   ar
