@<TRIPOS>MOLECULE
*****
 32 35 0 0 0
SMALL
GASTEIGER

@<TRIPOS>ATOM
      1 C          -0.9230    3.0660   19.9176 C.ar    1  UNL1       -0.0004
      2 C          -0.1032    3.6699   18.8161 C.ar    1  UNL1       -0.0024
      3 C           1.0807    2.9285   18.2695 C.ar    1  UNL1       -0.0002
      4 C           1.4448    1.5833   18.8244 C.ar    1  UNL1        0.0030
      5 C           2.6287    0.8420   18.2777 C.ar    1  UNL1        0.0369
      6 C           2.9928   -0.5033   18.8325 C.ar    1  UNL1        0.1386
      7 C           2.1729   -1.1071   19.9340 C.ar    1  UNL1        0.0369
      8 C           0.9890   -0.3658   20.4806 C.ar    1  UNL1        0.0031
      9 C           0.6250    0.9794   19.9258 C.ar    1  UNL1       -0.0001
     10 C          -0.5589    1.7208   20.4724 C.ar    1  UNL1       -0.0024
     11 C          -2.1069    3.8073   20.4643 C.3     1  UNL1        0.1240
     12 N          -3.4406    3.6941   19.7873 N.ar    1  UNL1       -0.3045
     13 C          -3.7330    4.0267   18.3542 C.ar    1  UNL1        0.0983
     14 C          -5.1893    3.7666   18.1057 C.ar    1  UNL1        0.1193
     15 N          -5.7969    3.2731   19.3853 N.ar    1  UNL1       -0.2223
     16 C          -4.7162    3.2284   20.4245 C.ar    1  UNL1        0.1788
     17 C          -1.8133    6.1488   21.5513 C.3     1  UNL1        0.0197
     18 C          -1.9571    4.6619   21.6879 C.3     1  UNL1        0.0827
     19 N          -1.9509    4.0296   23.0481 N.3     1  UNL1       -0.2696
     20 C          -0.6491    3.6874   23.7102 C.3     1  UNL1        0.0897
     21 C          -3.2464    3.7395   23.7462 C.3     1  UNL1        0.0897
     22 O           4.1766   -1.2446   18.2859 O.3     1  UNL1       -0.4751
     23 C           4.3379   -2.7098   18.5641 C.3     1  UNL1        0.2103
     24 C           5.4978   -3.1946   19.3823 C.3     1  UNL1        0.0723
     25 C           6.1944   -2.1908   18.5120 C.3     1  UNL1        0.0088
     26 C           7.6691   -1.9620   18.6635 C.3     1  UNL1        0.0005
     27 C           8.4473   -2.7370   19.6853 C.3     1  UNL1        0.0000
     28 C           7.7507   -3.7407   20.5555 C.3     1  UNL1        0.0005
     29 C           6.2760   -3.9695   20.4040 C.3     1  UNL1        0.0088
     30 C           4.3985   -4.0299   19.9684 C.2     1  UNL1        0.0532
     31 O           3.2379   -4.4480   19.1150 O.co2   1  UNL1       -0.5491
     32 O           4.4596   -4.4471   21.4079 O.co2   1  UNL1       -0.5491
@<TRIPOS>UNITY_ATOM_ATTR
31 1
charge -1
@<TRIPOS>BOND
     1    18    17    1
     2    18    11    1
     3    11     1    1
     4     1     2   ar
     5     2     3   ar
     6     3     4   ar
     7     4     5   ar
     8     5     6   ar
     9     6    22    1
    10    22    23    1
    11    23    24    1
    12    24    30    1
    13    30    31   ar
    14    30    32   ar
    15    24    25    1
    16    25    26    1
    17    26    27    1
    18    27    28    1
    19    28    29    1
    20     6     7   ar
    21     7     8   ar
    22     8     9   ar
    23     9    10   ar
    24    11    12    1
    25    12    13   ar
    26    13    14   ar
    27    14    15   ar
    28    15    16   ar
    29    18    19    1
    30    19    20    1
    31    19    21    1
    32    10     1   ar
    33    16    12   ar
    34     9     4   ar
    35    29    24    1
@<TRIPOS>MOLECULE
*****
 32 35 0 0 0
SMALL
GASTEIGER

@<TRIPOS>ATOM
      1 C           2.8511   -0.5700   20.4469 C.ar    1  UNL1       -0.0004
      2 C           1.5311    0.0622   20.1185 C.ar    1  UNL1       -0.0024
      3 C           0.7110    0.6932   21.2043 C.ar    1  UNL1       -0.0002
      4 C           1.2108    0.6920   22.6186 C.ar    1  UNL1        0.0030
      5 C           0.3905    1.3231   23.7045 C.ar    1  UNL1        0.0369
      6 C           0.8904    1.3219   25.1188 C.ar    1  UNL1        0.1386
      7 C           2.2104    0.6896   25.4472 C.ar    1  UNL1        0.0369
      8 C           3.0306    0.0586   24.3613 C.ar    1  UNL1        0.0031
      9 C           2.5308    0.0598   22.9471 C.ar    1  UNL1       -0.0001
     10 C           3.3509   -0.5712   21.8612 C.ar    1  UNL1       -0.0024
     11 C           3.6714   -1.2010   19.3611 C.3     1  UNL1        0.1240
     12 N           4.0811   -2.6398   19.4707 N.ar    1  UNL1       -0.3045
     13 C           3.2392   -3.8266   19.1064 C.ar    1  UNL1        0.0983
     14 C           4.0425   -5.0647   19.3745 C.ar    1  UNL1        0.1193
     15 N           5.3810   -4.6431   19.9044 N.ar    1  UNL1       -0.2223
     16 C           5.4048   -3.1445   19.9639 C.ar    1  UNL1        0.1788
     17 C           3.7666   -0.8852   16.7840 C.3     1  UNL1        0.0197
     18 C           4.0818   -0.3933   18.1656 C.3     1  UNL1        0.0827
     19 N           4.8074    0.9062   18.3517 N.3     1  UNL1       -0.2696
     20 C           4.0542    2.2018   18.2860 C.3     1  UNL1        0.0897
     21 C           6.2861    0.9102   18.6035 C.3     1  UNL1        0.0897
     22 O           0.0702    1.9529   26.2046 O.3     1  UNL1       -0.4751
     23 C          -0.2615    1.1739   27.4429 C.3     1  UNL1        0.2103
     24 C           0.1337    1.7025   28.7898 C.3     1  UNL1        0.0723
     25 C           0.0463    2.9876   28.0211 C.3     1  UNL1        0.0088
     26 C           0.3368    4.2912   28.7039 C.3     1  UNL1        0.0005
     27 C           0.7148    4.3097   30.1555 C.3     1  UNL1        0.0000
     28 C           0.8021    3.0246   30.9241 C.3     1  UNL1        0.0005
     29 C           0.5117    1.7210   30.2413 C.3     1  UNL1        0.0088
     30 C           0.0839    0.2338   29.0907 C.2     1  UNL1        0.0532
     31 O          -1.0840   -0.5869   28.6299 O.co2   1  UNL1       -0.5491
     32 O           1.2020   -0.4141   29.8524 O.co2   1  UNL1       -0.5491
@<TRIPOS>UNITY_ATOM_ATTR
31 1
charge -1
@<TRIPOS>BOND
     1    18    17    1
     2    18    11    1
     3    11     1    1
     4     1     2   ar
     5     2     3   ar
     6     3     4   ar
     7     4     5   ar
     8     5     6   ar
     9     6    22    1
    10    22    23    1
    11    23    24    1
    12    24    30    1
    13    30    31   ar
    14    30    32   ar
    15    24    25    1
    16    25    26    1
    17    26    27    1
    18    27    28    1
    19    28    29    1
    20     6     7   ar
    21     7     8   ar
    22     8     9   ar
    23     9    10   ar
    24    11    12    1
    25    12    13   ar
    26    13    14   ar
    27    14    15   ar
    28    15    16   ar
    29    18    19    1
    30    19    20    1
    31    19    21    1
    32    10     1   ar
    33    16    12   ar
    34     9     4   ar
    35    29    24    1
@<TRIPOS>MOLECULE
*****
 32 35 0 0 0
SMALL
GASTEIGER

@<TRIPOS>ATOM
      1 C           2.9410   -1.1503   20.8629 C.ar    1  UNL1       -0.0004
      2 C           1.8963   -0.8262   19.8365 C.ar    1  UNL1       -0.0024
      3 C           0.8594    0.2183   20.1258 C.ar    1  UNL1       -0.0002
      4 C           0.8672    0.9387   21.4414 C.ar    1  UNL1        0.0030
      5 C          -0.1698    1.9833   21.7307 C.ar    1  UNL1        0.0369
      6 C          -0.1620    2.7037   23.0463 C.ar    1  UNL1        0.1386
      7 C           0.8828    2.3796   24.0727 C.ar    1  UNL1        0.0369
      8 C           1.9197    1.3351   23.7834 C.ar    1  UNL1        0.0031
      9 C           1.9119    0.6146   22.4678 C.ar    1  UNL1       -0.0001
     10 C           2.9488   -0.4299   22.1785 C.ar    1  UNL1       -0.0024
     11 C           3.9780   -2.1949   20.5736 C.3     1  UNL1        0.1240
     12 N           4.9419   -2.6116   21.6448 N.ar    1  UNL1       -0.3045
     13 C           6.3384   -2.0942   21.8241 C.ar    1  UNL1        0.0983
     14 C           6.9381   -2.7817   23.0148 C.ar    1  UNL1        0.1193
     15 N           5.9123   -3.7240   23.5713 N.ar    1  UNL1       -0.2223
     16 C           4.6786   -3.6188   22.7246 C.ar    1  UNL1        0.1788
     17 C           3.3479   -4.1207   18.9475 C.3     1  UNL1        0.0197
     18 C           4.0511   -2.8226   19.2133 C.3     1  UNL1        0.0827
     19 N           4.8275   -2.1525   18.1187 N.3     1  UNL1       -0.2696
     20 C           6.3011   -2.3991   17.9851 C.3     1  UNL1        0.0897
     21 C           4.1303   -1.2356   17.1578 C.3     1  UNL1        0.0897
     22 O          -1.1990    3.7482   23.3356 O.3     1  UNL1       -0.4751
     23 C          -2.5208    3.7092   22.6275 C.3     1  UNL1        0.2103
     24 C          -3.7951    3.8149   23.4117 C.3     1  UNL1        0.0723
     25 C          -2.7987    4.1133   24.4925 C.3     1  UNL1        0.0088
     26 C          -3.2689    4.4010   25.8875 C.3     1  UNL1        0.0005
     27 C          -4.7357    4.3903   26.2017 C.3     1  UNL1        0.0000
     28 C          -5.7320    4.0919   25.1209 C.3     1  UNL1        0.0005
     29 C          -5.2618    3.8042   23.7259 C.3     1  UNL1        0.0088
     30 C          -4.3489    3.4798   22.0586 C.2     1  UNL1        0.0532
     31 O          -3.4681    2.8443   21.0240 O.co2   1  UNL1       -0.5491
     32 O          -5.7836    3.7801   21.7399 O.co2   1  UNL1       -0.5491
@<TRIPOS>UNITY_ATOM_ATTR
31 1
charge -1
@<TRIPOS>BOND
     1    18    17    1
     2    18    11    1
     3    11     1    1
     4     1     2   ar
     5     2     3   ar
     6     3     4   ar
     7     4     5   ar
     8     5     6   ar
     9     6    22    1
    10    22    23    1
    11    23    24    1
    12    24    30    1
    13    30    31   ar
    14    30    32   ar
    15    24    25    1
    16    25    26    1
    17    26    27    1
    18    27    28    1
    19    28    29    1
    20     6     7   ar
    21     7     8   ar
    22     8     9   ar
    23     9    10   ar
    24    11    12    1
    25    12    13   ar
    26    13    14   ar
    27    14    15   ar
    28    15    16   ar
    29    18    19    1
    30    19    20    1
    31    19    21    1
    32    10     1   ar
    33    16    12   ar
    34     9     4   ar
    35    29    24    1
@<TRIPOS>MOLECULE
*****
 32 35 0 0 0
SMALL
GASTEIGER

@<TRIPOS>ATOM
      1 C          -0.9131    3.1096   19.8875 C.ar    1  UNL1       -0.0004
      2 C          -0.0754    3.7053   18.7951 C.ar    1  UNL1       -0.0024
      3 C           1.1062    2.9515   18.2605 C.ar    1  UNL1       -0.0002
      4 C           1.4499    1.6022   18.8182 C.ar    1  UNL1        0.0030
      5 C           2.6315    0.8484   18.2835 C.ar    1  UNL1        0.0369
      6 C           2.9752   -0.5009   18.8413 C.ar    1  UNL1        0.1386
      7 C           2.1374   -1.0965   19.9337 C.ar    1  UNL1        0.0369
      8 C           0.9559   -0.3428   20.4683 C.ar    1  UNL1        0.0031
      9 C           0.6121    1.0065   19.9106 C.ar    1  UNL1       -0.0001
     10 C          -0.5694    1.7603   20.4452 C.ar    1  UNL1       -0.0024
     11 C          -2.0947    3.8634   20.4222 C.3     1  UNL1        0.1240
     12 N          -2.4423    3.7777   21.8788 N.ar    1  UNL1       -0.3045
     13 C          -1.4872    3.9386   23.0242 C.ar    1  UNL1        0.0983
     14 C          -2.2607    3.7764   24.2991 C.ar    1  UNL1        0.1193
     15 N          -3.6939    3.5152   23.9417 N.ar    1  UNL1       -0.2223
     16 C          -3.8061    3.5160   22.4459 C.ar    1  UNL1        0.1788
     17 C          -2.8370    6.1988   19.5592 C.3     1  UNL1        0.0197
     18 C          -2.9286    4.7028   19.5002 C.3     1  UNL1        0.0827
     19 N          -3.8541    4.0461   18.5193 N.3     1  UNL1       -0.2696
     20 C          -3.4421    3.8951   17.0848 C.3     1  UNL1        0.0897
     21 C          -5.1915    3.5405   18.9727 C.3     1  UNL1        0.0897
     22 O           4.1567   -1.2546   18.3066 O.3     1  UNL1       -0.4751
     23 C           4.3118   -2.7164   18.6057 C.3     1  UNL1        0.2103
     24 C           5.4819   -3.1970   19.4117 C.3     1  UNL1        0.0723
     25 C           6.1689   -2.2037   18.5220 C.3     1  UNL1        0.0088
     26 C           7.6462   -1.9780   18.6501 C.3     1  UNL1        0.0005
     27 C           8.4368   -2.7457   19.6679 C.3     1  UNL1        0.0000
     28 C           7.7498   -3.7390   20.5575 C.3     1  UNL1        0.0005
     29 C           6.2725   -3.9647   20.4294 C.3     1  UNL1        0.0088
     30 C           4.3887   -4.0234   20.0214 C.2     1  UNL1        0.0532
     31 O           4.4640   -4.4181   21.4666 O.co2   1  UNL1       -0.5491
     32 O           3.2200   -4.4550   19.1860 O.co2   1  UNL1       -0.5491
@<TRIPOS>UNITY_ATOM_ATTR
31 1
charge -1
@<TRIPOS>BOND
     1    18    17    1
     2    18    11    1
     3    11     1    1
     4     1     2   ar
     5     2     3   ar
     6     3     4   ar
     7     4     5   ar
     8     5     6   ar
     9     6    22    1
    10    22    23    1
    11    23    24    1
    12    24    30    1
    13    30    31   ar
    14    30    32   ar
    15    24    25    1
    16    25    26    1
    17    26    27    1
    18    27    28    1
    19    28    29    1
    20     6     7   ar
    21     7     8   ar
    22     8     9   ar
    23     9    10   ar
    24    11    12    1
    25    12    13   ar
    26    13    14   ar
    27    14    15   ar
    28    15    16   ar
    29    18    19    1
    30    19    20    1
    31    19    21    1
    32    10     1   ar
    33    16    12   ar
    34     9     4   ar
    35    29    24    1
@<TRIPOS>MOLECULE
*****
 32 35 0 0 0
SMALL
GASTEIGER

@<TRIPOS>ATOM
      1 C           3.0789   -0.9443   20.8212 C.ar    1  UNL1       -0.0004
      2 C           1.8147   -0.2723   20.3740 C.ar    1  UNL1       -0.0024
      3 C           0.9749    0.4800   21.3632 C.ar    1  UNL1       -0.0002
      4 C           1.3992    0.5603   22.7997 C.ar    1  UNL1        0.0030
      5 C           0.5593    1.3126   23.7889 C.ar    1  UNL1        0.0369
      6 C           0.9836    1.3929   25.2254 C.ar    1  UNL1        0.1386
      7 C           2.2479    0.7208   25.6726 C.ar    1  UNL1        0.0369
      8 C           3.0878   -0.0315   24.6834 C.ar    1  UNL1        0.0031
      9 C           2.6634   -0.1118   23.2469 C.ar    1  UNL1       -0.0001
     10 C           3.5033   -0.8640   22.2577 C.ar    1  UNL1       -0.0024
     11 C           3.9189   -1.6967   19.8319 C.3     1  UNL1        0.1240
     12 N           4.5480   -0.9729   18.6785 N.ar    1  UNL1       -0.3045
     13 C           5.7500   -0.0784   18.7487 C.ar    1  UNL1        0.0983
     14 C           6.0305    0.4307   17.3659 C.ar    1  UNL1        0.1193
     15 N           5.0018   -0.1492   16.4410 N.ar    1  UNL1       -0.2223
     16 C           4.0856   -1.0167   17.2522 C.ar    1  UNL1        0.1788
     17 C           3.3010   -4.1412   19.2054 C.3     1  UNL1        0.0197
     18 C           4.1297   -3.1726   19.9962 C.3     1  UNL1        0.0827
     19 N           5.1691   -3.6801   20.9512 N.3     1  UNL1       -0.2696
     20 C           6.5881   -3.8493   20.4949 C.3     1  UNL1        0.0897
     21 C           4.7897   -4.0185   22.3624 C.3     1  UNL1        0.0897
     22 O           0.1438    2.1452   26.2146 O.3     1  UNL1       -0.4751
     23 C          -0.3789    1.4500   27.4368 C.3     1  UNL1        0.2103
     24 C           0.0615    1.8961   28.7995 C.3     1  UNL1        0.0723
     25 C           0.0558    3.2141   28.0831 C.3     1  UNL1        0.0088
     26 C           0.4394    4.4665   28.8139 C.3     1  UNL1        0.0005
     27 C           0.8288    4.4011   30.2611 C.3     1  UNL1        0.0000
     28 C           0.8345    3.0832   30.9773 C.3     1  UNL1        0.0005
     29 C           0.4509    1.8308   30.2466 C.3     1  UNL1        0.0088
     30 C          -0.0857    0.4233   29.0425 C.2     1  UNL1        0.0532
     31 O          -1.2932   -0.3043   28.5301 O.co2   1  UNL1       -0.5491
     32 O           0.9745   -0.3219   29.7980 O.co2   1  UNL1       -0.5491
@<TRIPOS>UNITY_ATOM_ATTR
31 1
charge -1
@<TRIPOS>BOND
     1    18    17    1
     2    18    11    1
     3    11     1    1
     4     1     2   ar
     5     2     3   ar
     6     3     4   ar
     7     4     5   ar
     8     5     6   ar
     9     6    22    1
    10    22    23    1
    11    23    24    1
    12    24    30    1
    13    30    31   ar
    14    30    32   ar
    15    24    25    1
    16    25    26    1
    17    26    27    1
    18    27    28    1
    19    28    29    1
    20     6     7   ar
    21     7     8   ar
    22     8     9   ar
    23     9    10   ar
    24    11    12    1
    25    12    13   ar
    26    13    14   ar
    27    14    15   ar
    28    15    16   ar
    29    18    19    1
    30    19    20    1
    31    19    21    1
    32    10     1   ar
    33    16    12   ar
    34     9     4   ar
    35    29    24    1
@<TRIPOS>MOLECULE
*****
 32 35 0 0 0
SMALL
GASTEIGER

@<TRIPOS>ATOM
      1 C           1.3120    1.1512   24.9065 C.ar    1  UNL1       -0.0004
      2 C           2.5797    0.3819   25.1328 C.ar    1  UNL1       -0.0024
      3 C           3.2217   -0.3567   23.9960 C.ar    1  UNL1       -0.0002
      4 C           2.5962   -0.3260   22.6331 C.ar    1  UNL1        0.0030
      5 C           3.2383   -1.0646   21.4963 C.ar    1  UNL1        0.0369
      6 C           2.6127   -1.0339   20.1333 C.ar    1  UNL1        0.1386
      7 C           1.3450   -0.2646   19.9071 C.ar    1  UNL1        0.0369
      8 C           0.7030    0.4740   21.0438 C.ar    1  UNL1        0.0031
      9 C           1.3285    0.4433   22.4068 C.ar    1  UNL1       -0.0001
     10 C           0.6865    1.1819   23.5435 C.ar    1  UNL1       -0.0024
     11 C           0.6699    1.8898   26.0433 C.3     1  UNL1        0.1240
     12 N           0.6579    1.2880   27.4172 N.ar    1  UNL1       -0.3045
     13 C           1.7464    1.4084   28.4421 C.ar    1  UNL1        0.0983
     14 C           1.3165    0.6549   29.6658 C.ar    1  UNL1        0.1193
     15 N          -0.0378    0.0687   29.3971 N.ar    1  UNL1       -0.2223
     16 C          -0.4449    0.4600   28.0074 C.ar    1  UNL1        0.1788
     17 C          -1.4541    3.3649   25.7927 C.3     1  UNL1        0.0197
     18 C           0.0399    3.2302   25.8061 C.3     1  UNL1        0.0827
     19 N           0.9036    4.4359   25.5823 N.3     1  UNL1       -0.2696
     20 C           0.7987    5.2060   24.2993 C.3     1  UNL1        0.0897
     21 C           1.8724    4.8716   26.6414 C.3     1  UNL1        0.0897
     22 O           3.2548   -1.7725   18.9966 O.3     1  UNL1       -0.4751
     23 C           3.8298   -3.1399   19.2201 C.3     1  UNL1        0.2103
     24 C           5.2619   -3.2919   19.6392 C.3     1  UNL1        0.0723
     25 C           5.4183   -2.2853   18.5381 C.3     1  UNL1        0.0088
     26 C           6.7797   -1.7620   18.1880 C.3     1  UNL1        0.0005
     27 C           7.9849   -2.2454   18.9391 C.3     1  UNL1        0.0000
     28 C           7.8285   -3.2519   20.0401 C.3     1  UNL1        0.0005
     29 C           6.4671   -3.7752   20.3902 C.3     1  UNL1        0.0088
     30 C           4.6082   -4.2457   20.5947 C.2     1  UNL1        0.0532
     31 O           4.9017   -4.1555   22.0629 O.co2   1  UNL1       -0.5491
     32 O           3.6610   -5.2896   20.0819 O.co2   1  UNL1       -0.5491
@<TRIPOS>UNITY_ATOM_ATTR
31 1
charge -1
@<TRIPOS>BOND
     1    18    17    1
     2    18    11    1
     3    11     1    1
     4     1     2   ar
     5     2     3   ar
     6     3     4   ar
     7     4     5   ar
     8     5     6   ar
     9     6    22    1
    10    22    23    1
    11    23    24    1
    12    24    30    1
    13    30    31   ar
    14    30    32   ar
    15    24    25    1
    16    25    26    1
    17    26    27    1
    18    27    28    1
    19    28    29    1
    20     6     7   ar
    21     7     8   ar
    22     8     9   ar
    23     9    10   ar
    24    11    12    1
    25    12    13   ar
    26    13    14   ar
    27    14    15   ar
    28    15    16   ar
    29    18    19    1
    30    19    20    1
    31    19    21    1
    32    10     1   ar
    33    16    12   ar
    34     9     4   ar
    35    29    24    1
@<TRIPOS>MOLECULE
*****
 32 35 0 0 0
SMALL
GASTEIGER

@<TRIPOS>ATOM
      1 C           2.8144   -1.0144   21.0440 C.ar    1  UNL1       -0.0004
      2 C           1.6933   -0.7487   20.0835 C.ar    1  UNL1       -0.0024
      3 C           0.6286    0.2490   20.4312 C.ar    1  UNL1       -0.0002
      4 C           0.6850    0.9810   21.7392 C.ar    1  UNL1        0.0030
      5 C          -0.3799    1.9788   22.0868 C.ar    1  UNL1        0.0369
      6 C          -0.3235    2.7108   23.3948 C.ar    1  UNL1        0.1386
      7 C           0.7977    2.4451   24.3553 C.ar    1  UNL1        0.0369
      8 C           1.8625    1.4474   24.0077 C.ar    1  UNL1        0.0031
      9 C           1.8061    0.7153   22.6996 C.ar    1  UNL1       -0.0001
     10 C           2.8708   -0.2824   22.3520 C.ar    1  UNL1       -0.0024
     11 C           3.8792   -2.0121   20.6964 C.3     1  UNL1        0.1240
     12 N           4.8742   -2.4394   21.7344 N.ar    1  UNL1       -0.3045
     13 C           4.6883   -3.5440   22.7320 C.ar    1  UNL1        0.0983
     14 C           5.9290   -3.6245   23.5712 C.ar    1  UNL1        0.1193
     15 N           6.8817   -2.5695   23.0922 N.ar    1  UNL1       -0.2223
     16 C           6.2298   -1.8372   21.9570 C.ar    1  UNL1        0.1788
     17 C           3.3307   -3.9173   19.0172 C.3     1  UNL1        0.0197
     18 C           3.9490   -2.5825   19.3108 C.3     1  UNL1        0.0827
     19 N           4.6370   -1.8182   18.2189 N.3     1  UNL1       -0.2696
     20 C           6.1353   -1.7935   18.1500 C.3     1  UNL1        0.0897
     21 C           3.8269   -1.0786   17.1958 C.3     1  UNL1        0.0897
     22 O          -1.3882    3.7085   23.7425 O.3     1  UNL1       -0.4751
     23 C          -2.2778    3.4739   24.9272 C.3     1  UNL1        0.2103
     24 C          -3.7239    3.8683   24.8691 C.3     1  UNL1        0.0723
     25 C          -3.5263    3.3941   23.4597 C.3     1  UNL1        0.0088
     26 C          -4.6690    3.4314   22.4887 C.3     1  UNL1        0.0005
     27 C          -6.0093    3.9430   22.9271 C.3     1  UNL1        0.0000
     28 C          -6.2068    4.4171   24.3364 C.3     1  UNL1        0.0005
     29 C          -5.0641    4.3798   25.3073 C.3     1  UNL1        0.0088
     30 C          -3.4192    4.2055   26.2985 C.2     1  UNL1        0.0532
     31 O          -2.0616    4.7209   26.6746 O.co2   1  UNL1       -0.5491
     32 O          -4.4720    4.0273   27.3520 O.co2   1  UNL1       -0.5491
@<TRIPOS>UNITY_ATOM_ATTR
31 1
charge -1
@<TRIPOS>BOND
     1    18    17    1
     2    18    11    1
     3    11     1    1
     4     1     2   ar
     5     2     3   ar
     6     3     4   ar
     7     4     5   ar
     8     5     6   ar
     9     6    22    1
    10    22    23    1
    11    23    24    1
    12    24    30    1
    13    30    31   ar
    14    30    32   ar
    15    24    25    1
    16    25    26    1
    17    26    27    1
    18    27    28    1
    19    28    29    1
    20     6     7   ar
    21     7     8   ar
    22     8     9   ar
    23     9    10   ar
    24    11    12    1
    25    12    13   ar
    26    13    14   ar
    27    14    15   ar
    28    15    16   ar
    29    18    19    1
    30    19    20    1
    31    19    21    1
    32    10     1   ar
    33    16    12   ar
    34     9     4   ar
    35    29    24    1
@<TRIPOS>MOLECULE
*****
 32 35 0 0 0
SMALL
GASTEIGER

@<TRIPOS>ATOM
      1 C           2.9682   -0.4917   19.6184 C.ar    1  UNL1       -0.0004
      2 C           2.0620   -0.8785   20.7494 C.ar    1  UNL1       -0.0024
      3 C           0.8391   -0.0612   21.0438 C.ar    1  UNL1       -0.0002
      4 C           0.5225    1.1428   20.2071 C.ar    1  UNL1        0.0030
      5 C          -0.7005    1.9601   20.5014 C.ar    1  UNL1        0.0369
      6 C          -1.0172    3.1641   19.6648 C.ar    1  UNL1        0.1386
      7 C          -0.1109    3.5508   18.5337 C.ar    1  UNL1        0.0369
      8 C           1.1119    2.7336   18.2394 C.ar    1  UNL1        0.0031
      9 C           1.4286    1.5296   19.0761 C.ar    1  UNL1       -0.0001
     10 C           2.6515    0.7123   18.7818 C.ar    1  UNL1       -0.0024
     11 C           4.1911   -1.3090   19.3241 C.3     1  UNL1        0.1240
     12 N           5.3636   -0.6812   18.6305 N.ar    1  UNL1       -0.3045
     13 C           6.5887   -0.1275   19.2958 C.ar    1  UNL1        0.0983
     14 C           7.4991    0.3990   18.2263 C.ar    1  UNL1        0.1193
     15 N           6.8368    0.1708   16.8999 N.ar    1  UNL1       -0.2223
     16 C           5.5169   -0.4968   17.1498 C.ar    1  UNL1        0.1788
     17 C           3.4186   -3.7660   18.9823 C.3     1  UNL1        0.0197
     18 C           4.2415   -2.7540   19.7233 C.3     1  UNL1        0.0827
     19 N           5.1146   -3.1871   20.8634 N.3     1  UNL1       -0.2696
     20 C           4.5742   -3.1906   22.2627 C.3     1  UNL1        0.0897
     21 C           6.5282   -3.6167   20.6044 C.3     1  UNL1        0.0897
     22 O          -2.2400    3.9813   19.9591 O.3     1  UNL1       -0.4751
     23 C          -3.5963    3.4654   19.5790 C.3     1  UNL1        0.2103
     24 C          -4.8222    4.0179   20.2436 C.3     1  UNL1        0.0723
     25 C          -4.2388    3.2354   21.3826 C.3     1  UNL1        0.0088
     26 C          -4.9360    3.2105   22.7104 C.3     1  UNL1        0.0005
     27 C          -6.2168    3.9682   22.8994 C.3     1  UNL1        0.0000
     28 C          -6.8002    4.7507   21.7604 C.3     1  UNL1        0.0005
     29 C          -6.1029    4.7756   20.4326 C.3     1  UNL1        0.0088
     30 C          -4.9799    4.6086   18.8739 C.2     1  UNL1        0.0532
     31 O          -4.7234    3.7660   17.6597 O.co2   1  UNL1       -0.5491
     32 O          -5.3941    6.0419   18.7183 O.co2   1  UNL1       -0.5491
@<TRIPOS>UNITY_ATOM_ATTR
31 1
charge -1
@<TRIPOS>BOND
     1    18    17    1
     2    18    11    1
     3    11     1    1
     4     1     2   ar
     5     2     3   ar
     6     3     4   ar
     7     4     5   ar
     8     5     6   ar
     9     6    22    1
    10    22    23    1
    11    23    24    1
    12    24    30    1
    13    30    31   ar
    14    30    32   ar
    15    24    25    1
    16    25    26    1
    17    26    27    1
    18    27    28    1
    19    28    29    1
    20     6     7   ar
    21     7     8   ar
    22     8     9   ar
    23     9    10   ar
    24    11    12    1
    25    12    13   ar
    26    13    14   ar
    27    14    15   ar
    28    15    16   ar
    29    18    19    1
    30    19    20    1
    31    19    21    1
    32    10     1   ar
    33    16    12   ar
    34     9     4   ar
    35    29    24    1
@<TRIPOS>MOLECULE
*****
 32 35 0 0 0
SMALL
GASTEIGER

@<TRIPOS>ATOM
      1 C          -9.0060  -18.1919   22.1241 C.ar    1  UNL1       -0.0004
      2 C          -7.9381  -17.3682   22.7808 C.ar    1  UNL1       -0.0024
      3 C          -6.4923  -17.7020   22.5614 C.ar    1  UNL1       -0.0002
      4 C          -6.1144  -18.8595   21.6854 C.ar    1  UNL1        0.0030
      5 C          -4.6684  -19.1932   21.4660 C.ar    1  UNL1        0.0369
      6 C          -4.2905  -20.3507   20.5901 C.ar    1  UNL1        0.1386
      7 C          -5.3584  -21.1744   19.9334 C.ar    1  UNL1        0.0369
      8 C          -6.8042  -20.8407   20.1528 C.ar    1  UNL1        0.0031
      9 C          -7.1822  -19.6832   21.0288 C.ar    1  UNL1       -0.0001
     10 C          -8.6280  -19.3494   21.2482 C.ar    1  UNL1       -0.0024
     11 C         -10.4519  -17.8582   22.3435 C.3     1  UNL1        0.1240
     12 N         -11.2027  -17.0646   21.3156 N.ar    1  UNL1       -0.3045
     13 C         -10.5958  -16.2910   20.1829 C.ar    1  UNL1        0.0983
     14 C         -11.7103  -15.6536   19.4072 C.ar    1  UNL1        0.1193
     15 N         -13.0060  -16.0333   20.0605 N.ar    1  UNL1       -0.2223
     16 C         -12.6923  -16.9054   21.2400 C.ar    1  UNL1        0.1788
     17 C         -12.6283  -18.1323   23.7356 C.3     1  UNL1        0.0197
     18 C         -11.1469  -18.3179   23.5907 C.3     1  UNL1        0.0827
     19 N         -10.3605  -18.9633   24.6930 N.3     1  UNL1       -0.2696
     20 C          -9.7499  -18.1192   25.7723 C.3     1  UNL1        0.0897
     21 C         -10.1847  -20.4528   24.7161 C.3     1  UNL1        0.0897
     22 O          -2.8447  -20.6845   20.3707 O.3     1  UNL1       -0.4751
     23 C          -1.7791  -19.9141   21.0927 C.3     1  UNL1        0.2103
     24 C          -1.8291  -18.4153   21.1253 C.3     1  UNL1        0.0723
     25 C          -2.4648  -18.7259   22.4480 C.3     1  UNL1        0.0088
     26 C          -2.9237  -17.6107   23.3399 C.3     1  UNL1        0.0005
     27 C          -2.7468  -16.1847   22.9092 C.3     1  UNL1        0.0000
     28 C          -2.1110  -15.8741   21.5866 C.3     1  UNL1        0.0005
     29 C          -1.6522  -16.9894   20.6947 C.3     1  UNL1        0.0088
     30 C          -1.1760  -18.6252   19.7914 C.2     1  UNL1        0.0532
     31 O          -1.9637  -18.4243   18.5308 O.co2   1  UNL1       -0.5491
     32 O           0.2648  -19.0359   19.7180 O.co2   1  UNL1       -0.5491
@<TRIPOS>UNITY_ATOM_ATTR
31 1
charge -1
@<TRIPOS>BOND
     1    18    17    1
     2    18    11    1
     3    11     1    1
     4     1     2   ar
     5     2     3   ar
     6     3     4   ar
     7     4     5   ar
     8     5     6   ar
     9     6    22    1
    10    22    23    1
    11    23    24    1
    12    24    30    1
    13    30    31   ar
    14    30    32   ar
    15    24    25    1
    16    25    26    1
    17    26    27    1
    18    27    28    1
    19    28    29    1
    20     6     7   ar
    21     7     8   ar
    22     8     9   ar
    23     9    10   ar
    24    11    12    1
    25    12    13   ar
    26    13    14   ar
    27    14    15   ar
    28    15    16   ar
    29    18    19    1
    30    19    20    1
    31    19    21    1
    32    10     1   ar
    33    16    12   ar
    34     9     4   ar
    35    29    24    1
