@<TRIPOS>MOLECULE
*****
 35 39 0 0 0
SMALL
GASTEIGER

@<TRIPOS>ATOM
      1 O           0.4478    2.3572   23.5252 O.2     1  UNL1       -0.2526
      2 C          -0.6242    2.7267   22.5432 C.2     1  UNL1        0.3044
      3 N          -1.8876    3.4722   22.8563 N.am    1  UNL1       -0.2833
      4 C          -2.6653    3.6217   21.5824 C.3     1  UNL1        0.1144
      5 C          -1.8825    2.9686   20.4821 C.3     1  UNL1        0.1212
      6 N          -0.6210    2.4154   21.0759 N.am    1  UNL1       -0.2634
      7 H          -2.1588    3.8049   23.7423 H       1  UNL1        0.1515
      8 C          -3.6497    3.9209   20.4908 C.ar    1  UNL1       -0.0007
      9 C          -4.9705    3.2110   20.4567 C.ar    1  UNL1       -0.0001
     10 C          -5.9549    3.5102   19.3652 C.ar    1  UNL1        0.0294
     11 C          -5.6183    4.5194   18.3077 C.ar    1  UNL1        0.1401
     12 F          -6.6027    4.8186   17.2161 F       1  UNL1       -0.2042
     13 C          -4.2974    5.2293   18.3417 C.ar    1  UNL1        0.0294
     14 C          -3.3131    4.9301   19.4333 C.ar    1  UNL1       -0.0001
     15 C          -3.6538    4.3374   22.4545 C.ar    1  UNL1       -0.0007
     16 C          -3.8165    5.8241   22.3400 C.ar    1  UNL1       -0.0001
     17 C          -4.8051    6.5399   23.2121 C.ar    1  UNL1        0.0294
     18 C          -5.6310    5.7688   24.1987 C.ar    1  UNL1        0.1401
     19 F          -6.6195    6.4845   25.0707 F       1  UNL1       -0.2042
     20 C          -5.4683    4.2821   24.3132 C.ar    1  UNL1        0.0294
     21 C          -4.4797    3.5663   23.4411 C.ar    1  UNL1       -0.0001
     22 C           0.4547    1.6801   20.3329 C.3     1  UNL1        0.0797
     23 C           1.4006    2.4321   19.4441 C.3     1  UNL1        0.0372
     24 C           2.4763    1.6968   18.7011 C.3     1  UNL1        0.0741
     25 N           2.6062    0.2095   18.8468 N.3     1  UNL1       -0.2688
     26 C           1.6604   -0.5424   19.7356 C.3     1  UNL1        0.0741
     27 C           0.5846    0.1929   20.4786 C.3     1  UNL1        0.0372
     28 C           3.6819   -0.5257   18.1038 C.3     1  UNL1        0.0992
     29 C           4.4234   -1.6458   18.7714 C.ar    1  UNL1       -0.0039
     30 C           5.4167   -1.3469   19.8548 C.ar    1  UNL1       -0.0028
     31 C           6.1581   -2.4670   20.5224 C.ar    1  UNL1        0.0020
     32 C           5.9062   -3.8860   20.1065 C.ar    1  UNL1        0.0296
     33 C           4.9129   -4.1849   19.0230 C.ar    1  UNL1        0.1399
     34 F           4.6610   -5.6039   18.6071 F       1  UNL1       -0.2042
     35 C           4.1715   -3.0648   18.3555 C.ar    1  UNL1        0.0267
@<TRIPOS>BOND
     1     1     2    2
     2     2     3   am
     3     3     4    1
     4     4     8    1
     5     8     9   ar
     6     9    10   ar
     7    10    11   ar
     8    11    12    1
     9    11    13   ar
    10    13    14   ar
    11     4    15    1
    12    15    16   ar
    13    16    17   ar
    14    17    18   ar
    15    18    19    1
    16    18    20   ar
    17    20    21   ar
    18     4     5    1
    19     5     6    1
    20     6    22    1
    21    22    23    1
    22    23    24    1
    23    24    25    1
    24    25    28    1
    25    28    29    1
    26    29    30   ar
    27    30    31   ar
    28    31    32   ar
    29    32    33   ar
    30    33    34    1
    31    33    35   ar
    32    25    26    1
    33    26    27    1
    34     6     2   am
    35    27    22    1
    36    14     8   ar
    37    21    15   ar
    38    35    29   ar
    39     3     7    1
@<TRIPOS>MOLECULE
*****
 35 39 0 0 0
SMALL
GASTEIGER

@<TRIPOS>ATOM
      1 O          -0.9435    3.5940   16.9715 O.2     1  UNL1       -0.2526
      2 C          -1.4876    3.5757   18.3692 C.2     1  UNL1        0.3044
      3 N          -2.8073    4.1368   18.8090 N.am    1  UNL1       -0.2833
      4 C          -2.9428    3.9010   20.2841 C.3     1  UNL1        0.1144
      5 C          -1.7068    3.1941   20.7560 C.3     1  UNL1        0.1212
      6 N          -0.8074    2.9931   19.5725 N.am    1  UNL1       -0.2634
      7 H          -3.4685    4.5817   18.2310 H       1  UNL1        0.1515
      8 C          -3.3548    3.8089   21.7236 C.ar    1  UNL1       -0.0007
      9 C          -2.5412    4.4933   22.7817 C.ar    1  UNL1       -0.0001
     10 C          -2.9532    4.4012   24.2211 C.ar    1  UNL1        0.0294
     11 C          -4.1787    3.6248   24.6023 C.ar    1  UNL1        0.1401
     12 F          -4.5906    3.5327   26.0417 F       1  UNL1       -0.2042
     13 C          -4.9922    2.9404   23.5441 C.ar    1  UNL1        0.0294
     14 C          -4.5803    3.0325   22.1048 C.ar    1  UNL1       -0.0001
     15 C          -4.2649    4.5885   20.1132 C.ar    1  UNL1       -0.0007
     16 C          -5.4047    3.8692   19.4548 C.ar    1  UNL1       -0.0001
     17 C          -6.7270    4.5568   19.2839 C.ar    1  UNL1        0.0294
     18 C          -6.9093    5.9636   19.7713 C.ar    1  UNL1        0.1401
     19 F          -8.2314    6.6511   19.6003 F       1  UNL1       -0.2042
     20 C          -5.7695    6.6829   20.4297 C.ar    1  UNL1        0.0294
     21 C          -4.4473    5.9954   20.6007 C.ar    1  UNL1       -0.0001
     22 C           0.5362    2.3265   19.5894 C.3     1  UNL1        0.0797
     23 C           0.8603    1.2667   18.5785 C.3     1  UNL1        0.0372
     24 C           2.2040    0.6001   18.5953 C.3     1  UNL1        0.0741
     25 N           3.2235    0.9933   19.6230 N.3     1  UNL1       -0.2688
     26 C           2.8993    2.0531   20.6338 C.3     1  UNL1        0.0741
     27 C           1.5557    2.7197   20.6170 C.3     1  UNL1        0.0372
     28 C           4.5671    0.3267   19.6398 C.3     1  UNL1        0.0992
     29 C           4.6616   -1.1702   19.6583 C.ar    1  UNL1       -0.0039
     30 C           5.0343   -1.9135   18.4099 C.ar    1  UNL1       -0.0028
     31 C           5.1287   -3.4104   18.4283 C.ar    1  UNL1        0.0020
     32 C           4.8505   -4.1639   19.6951 C.ar    1  UNL1        0.0296
     33 C           4.4779   -3.4206   20.9435 C.ar    1  UNL1        0.1399
     34 F           4.1997   -4.1741   22.2103 F       1  UNL1       -0.2042
     35 C           4.3834   -1.9237   20.9251 C.ar    1  UNL1        0.0267
@<TRIPOS>BOND
     1     1     2    2
     2     2     3   am
     3     3     4    1
     4     4     8    1
     5     8     9   ar
     6     9    10   ar
     7    10    11   ar
     8    11    12    1
     9    11    13   ar
    10    13    14   ar
    11     4    15    1
    12    15    16   ar
    13    16    17   ar
    14    17    18   ar
    15    18    19    1
    16    18    20   ar
    17    20    21   ar
    18     4     5    1
    19     5     6    1
    20     6    22    1
    21    22    23    1
    22    23    24    1
    23    24    25    1
    24    25    28    1
    25    28    29    1
    26    29    30   ar
    27    30    31   ar
    28    31    32   ar
    29    32    33   ar
    30    33    34    1
    31    33    35   ar
    32    25    26    1
    33    26    27    1
    34     6     2   am
    35    27    22    1
    36    14     8   ar
    37    21    15   ar
    38    35    29   ar
    39     3     7    1
@<TRIPOS>MOLECULE
*****
 35 39 0 0 0
SMALL
GASTEIGER

@<TRIPOS>ATOM
      1 O           6.1556    1.8837   32.4318 O.2     1  UNL1       -0.2526
      2 C           5.2537    1.8890   33.6303 C.2     1  UNL1        0.3044
      3 N           5.6506    2.2506   35.0309 N.am    1  UNL1       -0.2833
      4 C           4.4387    2.1187   35.9048 C.3     1  UNL1        0.1144
      5 C           3.2927    1.6757   35.0443 C.3     1  UNL1        0.1212
      6 N           3.7964    1.5337   33.6385 N.am    1  UNL1       -0.2634
      7 H           6.5489    2.5260   35.3249 H       1  UNL1        0.1515
      8 C           3.4218    2.0777   37.0068 C.ar    1  UNL1       -0.0007
      9 C           3.3876    0.9142   37.9528 C.ar    1  UNL1       -0.0001
     10 C           2.3708    0.8732   39.0548 C.ar    1  UNL1        0.0294
     11 C           1.3882    1.9958   39.2108 C.ar    1  UNL1        0.1401
     12 F           0.3714    1.9548   40.3128 F       1  UNL1       -0.2042
     13 C           1.4225    3.1594   38.2648 C.ar    1  UNL1        0.0294
     14 C           2.4393    3.2003   37.1628 C.ar    1  UNL1       -0.0001
     15 C           5.3721    2.5532   36.9957 C.ar    1  UNL1       -0.0007
     16 C           5.2213    3.9110   37.6151 C.ar    1  UNL1       -0.0001
     17 C           6.1547    4.3455   38.7060 C.ar    1  UNL1        0.0294
     18 C           7.2388    3.4222   39.1775 C.ar    1  UNL1        0.1401
     19 F           8.1721    3.8567   40.2683 F       1  UNL1       -0.2042
     20 C           7.3896    2.0644   38.5581 C.ar    1  UNL1        0.0294
     21 C           6.4562    1.6299   37.4671 C.ar    1  UNL1       -0.0001
     22 C           2.9853    1.1107   32.4498 C.3     1  UNL1        0.0797
     23 C           3.3135   -0.1659   31.7338 C.3     1  UNL1        0.0372
     24 C           2.5023   -0.5889   30.5451 C.3     1  UNL1        0.0741
     25 N           1.3630    0.2646   30.0723 N.3     1  UNL1       -0.2688
     26 C           1.0348    1.5412   30.7884 C.3     1  UNL1        0.0741
     27 C           1.8460    1.9642   31.9771 C.3     1  UNL1        0.0372
     28 C           0.5519   -0.1584   28.8836 C.3     1  UNL1        0.0992
     29 C           0.2349    0.8307   27.8014 C.ar    1  UNL1       -0.0039
     30 C           1.2388    1.1091   26.7223 C.ar    1  UNL1       -0.0028
     31 C           0.9217    2.0982   25.6401 C.ar    1  UNL1        0.0020
     32 C          -0.3992    2.8089   25.6371 C.ar    1  UNL1        0.0296
     33 C          -1.4031    2.5306   26.7163 C.ar    1  UNL1        0.1399
     34 F          -2.7240    3.2414   26.7133 F       1  UNL1       -0.2042
     35 C          -1.0861    1.5415   27.7985 C.ar    1  UNL1        0.0267
@<TRIPOS>BOND
     1     1     2    2
     2     2     3   am
     3     3     4    1
     4     4     8    1
     5     8     9   ar
     6     9    10   ar
     7    10    11   ar
     8    11    12    1
     9    11    13   ar
    10    13    14   ar
    11     4    15    1
    12    15    16   ar
    13    16    17   ar
    14    17    18   ar
    15    18    19    1
    16    18    20   ar
    17    20    21   ar
    18     4     5    1
    19     5     6    1
    20     6    22    1
    21    22    23    1
    22    23    24    1
    23    24    25    1
    24    25    28    1
    25    28    29    1
    26    29    30   ar
    27    30    31   ar
    28    31    32   ar
    29    32    33   ar
    30    33    34    1
    31    33    35   ar
    32    25    26    1
    33    26    27    1
    34     6     2   am
    35    27    22    1
    36    14     8   ar
    37    21    15   ar
    38    35    29   ar
    39     3     7    1
@<TRIPOS>MOLECULE
*****
 35 39 0 0 0
SMALL
GASTEIGER

@<TRIPOS>ATOM
      1 O          -1.8169    3.5854   20.8297 O.2     1  UNL1       -0.2526
      2 C          -1.2889    3.2970   22.2038 C.2     1  UNL1        0.3044
      3 N          -1.8462    3.8270   23.4916 N.am    1  UNL1       -0.2833
      4 C          -1.0127    3.2856   24.6150 C.3     1  UNL1        0.1144
      5 C           0.0597    2.4209   24.0215 C.3     1  UNL1        0.1212
      6 N          -0.1110    2.4280   22.5312 N.am    1  UNL1       -0.2634
      7 H          -2.6227    4.4252   23.5834 H       1  UNL1        0.1515
      8 C          -0.3756    2.9084   25.9196 C.ar    1  UNL1       -0.0007
      9 C          -0.9644    1.8078   26.7513 C.ar    1  UNL1       -0.0001
     10 C          -0.3272    1.4306   28.0558 C.ar    1  UNL1        0.0294
     11 C           0.8988    2.1542   28.5286 C.ar    1  UNL1        0.1401
     12 F           1.5359    1.7770   29.8332 F       1  UNL1       -0.2042
     13 C           1.4876    3.2548   27.6968 C.ar    1  UNL1        0.0294
     14 C           0.8504    3.6319   26.3923 C.ar    1  UNL1       -0.0001
     15 C          -1.9519    4.0714   25.4812 C.ar    1  UNL1       -0.0007
     16 C          -3.3330    3.5528   25.7529 C.ar    1  UNL1       -0.0001
     17 C          -4.2723    4.3386   26.6192 C.ar    1  UNL1        0.0294
     18 C          -3.8304    5.6429   27.2138 C.ar    1  UNL1        0.1401
     19 F          -4.7697    6.4286   28.0800 F       1  UNL1       -0.2042
     20 C          -2.4494    6.1615   26.9421 C.ar    1  UNL1        0.0294
     21 C          -1.5101    5.3757   26.0758 C.ar    1  UNL1       -0.0001
     22 C           0.7458    1.6948   21.5421 C.3     1  UNL1        0.0797
     23 C           2.1875    2.0730   21.3733 C.3     1  UNL1        0.0372
     24 C           3.0442    1.3398   20.3842 C.3     1  UNL1        0.0741
     25 N           2.4594    0.2283   19.5640 N.3     1  UNL1       -0.2688
     26 C           1.0177   -0.1498   19.7329 C.3     1  UNL1        0.0741
     27 C           0.1610    0.5834   20.7220 C.3     1  UNL1        0.0372
     28 C           3.3162   -0.5048   18.5749 C.3     1  UNL1        0.0992
     29 C           4.0189   -1.7662   18.9812 C.ar    1  UNL1       -0.0039
     30 C           5.5023   -1.7602   19.2030 C.ar    1  UNL1       -0.0028
     31 C           6.2050   -3.0217   19.6092 C.ar    1  UNL1        0.0020
     32 C           5.4242   -4.2890   19.7937 C.ar    1  UNL1        0.0296
     33 C           3.9407   -4.2951   19.5719 C.ar    1  UNL1        0.1399
     34 F           3.1599   -5.5625   19.7563 F       1  UNL1       -0.2042
     35 C           3.2381   -3.0336   19.1656 C.ar    1  UNL1        0.0267
@<TRIPOS>BOND
     1     1     2    2
     2     2     3   am
     3     3     4    1
     4     4     8    1
     5     8     9   ar
     6     9    10   ar
     7    10    11   ar
     8    11    12    1
     9    11    13   ar
    10    13    14   ar
    11     4    15    1
    12    15    16   ar
    13    16    17   ar
    14    17    18   ar
    15    18    19    1
    16    18    20   ar
    17    20    21   ar
    18     4     5    1
    19     5     6    1
    20     6    22    1
    21    22    23    1
    22    23    24    1
    23    24    25    1
    24    25    28    1
    25    28    29    1
    26    29    30   ar
    27    30    31   ar
    28    31    32   ar
    29    32    33   ar
    30    33    34    1
    31    33    35   ar
    32    25    26    1
    33    26    27    1
    34     6     2   am
    35    27    22    1
    36    14     8   ar
    37    21    15   ar
    38    35    29   ar
    39     3     7    1
@<TRIPOS>MOLECULE
*****
 35 39 0 0 0
SMALL
GASTEIGER

@<TRIPOS>ATOM
      1 O           4.6096    1.3705   25.0833 O.2     1  UNL1       -0.2526
      2 C           4.6533    0.3185   24.0150 C.2     1  UNL1        0.3044
      3 N           3.9224    0.3606   22.7059 N.am    1  UNL1       -0.2833
      4 C           4.2529   -0.8922   21.9500 C.3     1  UNL1        0.1144
      5 C           5.1880   -1.7085   22.7921 C.3     1  UNL1        0.1212
      6 N           5.4355   -0.9602   24.0683 N.am    1  UNL1       -0.2634
      7 H           3.3298    1.0835   22.3969 H       1  UNL1        0.1515
      8 C           4.3940   -2.0238   20.9755 C.ar    1  UNL1       -0.0007
      9 C           5.0618   -1.7949   19.6520 C.ar    1  UNL1       -0.0001
     10 C           5.2029   -2.9265   18.6776 C.ar    1  UNL1        0.0294
     11 C           4.6762   -4.2869   19.0266 C.ar    1  UNL1        0.1401
     12 F           4.8174   -5.4186   18.0521 F       1  UNL1       -0.2042
     13 C           4.0084   -4.5158   20.3501 C.ar    1  UNL1        0.0294
     14 C           3.8673   -3.3842   21.3245 C.ar    1  UNL1       -0.0001
     15 C           3.3472   -0.3125   20.9042 C.ar    1  UNL1       -0.0007
     16 C           3.8388    0.7903   20.0142 C.ar    1  UNL1       -0.0001
     17 C           2.9331    1.3701   18.9683 C.ar    1  UNL1        0.0294
     18 C           1.5359    0.8471   18.8126 C.ar    1  UNL1        0.1401
     19 F           0.6303    1.4268   17.7668 F       1  UNL1       -0.2042
     20 C           1.0443   -0.2557   19.7026 C.ar    1  UNL1        0.0294
     21 C           1.9500   -0.8355   20.7485 C.ar    1  UNL1       -0.0001
     22 C           6.3114   -1.4115   25.1993 C.3     1  UNL1        0.0797
     23 C           7.3798   -0.5018   25.7295 C.3     1  UNL1        0.0372
     24 C           8.2557   -0.9531   26.8605 C.3     1  UNL1        0.0741
     25 N           8.0633   -2.3140   27.4613 N.3     1  UNL1       -0.2688
     26 C           6.9949   -3.2237   26.9311 C.3     1  UNL1        0.0741
     27 C           6.1190   -2.7724   25.8001 C.3     1  UNL1        0.0372
     28 C           8.9392   -2.7652   28.5922 C.3     1  UNL1        0.0992
     29 C           8.4540   -3.8198   29.5422 C.ar    1  UNL1       -0.0039
     30 C           8.8868   -5.2450   29.3653 C.ar    1  UNL1       -0.0028
     31 C           8.4016   -6.2996   30.3152 C.ar    1  UNL1        0.0020
     32 C           7.4834   -5.9289   31.4420 C.ar    1  UNL1        0.0296
     33 C           7.0506   -4.5037   31.6189 C.ar    1  UNL1        0.1399
     34 F           6.1324   -4.1330   32.7457 F       1  UNL1       -0.2042
     35 C           7.5358   -3.4491   30.6690 C.ar    1  UNL1        0.0267
@<TRIPOS>BOND
     1     1     2    2
     2     2     3   am
     3     3     4    1
     4     4     8    1
     5     8     9   ar
     6     9    10   ar
     7    10    11   ar
     8    11    12    1
     9    11    13   ar
    10    13    14   ar
    11     4    15    1
    12    15    16   ar
    13    16    17   ar
    14    17    18   ar
    15    18    19    1
    16    18    20   ar
    17    20    21   ar
    18     4     5    1
    19     5     6    1
    20     6    22    1
    21    22    23    1
    22    23    24    1
    23    24    25    1
    24    25    28    1
    25    28    29    1
    26    29    30   ar
    27    30    31   ar
    28    31    32   ar
    29    32    33   ar
    30    33    34    1
    31    33    35   ar
    32    25    26    1
    33    26    27    1
    34     6     2   am
    35    27    22    1
    36    14     8   ar
    37    21    15   ar
    38    35    29   ar
    39     3     7    1
@<TRIPOS>MOLECULE
*****
 35 39 0 0 0
SMALL
GASTEIGER

@<TRIPOS>ATOM
      1 O           7.6385   -5.7737   25.2083 O.2     1  UNL1       -0.2526
      2 C           6.8814   -4.5246   24.8669 C.2     1  UNL1        0.3044
      3 N           6.4859   -4.0821   23.4894 N.am    1  UNL1       -0.2833
      4 C           5.7470   -2.7828   23.6143 C.3     1  UNL1        0.1144
      5 C           5.6858   -2.4223   25.0690 C.3     1  UNL1        0.1212
      6 N           6.3870   -3.4989   25.8432 N.am    1  UNL1       -0.2634
      7 H           6.6777   -4.5605   22.6506 H       1  UNL1        0.1515
      8 C           4.9876   -1.5028   23.4268 C.ar    1  UNL1       -0.0007
      9 C           3.5387   -1.5400   23.0404 C.ar    1  UNL1       -0.0001
     10 C           2.7794   -0.2601   22.8530 C.ar    1  UNL1        0.0294
     11 C           3.4690    1.0571   23.0519 C.ar    1  UNL1        0.1401
     12 F           2.7096    2.3371   22.8645 F       1  UNL1       -0.2042
     13 C           4.9178    1.0943   23.4384 C.ar    1  UNL1        0.0294
     14 C           5.6771   -0.1856   23.6258 C.ar    1  UNL1       -0.0001
     15 C           5.6494   -2.8756   22.1204 C.ar    1  UNL1       -0.0007
     16 C           6.5419   -2.0345   21.2568 C.ar    1  UNL1       -0.0001
     17 C           6.4443   -2.1274   19.7627 C.ar    1  UNL1        0.0294
     18 C           5.4542   -3.0614   19.1324 C.ar    1  UNL1        0.1401
     19 F           5.3566   -3.1542   17.6385 F       1  UNL1       -0.2042
     20 C           4.5617   -3.9025   19.9960 C.ar    1  UNL1        0.0294
     21 C           4.6592   -3.8097   21.4901 C.ar    1  UNL1       -0.0001
     22 C           6.5628   -3.5420   27.3323 C.3     1  UNL1        0.0797
     23 C           6.8718   -2.2835   28.0877 C.3     1  UNL1        0.0372
     24 C           7.0476   -2.3266   29.5768 C.3     1  UNL1        0.0741
     25 N           6.9144   -3.6283   30.3104 N.3     1  UNL1       -0.2688
     26 C           6.6053   -4.8867   29.5549 C.3     1  UNL1        0.0741
     27 C           6.4295   -4.8436   28.0658 C.3     1  UNL1        0.0372
     28 C           7.0902   -3.6713   31.7994 C.3     1  UNL1        0.0992
     29 C           6.4346   -2.6343   32.6624 C.ar    1  UNL1       -0.0039
     30 C           4.9840   -2.7651   33.0211 C.ar    1  UNL1       -0.0028
     31 C           4.3285   -1.7281   33.8841 C.ar    1  UNL1        0.0020
     32 C           5.1235   -0.5603   34.3883 C.ar    1  UNL1        0.0296
     33 C           6.5740   -0.4295   34.0296 C.ar    1  UNL1        0.1399
     34 F           7.3690    0.7383   34.5339 F       1  UNL1       -0.2042
     35 C           7.2296   -1.4665   33.1666 C.ar    1  UNL1        0.0267
@<TRIPOS>BOND
     1     1     2    2
     2     2     3   am
     3     3     4    1
     4     4     8    1
     5     8     9   ar
     6     9    10   ar
     7    10    11   ar
     8    11    12    1
     9    11    13   ar
    10    13    14   ar
    11     4    15    1
    12    15    16   ar
    13    16    17   ar
    14    17    18   ar
    15    18    19    1
    16    18    20   ar
    17    20    21   ar
    18     4     5    1
    19     5     6    1
    20     6    22    1
    21    22    23    1
    22    23    24    1
    23    24    25    1
    24    25    28    1
    25    28    29    1
    26    29    30   ar
    27    30    31   ar
    28    31    32   ar
    29    32    33   ar
    30    33    34    1
    31    33    35   ar
    32    25    26    1
    33    26    27    1
    34     6     2   am
    35    27    22    1
    36    14     8   ar
    37    21    15   ar
    38    35    29   ar
    39     3     7    1
@<TRIPOS>MOLECULE
*****
 35 39 0 0 0
SMALL
GASTEIGER

@<TRIPOS>ATOM
      1 O           0.1137    2.8873   21.9697 O.2     1  UNL1       -0.2526
      2 C           0.1844    2.7107   23.4575 C.2     1  UNL1        0.3044
      3 N          -0.7187    3.3568   24.4660 N.am    1  UNL1       -0.2833
      4 C          -0.2906    2.9024   25.8299 C.3     1  UNL1        0.1144
      5 C           0.8771    1.9755   25.6644 C.3     1  UNL1        0.1212
      6 N           1.1706    1.8571   24.1981 N.am    1  UNL1       -0.2634
      7 H          -1.4619    3.9712   24.2675 H       1  UNL1        0.1515
      8 C          -0.0982    2.6299   27.2924 C.ar    1  UNL1       -0.0007
      9 C           0.6475    3.6119   28.1465 C.ar    1  UNL1       -0.0001
     10 C           0.8399    3.3394   29.6089 C.ar    1  UNL1        0.0294
     11 C           0.2864    2.0849   30.2172 C.ar    1  UNL1        0.1401
     12 F           0.4788    1.8124   31.6797 F       1  UNL1       -0.2042
     13 C          -0.4594    1.1030   29.3631 C.ar    1  UNL1        0.0294
     14 C          -0.6517    1.3755   27.9007 C.ar    1  UNL1       -0.0001
     15 C          -1.4180    3.7724   26.3011 C.ar    1  UNL1       -0.0007
     16 C          -2.8052    3.2112   26.4054 C.ar    1  UNL1       -0.0001
     17 C          -3.9327    4.0812   26.8767 C.ar    1  UNL1        0.0294
     18 C          -3.6730    5.5122   27.2437 C.ar    1  UNL1        0.1401
     19 F          -4.8005    6.3821   27.7149 F       1  UNL1       -0.2042
     20 C          -2.2859    6.0734   27.1393 C.ar    1  UNL1        0.0294
     21 C          -1.1583    5.2034   26.6681 C.ar    1  UNL1       -0.0001
     22 C           2.2593    1.0301   23.5810 C.3     1  UNL1        0.0797
     23 C           2.9012    1.4715   22.2991 C.3     1  UNL1        0.0372
     24 C           3.9899    0.6446   21.6819 C.3     1  UNL1        0.0741
     25 N           4.4367   -0.6238   22.3465 N.3     1  UNL1       -0.2688
     26 C           3.7947   -1.0652   23.6284 C.3     1  UNL1        0.0741
     27 C           2.7061   -0.2382   24.2455 C.3     1  UNL1        0.0372
     28 C           5.5253   -1.4507   21.7293 C.3     1  UNL1        0.0992
     29 C           5.1940   -2.4498   20.6606 C.ar    1  UNL1       -0.0039
     30 C           5.7233   -2.2633   19.2696 C.ar    1  UNL1       -0.0028
     31 C           5.3920   -3.2624   18.2009 C.ar    1  UNL1        0.0020
     32 C           4.5314   -4.4479   18.5233 C.ar    1  UNL1        0.0296
     33 C           4.0021   -4.6344   19.9143 C.ar    1  UNL1        0.1399
     34 F           3.1415   -5.8199   20.2367 F       1  UNL1       -0.2042
     35 C           4.3334   -3.6353   20.9830 C.ar    1  UNL1        0.0267
@<TRIPOS>BOND
     1     1     2    2
     2     2     3   am
     3     3     4    1
     4     4     8    1
     5     8     9   ar
     6     9    10   ar
     7    10    11   ar
     8    11    12    1
     9    11    13   ar
    10    13    14   ar
    11     4    15    1
    12    15    16   ar
    13    16    17   ar
    14    17    18   ar
    15    18    19    1
    16    18    20   ar
    17    20    21   ar
    18     4     5    1
    19     5     6    1
    20     6    22    1
    21    22    23    1
    22    23    24    1
    23    24    25    1
    24    25    28    1
    25    28    29    1
    26    29    30   ar
    27    30    31   ar
    28    31    32   ar
    29    32    33   ar
    30    33    34    1
    31    33    35   ar
    32    25    26    1
    33    26    27    1
    34     6     2   am
    35    27    22    1
    36    14     8   ar
    37    21    15   ar
    38    35    29   ar
    39     3     7    1
@<TRIPOS>MOLECULE
*****
 35 39 0 0 0
SMALL
GASTEIGER

@<TRIPOS>ATOM
      1 O           6.0546    2.0794   32.4160 O.2     1  UNL1       -0.2526
      2 C           5.1719    2.0385   33.6282 C.2     1  UNL1        0.3044
      3 N           5.5838    2.3760   35.0305 N.am    1  UNL1       -0.2833
      4 C           4.3889    2.1990   35.9198 C.3     1  UNL1        0.1144
      5 C           3.2386    1.7521   35.0671 C.3     1  UNL1        0.1212
      6 N           3.7225    1.6530   33.6507 N.am    1  UNL1       -0.2634
      7 H           6.4808    2.6633   35.3169 H       1  UNL1        0.1515
      8 C           3.3908    2.1116   37.0362 C.ar    1  UNL1       -0.0007
      9 C           2.3983    3.2171   37.2432 C.ar    1  UNL1       -0.0001
     10 C           1.4004    3.1297   38.3596 C.ar    1  UNL1        0.0294
     11 C           1.3949    1.9368   39.2689 C.ar    1  UNL1        0.1401
     12 F           0.3968    1.8494   40.3854 F       1  UNL1       -0.2042
     13 C           2.3873    0.8313   39.0620 C.ar    1  UNL1        0.0294
     14 C           3.3853    0.9187   37.9456 C.ar    1  UNL1       -0.0001
     15 C           5.3305    2.6276   37.0058 C.ar    1  UNL1       -0.0007
     16 C           6.3609    1.6698   37.5263 C.ar    1  UNL1       -0.0001
     17 C           7.3026    2.0984   38.6124 C.ar    1  UNL1        0.0294
     18 C           7.2138    3.4848   39.1781 C.ar    1  UNL1        0.1401
     19 F           8.1555    3.9133   40.2641 F       1  UNL1       -0.2042
     20 C           6.1835    4.4426   38.6577 C.ar    1  UNL1        0.0294
     21 C           5.2418    4.0140   37.5715 C.ar    1  UNL1       -0.0001
     22 C           2.9013    1.2406   32.4652 C.3     1  UNL1        0.0797
     23 C           1.7319    2.0762   32.0357 C.3     1  UNL1        0.0372
     24 C           0.9107    1.6639   30.8502 C.3     1  UNL1        0.0741
     25 N           1.2587    0.4159   30.0941 N.3     1  UNL1       -0.2688
     26 C           2.4281   -0.4196   30.5236 C.3     1  UNL1        0.0741
     27 C           3.2493   -0.0073   31.7092 C.3     1  UNL1        0.0372
     28 C           0.4375    0.0036   28.9086 C.3     1  UNL1        0.0992
     29 C           0.4972    0.8024   27.6404 C.ar    1  UNL1       -0.0039
     30 C          -0.7552    1.3993   27.0704 C.ar    1  UNL1       -0.0028
     31 C          -0.6955    2.1981   25.8021 C.ar    1  UNL1        0.0020
     32 C           0.6167    2.3999   25.1040 C.ar    1  UNL1        0.0296
     33 C           1.8692    1.8030   25.6740 C.ar    1  UNL1        0.1399
     34 F           3.1814    2.0048   24.9759 F       1  UNL1       -0.2042
     35 C           1.8094    1.0042   26.9423 C.ar    1  UNL1        0.0267
@<TRIPOS>BOND
     1     1     2    2
     2     2     3   am
     3     3     4    1
     4     4     8    1
     5     8     9   ar
     6     9    10   ar
     7    10    11   ar
     8    11    12    1
     9    11    13   ar
    10    13    14   ar
    11     4    15    1
    12    15    16   ar
    13    16    17   ar
    14    17    18   ar
    15    18    19    1
    16    18    20   ar
    17    20    21   ar
    18     4     5    1
    19     5     6    1
    20     6    22    1
    21    22    23    1
    22    23    24    1
    23    24    25    1
    24    25    28    1
    25    28    29    1
    26    29    30   ar
    27    30    31   ar
    28    31    32   ar
    29    32    33   ar
    30    33    34    1
    31    33    35   ar
    32    25    26    1
    33    26    27    1
    34     6     2   am
    35    27    22    1
    36    14     8   ar
    37    21    15   ar
    38    35    29   ar
    39     3     7    1
@<TRIPOS>MOLECULE
*****
 35 39 0 0 0
SMALL
GASTEIGER

@<TRIPOS>ATOM
      1 O           3.0646   -0.0177   26.2710 O.2     1  UNL1       -0.2526
      2 C           3.1223   -0.1432   24.7773 C.2     1  UNL1        0.3044
      3 N           4.0935   -0.9812   23.9999 N.am    1  UNL1       -0.2833
      4 C           3.7903   -0.8087   22.5410 C.3     1  UNL1        0.1144
      5 C           2.6318    0.1360   22.4169 C.3     1  UNL1        0.1212
      6 N           2.2189    0.5473   23.7991 N.am    1  UNL1       -0.2634
      7 H           4.8049   -1.5455   24.3803 H       1  UNL1        0.1515
      8 C           3.7267   -0.8347   21.0425 C.ar    1  UNL1       -0.0007
      9 C           3.8567    0.4408   20.2640 C.ar    1  UNL1       -0.0001
     10 C           3.7931    0.4146   18.7656 C.ar    1  UNL1        0.0294
     11 C           3.5993   -0.8870   18.0458 C.ar    1  UNL1        0.1401
     12 F           3.5356   -0.9131   16.5473 F       1  UNL1       -0.2042
     13 C           3.4692   -2.1625   18.8243 C.ar    1  UNL1        0.0294
     14 C           3.5329   -2.1364   20.3227 C.ar    1  UNL1       -0.0001
     15 C           4.9355   -1.7588   22.3519 C.ar    1  UNL1       -0.0007
     16 C           6.2112   -1.2803   21.7244 C.ar    1  UNL1       -0.0001
     17 C           7.3565   -2.2304   21.5352 C.ar    1  UNL1        0.0294
     18 C           7.2260   -3.6590   21.9735 C.ar    1  UNL1        0.1401
     19 F           8.3712   -4.6090   21.7844 F       1  UNL1       -0.2042
     20 C           5.9504   -4.1375   22.6010 C.ar    1  UNL1        0.0294
     21 C           4.8051   -3.1874   22.7902 C.ar    1  UNL1       -0.0001
     22 C           1.0993    1.4845   24.1426 C.3     1  UNL1        0.0797
     23 C           0.9229    2.7576   23.3691 C.3     1  UNL1        0.0372
     24 C          -0.1967    3.6948   23.7126 C.3     1  UNL1        0.0741
     25 N          -1.1400    3.3590   24.8295 N.3     1  UNL1       -0.2688
     26 C          -0.9636    2.0859   25.6030 C.3     1  UNL1        0.0741
     27 C           0.1561    1.1487   25.2595 C.3     1  UNL1        0.0372
     28 C          -2.2596    4.2962   25.1730 C.3     1  UNL1        0.0992
     29 C          -3.5860    4.1642   24.4851 C.ar    1  UNL1       -0.0039
     30 C          -4.8360    4.6304   25.1707 C.ar    1  UNL1       -0.0028
     31 C          -6.1625    4.4984   24.4828 C.ar    1  UNL1        0.0020
     32 C          -6.2388    3.9002   23.1094 C.ar    1  UNL1        0.0296
     33 C          -4.9889    3.4339   22.4238 C.ar    1  UNL1        0.1399
     34 F          -5.0652    2.8357   21.0504 F       1  UNL1       -0.2042
     35 C          -3.6624    3.5660   23.1117 C.ar    1  UNL1        0.0267
@<TRIPOS>BOND
     1     1     2    2
     2     2     3   am
     3     3     4    1
     4     4     8    1
     5     8     9   ar
     6     9    10   ar
     7    10    11   ar
     8    11    12    1
     9    11    13   ar
    10    13    14   ar
    11     4    15    1
    12    15    16   ar
    13    16    17   ar
    14    17    18   ar
    15    18    19    1
    16    18    20   ar
    17    20    21   ar
    18     4     5    1
    19     5     6    1
    20     6    22    1
    21    22    23    1
    22    23    24    1
    23    24    25    1
    24    25    28    1
    25    28    29    1
    26    29    30   ar
    27    30    31   ar
    28    31    32   ar
    29    32    33   ar
    30    33    34    1
    31    33    35   ar
    32    25    26    1
    33    26    27    1
    34     6     2   am
    35    27    22    1
    36    14     8   ar
    37    21    15   ar
    38    35    29   ar
    39     3     7    1
