@<TRIPOS>MOLECULE
*****
 29 31 0 0 0
SMALL
GASTEIGER

@<TRIPOS>ATOM
      1 C          -6.9728  -15.1611   27.6070 C.3     1  UNL1        0.0534
      2 C          -7.5542  -15.5462   26.2789 C.ar    1  UNL1        0.0730
      3 N          -8.9622  -16.0002   26.0311 N.ar    1  UNL1       -0.2314
      4 C          -9.1078  -16.2795   24.5645 C.ar    1  UNL1        0.1454
      5 N          -7.7898  -15.9981   23.9059 N.ar    1  UNL1       -0.3127
      6 C          -7.4855  -16.1442   22.4445 C.3     1  UNL1        0.1316
      7 C          -6.8296  -15.5449   24.9655 C.ar    1  UNL1        0.0611
      8 C         -10.3529  -16.7565   23.8772 C.ar    1  UNL1        0.0617
      9 C         -11.0373  -15.8792   22.8713 C.ar    1  UNL1        0.0075
     10 C         -12.2823  -16.3562   22.1840 C.ar    1  UNL1        0.0299
     11 C         -12.8429  -17.7105   22.5027 C.ar    1  UNL1        0.1424
     12 F         -14.0880  -18.1875   21.8154 F       1  UNL1       -0.2041
     13 C         -12.1585  -18.5878   23.5086 C.ar    1  UNL1        0.0593
     14 C         -10.9135  -18.1108   24.1958 C.ar    1  UNL1        0.1452
     15 F         -10.2290  -18.9881   25.2018 F       1  UNL1       -0.2040
     16 C          -5.3965  -15.1582   24.7495 C.3     1  UNL1        0.1299
     17 C          -4.5577  -15.9106   23.7594 C.2     1  UNL1        0.2287
     18 O          -3.9501  -15.1915   22.5916 O.2     1  UNL1       -0.2747
     19 N          -4.3265  -17.3820   23.9371 N.am    1  UNL1       -0.3001
     20 H          -4.7253  -17.8539   24.7036 H       1  UNL1        0.1498
     21 C          -3.4877  -18.1343   22.9470 C.3     1  UNL1        0.1172
     22 C          -4.1322  -19.1049   22.0024 C.ar    1  UNL1        0.0082
     23 C          -5.5627  -19.5095   22.2030 C.ar    1  UNL1        0.0005
     24 C          -6.2071  -20.4801   21.2583 C.ar    1  UNL1        0.0294
     25 C          -5.4212  -21.0463   20.1130 C.ar    1  UNL1        0.1410
     26 F          -6.0658  -22.0170   19.1683 F       1  UNL1       -0.2041
     27 C          -3.9908  -20.6418   19.9124 C.ar    1  UNL1        0.0408
     28 C          -3.3463  -19.6711   20.8571 C.ar    1  UNL1        0.0575
     29 CL         -1.9159  -19.2667   20.6565 Cl      1  UNL1       -0.0824
@<TRIPOS>BOND
     1     1     2    1
     2     2     3   ar
     3     3     4   ar
     4     4     8    1
     5     8     9   ar
     6     9    10   ar
     7    10    11   ar
     8    11    12    1
     9    11    13   ar
    10    13    14   ar
    11    14    15    1
    12     4     5   ar
    13     5     6    1
    14     5     7   ar
    15     7    16    1
    16    16    17    1
    17    17    18    2
    18    17    19   am
    19    19    21    1
    20    21    22    1
    21    22    23   ar
    22    23    24   ar
    23    24    25   ar
    24    25    26    1
    25    25    27   ar
    26    27    28   ar
    27    28    29    1
    28     7     2   ar
    29    28    22   ar
    30    14     8   ar
    31    19    20    1
@<TRIPOS>MOLECULE
*****
 29 31 0 0 0
SMALL
GASTEIGER

@<TRIPOS>ATOM
      1 C          -6.2038  -15.2121   26.9520 C.3     1  UNL1        0.0534
      2 C          -7.0302  -15.6462   25.7779 C.ar    1  UNL1        0.0730
      3 N          -8.4550  -16.1127   25.8268 N.ar    1  UNL1       -0.2314
      4 C          -8.8823  -16.4448   24.4278 C.ar    1  UNL1        0.1454
      5 N          -7.7216  -16.1835   23.5142 N.ar    1  UNL1       -0.3127
      6 C          -7.7080  -16.3811   22.0274 C.3     1  UNL1        0.1316
      7 C          -6.5770  -15.6900   24.3486 C.ar    1  UNL1        0.0611
      8 C         -10.2332  -16.9495   24.0148 C.ar    1  UNL1        0.0617
      9 C         -11.0547  -16.1731   23.0289 C.ar    1  UNL1        0.0075
     10 C         -12.4055  -16.6778   22.6160 C.ar    1  UNL1        0.0299
     11 C         -12.9348  -17.9590   23.1891 C.ar    1  UNL1        0.1424
     12 F         -14.2857  -18.4637   22.7762 F       1  UNL1       -0.2041
     13 C         -12.1133  -18.7354   24.1751 C.ar    1  UNL1        0.0593
     14 C         -10.7625  -18.2307   24.5879 C.ar    1  UNL1        0.1452
     15 F          -9.9409  -19.0071   25.5740 F       1  UNL1       -0.2040
     16 C          -5.2177  -15.3074   23.8426 C.3     1  UNL1        0.1299
     17 C          -4.3214  -16.3483   23.2401 C.2     1  UNL1        0.2287
     18 O          -3.1208  -15.9334   22.4423 O.2     1  UNL1       -0.2747
     19 N          -4.6256  -17.8041   23.4353 N.am    1  UNL1       -0.3001
     20 H          -5.4136  -18.0764   23.9589 H       1  UNL1        0.1498
     21 C          -3.7293  -18.8450   22.8328 C.3     1  UNL1        0.1172
     22 C          -3.1254  -18.6215   21.4781 C.ar    1  UNL1        0.0082
     23 C          -1.6687  -18.2865   21.3523 C.ar    1  UNL1        0.0005
     24 C          -1.0648  -18.0630   19.9976 C.ar    1  UNL1        0.0294
     25 C          -1.9175  -18.1746   18.7686 C.ar    1  UNL1        0.1410
     26 F          -1.3135  -17.9512   17.4138 F       1  UNL1       -0.2041
     27 C          -3.3741  -18.5097   18.8944 C.ar    1  UNL1        0.0408
     28 C          -3.9781  -18.7332   20.2491 C.ar    1  UNL1        0.0575
     29 CL         -5.4347  -19.0682   20.3749 Cl      1  UNL1       -0.0824
@<TRIPOS>BOND
     1     1     2    1
     2     2     3   ar
     3     3     4   ar
     4     4     8    1
     5     8     9   ar
     6     9    10   ar
     7    10    11   ar
     8    11    12    1
     9    11    13   ar
    10    13    14   ar
    11    14    15    1
    12     4     5   ar
    13     5     6    1
    14     5     7   ar
    15     7    16    1
    16    16    17    1
    17    17    18    2
    18    17    19   am
    19    19    21    1
    20    21    22    1
    21    22    23   ar
    22    23    24   ar
    23    24    25   ar
    24    25    26    1
    25    25    27   ar
    26    27    28   ar
    27    28    29    1
    28     7     2   ar
    29    28    22   ar
    30    14     8   ar
    31    19    20    1
@<TRIPOS>MOLECULE
*****
 29 31 0 0 0
SMALL
GASTEIGER

@<TRIPOS>ATOM
      1 C          -6.2490  -14.9583   27.2183 C.3     1  UNL1        0.0534
      2 C          -6.0611  -15.5424   25.8496 C.ar    1  UNL1        0.0730
      3 N          -4.7604  -15.9942   25.2547 N.ar    1  UNL1       -0.2314
      4 C          -5.0364  -16.5083   23.8728 C.ar    1  UNL1        0.1454
      5 N          -6.5077  -16.3743   23.6136 N.ar    1  UNL1       -0.3127
      6 C          -7.2206  -16.7680   22.3540 C.3     1  UNL1        0.1316
      7 C          -7.1411  -15.7773   24.8353 C.ar    1  UNL1        0.0611
      8 C          -4.0195  -17.0597   22.9178 C.ar    1  UNL1        0.0617
      9 C          -2.8903  -16.1943   22.4425 C.ar    1  UNL1        0.0075
     10 C          -1.8735  -16.7457   21.4876 C.ar    1  UNL1        0.0299
     11 C          -1.9859  -18.1625   21.0079 C.ar    1  UNL1        0.1424
     12 F          -0.9690  -18.7139   20.0528 F       1  UNL1       -0.2041
     13 C          -3.1151  -19.0279   21.4831 C.ar    1  UNL1        0.0593
     14 C          -4.1319  -18.4765   22.4381 C.ar    1  UNL1        0.1452
     15 F          -5.2612  -19.3419   22.9134 F       1  UNL1       -0.2040
     16 C          -8.5985  -15.4693   25.0118 C.3     1  UNL1        0.1299
     17 C          -9.6340  -16.3683   24.4040 C.2     1  UNL1        0.2287
     18 O          -9.7189  -17.8058   24.8241 O.2     1  UNL1       -0.2747
     19 N         -10.5847  -15.8299   23.3762 N.am    1  UNL1       -0.3001
     20 H         -10.5290  -14.8864   23.1005 H       1  UNL1        0.1498
     21 C         -11.6202  -16.7289   22.7685 C.3     1  UNL1        0.1172
     22 C         -11.2244  -17.7299   21.7239 C.ar    1  UNL1        0.0082
     23 C         -10.9601  -19.1545   22.1121 C.ar    1  UNL1        0.0005
     24 C         -10.5644  -20.1555   21.0676 C.ar    1  UNL1        0.0294
     25 C         -10.4328  -19.7321   19.6346 C.ar    1  UNL1        0.1410
     26 F         -10.0371  -20.7331   18.5900 F       1  UNL1       -0.2041
     27 C         -10.6971  -18.3075   19.2463 C.ar    1  UNL1        0.0408
     28 C         -11.0929  -17.3065   20.2910 C.ar    1  UNL1        0.0575
     29 CL        -11.3572  -15.8819   19.9027 Cl      1  UNL1       -0.0824
@<TRIPOS>BOND
     1     1     2    1
     2     2     3   ar
     3     3     4   ar
     4     4     8    1
     5     8     9   ar
     6     9    10   ar
     7    10    11   ar
     8    11    12    1
     9    11    13   ar
    10    13    14   ar
    11    14    15    1
    12     4     5   ar
    13     5     6    1
    14     5     7   ar
    15     7    16    1
    16    16    17    1
    17    17    18    2
    18    17    19   am
    19    19    21    1
    20    21    22    1
    21    22    23   ar
    22    23    24   ar
    23    24    25   ar
    24    25    26    1
    25    25    27   ar
    26    27    28   ar
    27    28    29    1
    28     7     2   ar
    29    28    22   ar
    30    14     8   ar
    31    19    20    1
@<TRIPOS>MOLECULE
*****
 29 31 0 0 0
SMALL
GASTEIGER

@<TRIPOS>ATOM
      1 C          -6.1790  -14.8819   27.2690 C.3     1  UNL1        0.0534
      2 C          -6.0111  -15.5438   25.9335 C.ar    1  UNL1        0.0730
      3 N          -4.7203  -16.0369   25.3499 N.ar    1  UNL1       -0.2314
      4 C          -5.0160  -16.6267   24.0027 C.ar    1  UNL1        0.1454
      5 N          -6.4896  -16.4982   23.7538 N.ar    1  UNL1       -0.3127
      6 C          -7.2200  -16.9581   22.5271 C.3     1  UNL1        0.1316
      7 C          -7.1046  -15.8289   24.9471 C.ar    1  UNL1        0.0611
      8 C          -4.0140  -17.2378   23.0686 C.ar    1  UNL1        0.0617
      9 C          -3.9608  -18.7268   22.8953 C.ar    1  UNL1        0.0075
     10 C          -2.9589  -19.3378   21.9612 C.ar    1  UNL1        0.0299
     11 C          -2.0100  -18.4598   21.2003 C.ar    1  UNL1        0.1424
     12 F          -1.0080  -19.0709   20.2661 F       1  UNL1       -0.2041
     13 C          -2.0632  -16.9709   21.3735 C.ar    1  UNL1        0.0593
     14 C          -3.0652  -16.3598   22.3077 C.ar    1  UNL1        0.1452
     15 F          -3.1184  -14.8708   22.4810 F       1  UNL1       -0.2040
     16 C          -8.5580  -15.5021   25.1230 C.3     1  UNL1        0.1299
     17 C          -9.6037  -16.3643   24.4804 C.2     1  UNL1        0.2287
     18 O         -10.3893  -15.8457   23.3125 O.2     1  UNL1       -0.2747
     19 N          -9.8640  -17.7450   25.0057 N.am    1  UNL1       -0.3001
     20 H          -9.3484  -18.0853   25.7722 H       1  UNL1        0.1498
     21 C         -10.9097  -18.6072   24.3630 C.3     1  UNL1        0.1172
     22 C         -10.8633  -18.8678   22.8867 C.ar    1  UNL1        0.0082
     23 C         -11.9395  -18.3236   21.9947 C.ar    1  UNL1        0.0005
     24 C         -11.8931  -18.5842   20.5183 C.ar    1  UNL1        0.0294
     25 C         -10.7705  -19.3892   19.9337 C.ar    1  UNL1        0.1410
     26 F         -10.7240  -19.6498   18.4573 F       1  UNL1       -0.2041
     27 C          -9.6942  -19.9334   20.8256 C.ar    1  UNL1        0.0408
     28 C          -9.7407  -19.6728   22.3021 C.ar    1  UNL1        0.0575
     29 CL         -8.6645  -20.2171   23.1940 Cl      1  UNL1       -0.0824
@<TRIPOS>BOND
     1     1     2    1
     2     2     3   ar
     3     3     4   ar
     4     4     8    1
     5     8     9   ar
     6     9    10   ar
     7    10    11   ar
     8    11    12    1
     9    11    13   ar
    10    13    14   ar
    11    14    15    1
    12     4     5   ar
    13     5     6    1
    14     5     7   ar
    15     7    16    1
    16    16    17    1
    17    17    18    2
    18    17    19   am
    19    19    21    1
    20    21    22    1
    21    22    23   ar
    22    23    24   ar
    23    24    25   ar
    24    25    26    1
    25    25    27   ar
    26    27    28   ar
    27    28    29    1
    28     7     2   ar
    29    28    22   ar
    30    14     8   ar
    31    19    20    1
@<TRIPOS>MOLECULE
*****
 29 31 0 0 0
SMALL
GASTEIGER

@<TRIPOS>ATOM
      1 C          -9.6554   -5.4825   19.2419 C.3     1  UNL1        0.0534
      2 C         -10.9647   -4.8521   18.8701 C.ar    1  UNL1        0.0730
      3 N         -11.4680   -3.5205   19.3429 N.ar    1  UNL1       -0.2314
      4 C         -12.8150   -3.2880   18.7252 C.ar    1  UNL1        0.1454
      5 N         -13.1443   -4.4759   17.8706 N.ar    1  UNL1       -0.3127
      6 C         -14.3971   -4.6642   17.0675 C.3     1  UNL1        0.1316
      7 C         -12.0008   -5.4426   17.9601 C.ar    1  UNL1        0.0611
      8 C         -13.6807   -2.0797   18.9268 C.ar    1  UNL1        0.0617
      9 C         -13.2448   -0.7473   18.3933 C.ar    1  UNL1        0.0075
     10 C         -14.1105    0.4609   18.5949 C.ar    1  UNL1        0.0299
     11 C         -15.4122    0.3368   19.3300 C.ar    1  UNL1        0.1424
     12 F         -16.2779    1.5451   19.5315 F       1  UNL1       -0.2041
     13 C         -15.8481   -0.9956   19.8635 C.ar    1  UNL1        0.0593
     14 C         -14.9823   -2.2038   19.6619 C.ar    1  UNL1        0.1452
     15 F         -15.4182   -3.5363   20.1954 F       1  UNL1       -0.2040
     16 C         -11.9094   -6.7672   17.2622 C.3     1  UNL1        0.1299
     17 C         -13.0811   -7.7036   17.2741 C.2     1  UNL1        0.2287
     18 O         -13.7673   -8.0626   15.9895 O.2     1  UNL1       -0.2747
     19 N         -13.5665   -8.2811   18.5706 N.am    1  UNL1       -0.3001
     20 H         -13.1161   -8.0455   19.4137 H       1  UNL1        0.1498
     21 C         -14.7382   -9.2176   18.5825 C.3     1  UNL1        0.1172
     22 C         -16.0817   -8.7321   19.0397 C.ar    1  UNL1        0.0082
     23 C         -16.2808   -7.2843   19.3780 C.ar    1  UNL1        0.0005
     24 C         -17.6243   -6.7988   19.8352 C.ar    1  UNL1        0.0294
     25 C         -18.7689   -7.7610   19.9541 C.ar    1  UNL1        0.1410
     26 F         -20.1125   -7.2754   20.4113 F       1  UNL1       -0.2041
     27 C         -18.5699   -9.2087   19.6158 C.ar    1  UNL1        0.0408
     28 C         -17.2263   -9.6942   19.1586 C.ar    1  UNL1        0.0575
     29 CL        -17.0273  -11.1420   18.8203 Cl      1  UNL1       -0.0824
@<TRIPOS>BOND
     1     1     2    1
     2     2     3   ar
     3     3     4   ar
     4     4     8    1
     5     8     9   ar
     6     9    10   ar
     7    10    11   ar
     8    11    12    1
     9    11    13   ar
    10    13    14   ar
    11    14    15    1
    12     4     5   ar
    13     5     6    1
    14     5     7   ar
    15     7    16    1
    16    16    17    1
    17    17    18    2
    18    17    19   am
    19    19    21    1
    20    21    22    1
    21    22    23   ar
    22    23    24   ar
    23    24    25   ar
    24    25    26    1
    25    25    27   ar
    26    27    28   ar
    27    28    29    1
    28     7     2   ar
    29    28    22   ar
    30    14     8   ar
    31    19    20    1
@<TRIPOS>MOLECULE
*****
 29 31 0 0 0
SMALL
GASTEIGER

@<TRIPOS>ATOM
      1 C          -6.6521  -15.1104   26.9353 C.3     1  UNL1        0.0534
      2 C          -7.2858  -15.6435   25.6846 C.ar    1  UNL1        0.0730
      3 N          -8.7364  -15.9807   25.5059 N.ar    1  UNL1       -0.2314
      4 C          -8.9273  -16.4786   24.1039 C.ar    1  UNL1        0.1454
      5 N          -7.5947  -16.4491   23.4161 N.ar    1  UNL1       -0.3127
      6 C          -7.3241  -16.8630   21.9999 C.3     1  UNL1        0.1316
      7 C          -6.5802  -15.9329   24.3929 C.ar    1  UNL1        0.0611
      8 C         -10.2234  -16.9272   23.4964 C.ar    1  UNL1        0.0617
      9 C         -11.0261  -18.0091   24.1560 C.ar    1  UNL1        0.0075
     10 C         -12.3221  -18.4577   23.5485 C.ar    1  UNL1        0.0299
     11 C         -12.8154  -17.8244   22.2814 C.ar    1  UNL1        0.1424
     12 F         -14.1115  -18.2730   21.6739 F       1  UNL1       -0.2041
     13 C         -12.0127  -16.7424   21.6218 C.ar    1  UNL1        0.0593
     14 C         -10.7167  -16.2939   22.2293 C.ar    1  UNL1        0.1452
     15 F          -9.9140  -15.2119   21.5697 F       1  UNL1       -0.2040
     16 C          -5.1169  -15.7401   24.1252 C.3     1  UNL1        0.1299
     17 C          -4.3595  -16.7603   23.3280 C.2     1  UNL1        0.2287
     18 O          -3.2831  -16.3226   22.3795 O.2     1  UNL1       -0.2747
     19 N          -4.6785  -18.2182   23.4794 N.am    1  UNL1       -0.3001
     20 H          -5.3850  -18.5054   24.1019 H       1  UNL1        0.1498
     21 C          -3.9211  -19.2384   22.6822 C.3     1  UNL1        0.1172
     22 C          -3.3104  -18.8590   21.3658 C.ar    1  UNL1        0.0082
     23 C          -4.1643  -18.7920   20.1343 C.ar    1  UNL1        0.0005
     24 C          -3.5536  -18.4127   18.8179 C.ar    1  UNL1        0.0294
     25 C          -2.0890  -18.1003   18.7328 C.ar    1  UNL1        0.1410
     26 F          -1.4782  -17.7209   17.4163 F       1  UNL1       -0.2041
     27 C          -1.2351  -18.1672   19.9642 C.ar    1  UNL1        0.0408
     28 C          -1.8458  -18.5466   21.2807 C.ar    1  UNL1        0.0575
     29 CL         -0.9919  -18.6136   22.5121 Cl      1  UNL1       -0.0824
@<TRIPOS>BOND
     1     1     2    1
     2     2     3   ar
     3     3     4   ar
     4     4     8    1
     5     8     9   ar
     6     9    10   ar
     7    10    11   ar
     8    11    12    1
     9    11    13   ar
    10    13    14   ar
    11    14    15    1
    12     4     5   ar
    13     5     6    1
    14     5     7   ar
    15     7    16    1
    16    16    17    1
    17    17    18    2
    18    17    19   am
    19    19    21    1
    20    21    22    1
    21    22    23   ar
    22    23    24   ar
    23    24    25   ar
    24    25    26    1
    25    25    27   ar
    26    27    28   ar
    27    28    29    1
    28     7     2   ar
    29    28    22   ar
    30    14     8   ar
    31    19    20    1
@<TRIPOS>MOLECULE
*****
 29 31 0 0 0
SMALL
GASTEIGER

@<TRIPOS>ATOM
      1 C          -5.9295  -14.8471   26.8563 C.3     1  UNL1        0.0534
      2 C          -5.7229  -15.6252   25.5906 C.ar    1  UNL1        0.0730
      3 N          -4.4073  -15.8779   24.9157 N.ar    1  UNL1       -0.2314
      4 C          -4.6670  -16.6961   23.6856 C.ar    1  UNL1        0.1454
      5 N          -6.1430  -16.9491   23.6002 N.ar    1  UNL1       -0.3127
      6 C          -6.8435  -17.7273   22.5261 C.3     1  UNL1        0.1316
      7 C          -6.7956  -16.2873   24.7776 C.ar    1  UNL1        0.0611
      8 C          -3.6322  -17.1769   22.7119 C.ar    1  UNL1        0.0617
      9 C          -2.7016  -16.1967   22.0615 C.ar    1  UNL1        0.0075
     10 C          -1.6669  -16.6775   21.0878 C.ar    1  UNL1        0.0299
     11 C          -1.5628  -18.1385   20.7644 C.ar    1  UNL1        0.1424
     12 F          -0.5280  -18.6193   19.7907 F       1  UNL1       -0.2041
     13 C          -2.4934  -19.1188   21.4148 C.ar    1  UNL1        0.0593
     14 C          -3.5281  -18.6379   22.3885 C.ar    1  UNL1        0.1452
     15 F          -4.4588  -19.6182   23.0390 F       1  UNL1       -0.2040
     16 C          -8.2633  -16.2874   25.0875 C.3     1  UNL1        0.1299
     17 C          -9.2368  -16.8714   24.1071 C.2     1  UNL1        0.2287
     18 O          -9.4950  -16.1773   22.8026 O.2     1  UNL1       -0.2747
     19 N          -9.9520  -18.1495   24.4311 N.am    1  UNL1       -0.3001
     20 H          -9.7825  -18.6050   25.2872 H       1  UNL1        0.1498
     21 C         -10.9255  -18.7335   23.4506 C.3     1  UNL1        0.1172
     22 C         -11.3127  -17.9586   22.2261 C.ar    1  UNL1        0.0082
     23 C         -12.3434  -16.8729   22.3203 C.ar    1  UNL1        0.0005
     24 C         -12.7306  -16.0980   21.0958 C.ar    1  UNL1        0.0294
     25 C         -12.0872  -16.4088   19.7770 C.ar    1  UNL1        0.1410
     26 F         -12.4744  -15.6339   18.5524 F       1  UNL1       -0.2041
     27 C         -11.0565  -17.4945   19.6827 C.ar    1  UNL1        0.0408
     28 C         -10.6692  -18.2694   20.9073 C.ar    1  UNL1        0.0575
     29 CL         -9.6385  -19.3551   20.8131 Cl      1  UNL1       -0.0824
@<TRIPOS>BOND
     1     1     2    1
     2     2     3   ar
     3     3     4   ar
     4     4     8    1
     5     8     9   ar
     6     9    10   ar
     7    10    11   ar
     8    11    12    1
     9    11    13   ar
    10    13    14   ar
    11    14    15    1
    12     4     5   ar
    13     5     6    1
    14     5     7   ar
    15     7    16    1
    16    16    17    1
    17    17    18    2
    18    17    19   am
    19    19    21    1
    20    21    22    1
    21    22    23   ar
    22    23    24   ar
    23    24    25   ar
    24    25    26    1
    25    25    27   ar
    26    27    28   ar
    27    28    29    1
    28     7     2   ar
    29    28    22   ar
    30    14     8   ar
    31    19    20    1
@<TRIPOS>MOLECULE
*****
 29 31 0 0 0
SMALL
GASTEIGER

@<TRIPOS>ATOM
      1 C           4.6831   -4.9250   18.8918 C.3     1  UNL1        0.0534
      2 C           4.4529   -3.4847   19.2415 C.ar    1  UNL1        0.0730
      3 N           3.1296   -2.8564   19.5644 N.ar    1  UNL1       -0.2314
      4 C           3.3643   -1.4031   19.8522 C.ar    1  UNL1        0.1454
      5 N           4.8327   -1.1332   19.7072 N.ar    1  UNL1       -0.3127
      6 C           5.5095    0.1908   19.9049 C.3     1  UNL1        0.1316
      7 C           5.5055   -2.4196   19.3298 C.ar    1  UNL1        0.0611
      8 C           2.3149   -0.3965   20.2203 C.ar    1  UNL1        0.0617
      9 C           1.9962   -0.1388   21.6632 C.ar    1  UNL1        0.0075
     10 C           0.9469    0.8678   22.0313 C.ar    1  UNL1        0.0299
     11 C           0.2161    1.6167   20.9565 C.ar    1  UNL1        0.1424
     12 F          -0.8333    2.6233   21.3247 F       1  UNL1       -0.2041
     13 C           0.5348    1.3590   19.5136 C.ar    1  UNL1        0.0593
     14 C           1.5842    0.3524   19.1455 C.ar    1  UNL1        0.1452
     15 F           1.9029    0.0947   17.7026 F       1  UNL1       -0.2040
     16 C           6.9731   -2.6079   19.0838 C.3     1  UNL1        0.1299
     17 C           7.9000   -2.8626   20.2354 C.2     1  UNL1        0.2287
     18 O           8.6488   -1.7236   20.8615 O.2     1  UNL1       -0.2747
     19 N           8.0780   -4.2562   20.7609 N.am    1  UNL1       -0.3001
     20 H           7.5865   -5.0038   20.3499 H       1  UNL1        0.1498
     21 C           9.0048   -4.5109   21.9124 C.3     1  UNL1        0.1172
     22 C           8.5567   -5.3649   23.0611 C.ar    1  UNL1        0.0082
     23 C           8.9539   -6.8102   23.1210 C.ar    1  UNL1        0.0005
     24 C           8.5058   -7.6642   24.2697 C.ar    1  UNL1        0.0294
     25 C           7.6604   -7.0731   25.3587 C.ar    1  UNL1        0.1410
     26 F           7.2122   -7.9273   26.5075 F       1  UNL1       -0.2041
     27 C           7.2631   -5.6280   25.2989 C.ar    1  UNL1        0.0408
     28 C           7.7113   -4.7739   24.1501 C.ar    1  UNL1        0.0575
     29 CL          7.3141   -3.3287   24.0903 Cl      1  UNL1       -0.0824
@<TRIPOS>BOND
     1     1     2    1
     2     2     3   ar
     3     3     4   ar
     4     4     8    1
     5     8     9   ar
     6     9    10   ar
     7    10    11   ar
     8    11    12    1
     9    11    13   ar
    10    13    14   ar
    11    14    15    1
    12     4     5   ar
    13     5     6    1
    14     5     7   ar
    15     7    16    1
    16    16    17    1
    17    17    18    2
    18    17    19   am
    19    19    21    1
    20    21    22    1
    21    22    23   ar
    22    23    24   ar
    23    24    25   ar
    24    25    26    1
    25    25    27   ar
    26    27    28   ar
    27    28    29    1
    28     7     2   ar
    29    28    22   ar
    30    14     8   ar
    31    19    20    1
@<TRIPOS>MOLECULE
*****
 29 31 0 0 0
SMALL
GASTEIGER

@<TRIPOS>ATOM
      1 C          -9.9122   -4.2435   18.6220 C.3     1  UNL1        0.0534
      2 C         -11.3414   -3.8342   18.8219 C.ar    1  UNL1        0.0730
      3 N         -11.8904   -2.4465   18.6713 N.ar    1  UNL1       -0.2314
      4 C         -13.3608   -2.4954   18.9639 C.ar    1  UNL1        0.1454
      5 N         -13.7206   -3.9134   19.2953 N.ar    1  UNL1       -0.3127
      6 C         -15.0882   -4.4158   19.6518 C.3     1  UNL1        0.1316
      7 C         -12.4725   -4.7408   19.2075 C.ar    1  UNL1        0.0611
      8 C         -14.3056   -1.3307   18.9308 C.ar    1  UNL1        0.0617
      9 C         -15.3768   -1.2041   19.9731 C.ar    1  UNL1        0.0075
     10 C         -16.3215   -0.0395   19.9399 C.ar    1  UNL1        0.0299
     11 C         -16.1950    0.9986   18.8646 C.ar    1  UNL1        0.1424
     12 F         -17.1397    2.1632   18.8315 F       1  UNL1       -0.2041
     13 C         -15.1237    0.8720   17.8223 C.ar    1  UNL1        0.0593
     14 C         -14.1790   -0.2926   17.8554 C.ar    1  UNL1        0.1452
     15 F         -13.1077   -0.4193   16.8131 F       1  UNL1       -0.2040
     16 C         -12.3730   -6.2160   19.4609 C.3     1  UNL1        0.1299
     17 C         -12.9549   -7.1869   18.4768 C.2     1  UNL1        0.2287
     18 O         -12.6281   -7.0628   17.0181 O.2     1  UNL1       -0.2747
     19 N         -13.8635   -8.2821   18.9513 N.am    1  UNL1       -0.3001
     20 H         -14.0779   -8.3636   19.9087 H       1  UNL1        0.1498
     21 C         -14.4453   -9.2531   17.9671 C.3     1  UNL1        0.1172
     22 C         -15.9328   -9.3533   17.8023 C.ar    1  UNL1        0.0082
     23 C         -16.6822  -10.4902   18.4315 C.ar    1  UNL1        0.0005
     24 C         -18.1697  -10.5905   18.2667 C.ar    1  UNL1        0.0294
     25 C         -18.9079   -9.5538   17.4728 C.ar    1  UNL1        0.1410
     26 F         -20.3955   -9.6540   17.3080 F       1  UNL1       -0.2041
     27 C         -18.1586   -8.4169   16.8436 C.ar    1  UNL1        0.0408
     28 C         -16.6710   -8.3166   17.0084 C.ar    1  UNL1        0.0575
     29 CL        -15.9216   -7.1797   16.3792 Cl      1  UNL1       -0.0824
@<TRIPOS>BOND
     1     1     2    1
     2     2     3   ar
     3     3     4   ar
     4     4     8    1
     5     8     9   ar
     6     9    10   ar
     7    10    11   ar
     8    11    12    1
     9    11    13   ar
    10    13    14   ar
    11    14    15    1
    12     4     5   ar
    13     5     6    1
    14     5     7   ar
    15     7    16    1
    16    16    17    1
    17    17    18    2
    18    17    19   am
    19    19    21    1
    20    21    22    1
    21    22    23   ar
    22    23    24   ar
    23    24    25   ar
    24    25    26    1
    25    25    27   ar
    26    27    28   ar
    27    28    29    1
    28     7     2   ar
    29    28    22   ar
    30    14     8   ar
    31    19    20    1
