@<TRIPOS>MOLECULE
*****
 32 35 0 0 0
SMALL
GASTEIGER

@<TRIPOS>ATOM
      1 C           4.0778    1.0234   34.6341 C.ar    1  UNL1        0.1646
      2 N           3.3024    1.7014   33.5437 N.ar    1  UNL1       -0.2224
      3 C           3.2377    0.7677   32.3716 C.ar    1  UNL1        0.1074
      4 C           3.9731   -0.4874   32.7376 C.ar    1  UNL1        0.0588
      5 S           4.4923   -0.3294   34.1359 S.2     1  UNL1       -0.0508
      6 C           2.5570    1.0410   31.0631 C.ar    1  UNL1        0.1026
      7 C           2.9330    2.2512   30.2605 C.ar    1  UNL1        0.0224
      8 C           2.2523    2.5244   28.9521 C.ar    1  UNL1        0.0239
      9 C           1.1957    1.5876   28.4462 C.ar    1  UNL1        0.1189
     10 C           0.8197    0.3775   29.2488 C.ar    1  UNL1        0.2416
     11 N           1.5004    0.1042   30.5572 N.ar    1  UNL1       -0.2089
     12 N           0.5150    1.8609   27.1378 N.ar    1  UNL1       -0.2826
     13 C           0.9549    1.3607   25.7937 C.ar    1  UNL1        0.1826
     14 N          -0.0132    1.8731   24.7689 N.ar    1  UNL1       -0.2280
     15 C          -1.0514    2.6900   25.4796 C.ar    1  UNL1        0.0786
     16 C          -2.2122    3.3912   24.8387 C.3     1  UNL1        0.0538
     17 C          -0.7249    2.6824   26.9436 C.ar    1  UNL1        0.0963
     18 O          -0.2369   -0.5594   28.7430 O.3     1  UNL1       -0.4551
     19 C          -1.6838   -0.2792   29.0224 C.3     1  UNL1        0.2543
     20 N           4.3849    1.5974   35.9855 N.pl3   1  UNL1       -0.2784
     21 H           5.3179    1.7752   36.2444 H       1  UNL1        0.1555
     22 N           2.3509    3.0840   36.8788 N.ar    1  UNL1       -0.2377
     23 N           1.3917    2.9883   38.0281 N.ar    1  UNL1       -0.1642
     24 C           1.7184    1.7456   38.8021 C.ar    1  UNL1        0.1749
     25 C           2.8794    1.0734   38.1312 C.ar    1  UNL1        0.0589
     26 C           3.2703    1.9005   36.9425 C.ar    1  UNL1        0.1319
     27 C           1.0087    1.2605   40.0313 C.3     1  UNL1        0.4366
     28 F           0.2989    0.7753   41.2605 F       1  UNL1       -0.1643
     29 F           1.2190   -0.1585   39.5927 F       1  UNL1       -0.1643
     30 F           0.7984    2.6794   40.4699 F       1  UNL1       -0.1643
     31 C           1.2120    5.0944   35.6908 C.3     1  UNL1        0.0285
     32 C           2.3847    4.1722   35.8469 C.3     1  UNL1        0.1289
@<TRIPOS>BOND
     1    31    32    1
     2    32    22    1
     3    22    23   ar
     4    23    24   ar
     5    24    27    1
     6    27    28    1
     7    27    29    1
     8    27    30    1
     9    24    25   ar
    10    25    26   ar
    11    26    20    1
    12    20     1    1
    13     1     2   ar
    14     2     3   ar
    15     3     6    1
    16     6     7   ar
    17     7     8   ar
    18     8     9   ar
    19     9    12    1
    20    12    13   ar
    21    13    14   ar
    22    14    15   ar
    23    15    16    1
    24    15    17   ar
    25     9    10   ar
    26    10    18    1
    27    18    19    1
    28    10    11   ar
    29     3     4   ar
    30     4     5   ar
    31    26    22   ar
    32     5     1   ar
    33    11     6   ar
    34    17    12   ar
    35    20    21    1
@<TRIPOS>MOLECULE
*****
 32 35 0 0 0
SMALL
GASTEIGER

@<TRIPOS>ATOM
      1 C          -1.4398    4.0194   19.6650 C.ar    1  UNL1        0.1646
      2 N          -0.6461    2.8912   20.2542 N.ar    1  UNL1       -0.2224
      3 C           0.1634    2.2702   19.1546 C.ar    1  UNL1        0.1074
      4 C          -0.1301    3.0145   17.8858 C.ar    1  UNL1        0.0588
      5 S          -1.1209    4.0956   18.2012 S.2     1  UNL1       -0.0508
      6 C           1.1016    1.1086   19.2985 C.ar    1  UNL1        0.1026
      7 C           1.0902    0.2862   20.5529 C.ar    1  UNL1        0.0224
      8 C           2.0284   -0.8753   20.6967 C.ar    1  UNL1        0.0239
      9 C           2.9780   -1.2143   19.5862 C.ar    1  UNL1        0.1189
     10 C           2.9894   -0.3919   18.3318 C.ar    1  UNL1        0.2416
     11 N           2.0512    0.7696   18.1880 N.ar    1  UNL1       -0.2089
     12 N           3.9163   -2.3758   19.7301 N.ar    1  UNL1       -0.2826
     13 C           3.6380   -3.7905   19.3161 C.ar    1  UNL1        0.1826
     14 N           4.8472   -4.6156   19.6434 N.ar    1  UNL1       -0.2280
     15 C           5.8727   -3.7108   20.2596 C.ar    1  UNL1        0.0786
     16 C           7.2346   -4.1188   20.7382 C.3     1  UNL1        0.0538
     17 C           5.2974   -2.3266   20.3132 C.ar    1  UNL1        0.0963
     18 O           3.9391   -0.7309   17.2213 O.3     1  UNL1       -0.4551
     19 C           5.2709   -0.0459   17.1380 C.3     1  UNL1        0.2543
     20 N          -2.3863    4.9143   20.4090 N.pl3   1  UNL1       -0.2784
     21 H          -2.4618    5.8644   20.1624 H       1  UNL1        0.1555
     22 N          -4.4969    3.5926   21.3801 N.ar    1  UNL1       -0.2377
     23 N          -4.9856    3.2365   22.7529 N.ar    1  UNL1       -0.1642
     24 C          -4.0081    3.7854   23.7496 C.ar    1  UNL1        0.1749
     25 C          -2.9155    4.4806   22.9929 C.ar    1  UNL1        0.0589
     26 C          -3.2176    4.3615   21.5285 C.ar    1  UNL1        0.1319
     27 C          -4.1062    3.6607   25.2412 C.3     1  UNL1        0.4366
     28 F          -4.2043    3.5361   26.7328 F       1  UNL1       -0.1643
     29 F          -2.6118    3.7388   25.3460 F       1  UNL1       -0.1643
     30 F          -5.6004    3.5827   25.1364 F       1  UNL1       -0.1643
     31 C          -6.3638    4.0234   19.6254 C.3     1  UNL1        0.0285
     32 C          -5.1696    3.2415   20.0862 C.3     1  UNL1        0.1289
@<TRIPOS>BOND
     1    31    32    1
     2    32    22    1
     3    22    23   ar
     4    23    24   ar
     5    24    27    1
     6    27    28    1
     7    27    29    1
     8    27    30    1
     9    24    25   ar
    10    25    26   ar
    11    26    20    1
    12    20     1    1
    13     1     2   ar
    14     2     3   ar
    15     3     6    1
    16     6     7   ar
    17     7     8   ar
    18     8     9   ar
    19     9    12    1
    20    12    13   ar
    21    13    14   ar
    22    14    15   ar
    23    15    16    1
    24    15    17   ar
    25     9    10   ar
    26    10    18    1
    27    18    19    1
    28    10    11   ar
    29     3     4   ar
    30     4     5   ar
    31    26    22   ar
    32     5     1   ar
    33    11     6   ar
    34    17    12   ar
    35    20    21    1
@<TRIPOS>MOLECULE
*****
 32 35 0 0 0
SMALL
GASTEIGER

@<TRIPOS>ATOM
      1 C           6.3886   -3.5867   20.4061 C.ar    1  UNL1        0.1646
      2 N           6.0460   -4.0966   21.7745 N.ar    1  UNL1       -0.2224
      3 C           7.2769   -4.0010   22.6263 C.ar    1  UNL1        0.1074
      4 C           8.3803   -3.4319   21.7844 C.ar    1  UNL1        0.0588
      5 S           7.8313   -3.1759   20.4122 S.2     1  UNL1       -0.0508
      6 C           7.3855   -4.4037   24.0673 C.ar    1  UNL1        0.1026
      7 C           7.7499   -5.8137   24.4265 C.ar    1  UNL1        0.0224
      8 C           7.8584   -6.2163   25.8673 C.ar    1  UNL1        0.0239
      9 C           7.6027   -5.2089   26.9489 C.ar    1  UNL1        0.1189
     10 C           7.2383   -3.7989   26.5897 C.ar    1  UNL1        0.2416
     11 N           7.1298   -3.3963   25.1488 N.ar    1  UNL1       -0.2089
     12 N           7.7112   -5.6116   28.3898 N.ar    1  UNL1       -0.2826
     13 C           6.6187   -5.5257   29.4140 C.ar    1  UNL1        0.1826
     14 N           7.1636   -6.0319   30.7167 N.ar    1  UNL1       -0.2280
     15 C           8.5929   -6.4307   30.4975 C.ar    1  UNL1        0.0786
     16 C           9.5209   -6.9909   31.5344 C.3     1  UNL1        0.0538
     17 C           8.9314   -6.1709   29.0594 C.ar    1  UNL1        0.0963
     18 O           6.9826   -2.7916   27.6712 O.3     1  UNL1       -0.4551
     19 C           5.6179   -2.1889   27.8274 C.3     1  UNL1        0.2543
     20 N           5.4528   -3.5023   19.2368 N.pl3   1  UNL1       -0.2784
     21 H           5.4308   -4.2269   18.5706 H       1  UNL1        0.1555
     22 N           4.8434   -1.0834   18.2765 N.ar    1  UNL1       -0.2377
     23 N           3.6708   -0.1565   18.4030 N.ar    1  UNL1       -0.1642
     24 C           2.6532   -0.8145   19.2871 C.ar    1  UNL1        0.1749
     25 C           3.1969   -2.1479   19.7070 C.ar    1  UNL1        0.0589
     26 C           4.5505   -2.3141   19.0825 C.ar    1  UNL1        0.1319
     27 C           1.3251   -0.2399   19.6819 C.3     1  UNL1        0.4366
     28 F          -0.0031    0.3348   20.0767 F       1  UNL1       -0.1643
     29 F           1.1615    0.3291   18.3036 F       1  UNL1       -0.1643
     30 F           1.4886   -0.8087   21.0601 F       1  UNL1       -0.1643
     31 C           6.3372    0.5330   16.8961 C.3     1  UNL1        0.0285
     32 C           6.0900   -0.8249   17.4834 C.3     1  UNL1        0.1289
@<TRIPOS>BOND
     1    31    32    1
     2    32    22    1
     3    22    23   ar
     4    23    24   ar
     5    24    27    1
     6    27    28    1
     7    27    29    1
     8    27    30    1
     9    24    25   ar
    10    25    26   ar
    11    26    20    1
    12    20     1    1
    13     1     2   ar
    14     2     3   ar
    15     3     6    1
    16     6     7   ar
    17     7     8   ar
    18     8     9   ar
    19     9    12    1
    20    12    13   ar
    21    13    14   ar
    22    14    15   ar
    23    15    16    1
    24    15    17   ar
    25     9    10   ar
    26    10    18    1
    27    18    19    1
    28    10    11   ar
    29     3     4   ar
    30     4     5   ar
    31    26    22   ar
    32     5     1   ar
    33    11     6   ar
    34    17    12   ar
    35    20    21    1
@<TRIPOS>MOLECULE
*****
 32 35 0 0 0
SMALL
GASTEIGER

@<TRIPOS>ATOM
      1 C           4.1716    1.4633   34.3960 C.ar    1  UNL1        0.1646
      2 N           5.2124    0.4509   34.0194 N.ar    1  UNL1       -0.2224
      3 C           4.7144   -0.3022   32.8216 C.ar    1  UNL1        0.1074
      4 C           3.3659    0.2448   32.4578 C.ar    1  UNL1        0.0588
      5 S           3.0303    1.3359   33.4309 S.2     1  UNL1       -0.0508
      6 C           5.4380   -1.4081   32.1119 C.ar    1  UNL1        0.1026
      7 C           5.8112   -2.6572   32.8538 C.ar    1  UNL1        0.0224
      8 C           6.5348   -3.7630   32.1442 C.ar    1  UNL1        0.0239
      9 C           6.8851   -3.6197   30.6927 C.ar    1  UNL1        0.1189
     10 C           6.5119   -2.3706   29.9509 C.ar    1  UNL1        0.2416
     11 N           5.7884   -1.2648   30.6605 N.ar    1  UNL1       -0.2089
     12 N           7.6087   -4.7256   29.9831 N.ar    1  UNL1       -0.2826
     13 C           9.0743   -5.0282   30.0853 C.ar    1  UNL1        0.1826
     14 N           9.3652   -6.2126   29.2121 N.ar    1  UNL1       -0.2280
     15 C           8.0792   -6.6420   28.5702 C.ar    1  UNL1        0.0786
     16 C           7.9088   -7.7891   27.6188 C.3     1  UNL1        0.0538
     17 C           6.9937   -5.7230   29.0467 C.ar    1  UNL1        0.0963
     18 O           6.8622   -2.2273   28.4994 O.3     1  UNL1       -0.4551
     19 C           5.7992   -2.3817   27.4525 C.3     1  UNL1        0.2543
     20 N           4.2569    2.4329   35.5374 N.pl3   1  UNL1       -0.2784
     21 H           5.0320    3.0350   35.6148 H       1  UNL1        0.1555
     22 N           2.1155    3.5536   36.6789 N.ar    1  UNL1       -0.2377
     23 N           1.2272    3.2067   37.8368 N.ar    1  UNL1       -0.1642
     24 C           1.7243    1.9237   38.4342 C.ar    1  UNL1        0.1749
     25 C           2.9197    1.4777   37.6456 C.ar    1  UNL1        0.0589
     26 C           3.1615    2.4850   36.5607 C.ar    1  UNL1        0.1319
     27 C           1.1302    1.2118   39.6132 C.3     1  UNL1        0.4366
     28 F           0.5361    0.4999   40.7924 F       1  UNL1       -0.1643
     29 F           1.5734   -0.1028   39.0428 F       1  UNL1       -0.1643
     30 F           0.6870    2.5264   40.1836 F       1  UNL1       -0.1643
     31 C           1.3058    4.6370   34.4607 C.3     1  UNL1        0.0285
     32 C           1.9813    4.7577   35.7945 C.3     1  UNL1        0.1289
@<TRIPOS>BOND
     1    31    32    1
     2    32    22    1
     3    22    23   ar
     4    23    24   ar
     5    24    27    1
     6    27    28    1
     7    27    29    1
     8    27    30    1
     9    24    25   ar
    10    25    26   ar
    11    26    20    1
    12    20     1    1
    13     1     2   ar
    14     2     3   ar
    15     3     6    1
    16     6     7   ar
    17     7     8   ar
    18     8     9   ar
    19     9    12    1
    20    12    13   ar
    21    13    14   ar
    22    14    15   ar
    23    15    16    1
    24    15    17   ar
    25     9    10   ar
    26    10    18    1
    27    18    19    1
    28    10    11   ar
    29     3     4   ar
    30     4     5   ar
    31    26    22   ar
    32     5     1   ar
    33    11     6   ar
    34    17    12   ar
    35    20    21    1
@<TRIPOS>MOLECULE
*****
 32 35 0 0 0
SMALL
GASTEIGER

@<TRIPOS>ATOM
      1 C           4.6501   -2.9613   20.2877 C.ar    1  UNL1        0.1646
      2 N           4.5851   -3.3658   21.7307 N.ar    1  UNL1       -0.2224
      3 C           5.9813   -3.3542   22.2787 C.ar    1  UNL1        0.1074
      4 C           6.9093   -2.9425   21.1745 C.ar    1  UNL1        0.0588
      5 S           6.0866   -2.6996   19.9439 S.2     1  UNL1       -0.0508
      6 C           6.3797   -3.6945   23.6843 C.ar    1  UNL1        0.1026
      7 C           6.0851   -2.7364   24.8002 C.ar    1  UNL1        0.0224
      8 C           6.4835   -3.0768   26.2056 C.ar    1  UNL1        0.0239
      9 C           7.1764   -4.3752   26.4952 C.ar    1  UNL1        0.1189
     10 C           7.4710   -5.3333   25.3793 C.ar    1  UNL1        0.2416
     11 N           7.0726   -4.9930   23.9739 N.ar    1  UNL1       -0.2089
     12 N           7.5748   -4.7156   27.9008 N.ar    1  UNL1       -0.2826
     13 C           8.9702   -4.6966   28.4508 C.ar    1  UNL1        0.1826
     14 N           8.9056   -5.1039   29.8930 N.ar    1  UNL1       -0.2280
     15 C           7.4702   -5.3746   30.2343 C.ar    1  UNL1        0.0786
     16 C           6.9488   -5.8090   31.5720 C.3     1  UNL1        0.0538
     17 C           6.6478   -5.1346   29.0031 C.ar    1  UNL1        0.0963
     18 O           8.1640   -6.6318   25.6689 O.3     1  UNL1       -0.4551
     19 C           8.5551   -7.5408   24.5418 C.3     1  UNL1        0.2543
     20 N           3.4835   -2.8398   19.3527 N.pl3   1  UNL1       -0.2784
     21 H           3.1831   -3.6222   18.8361 H       1  UNL1        0.1555
     22 N           3.0052   -0.5173   18.1189 N.ar    1  UNL1       -0.2377
     23 N           2.0838    0.6416   18.3596 N.ar    1  UNL1       -0.1642
     24 C           1.2837    0.3489   19.5942 C.ar    1  UNL1        0.1749
     25 C           1.7107   -0.9908   20.1165 C.ar    1  UNL1        0.0589
     26 C           2.7746   -1.5262   19.2047 C.ar    1  UNL1        0.1319
     27 C           0.2400    1.2396   20.2001 C.3     1  UNL1        0.4366
     28 F          -0.8038    2.1304   20.8061 F       1  UNL1       -0.1643
     29 F           0.2192    0.3795   21.4289 F       1  UNL1       -0.1643
     30 F           0.2607    2.0997   18.9715 F       1  UNL1       -0.1643
     31 C           5.3511   -0.0368   17.1109 C.3     1  UNL1        0.0285
     32 C           3.9852   -0.6449   16.9904 C.3     1  UNL1        0.1289
@<TRIPOS>BOND
     1    31    32    1
     2    32    22    1
     3    22    23   ar
     4    23    24   ar
     5    24    27    1
     6    27    28    1
     7    27    29    1
     8    27    30    1
     9    24    25   ar
    10    25    26   ar
    11    26    20    1
    12    20     1    1
    13     1     2   ar
    14     2     3   ar
    15     3     6    1
    16     6     7   ar
    17     7     8   ar
    18     8     9   ar
    19     9    12    1
    20    12    13   ar
    21    13    14   ar
    22    14    15   ar
    23    15    16    1
    24    15    17   ar
    25     9    10   ar
    26    10    18    1
    27    18    19    1
    28    10    11   ar
    29     3     4   ar
    30     4     5   ar
    31    26    22   ar
    32     5     1   ar
    33    11     6   ar
    34    17    12   ar
    35    20    21    1
@<TRIPOS>MOLECULE
*****
 32 35 0 0 0
SMALL
GASTEIGER

@<TRIPOS>ATOM
      1 C           2.6100    1.2076   19.7710 C.ar    1  UNL1        0.1646
      2 N           1.7653    1.6754   20.9189 N.ar    1  UNL1       -0.2224
      3 C           0.4471    2.1325   20.3683 C.ar    1  UNL1        0.1074
      4 C           0.4770    1.9473   18.8800 C.ar    1  UNL1        0.0588
      5 S           1.8138    1.3757   18.5109 S.2     1  UNL1       -0.0508
      6 C          -0.6999    2.6790   21.1658 C.ar    1  UNL1        0.1026
      7 C          -0.4834    3.1267   22.5810 C.ar    1  UNL1        0.0224
      8 C          -1.6303    3.6731   23.3785 C.ar    1  UNL1        0.0239
      9 C          -2.9936    3.7719   22.7608 C.ar    1  UNL1        0.1189
     10 C          -3.2101    3.3242   21.3457 C.ar    1  UNL1        0.2416
     11 N          -2.0632    2.7778   20.5482 N.ar    1  UNL1       -0.2089
     12 N          -4.1405    4.3183   23.5584 N.ar    1  UNL1       -0.2826
     13 C          -4.9474    3.5639   24.5732 C.ar    1  UNL1        0.1826
     14 N          -5.9875    4.4944   25.1232 N.ar    1  UNL1       -0.2280
     15 C          -5.8234    5.8239   24.4482 C.ar    1  UNL1        0.0786
     16 C          -6.6548    7.0475   24.6967 C.3     1  UNL1        0.0538
     17 C          -4.6819    5.7151   23.4811 C.ar    1  UNL1        0.0963
     18 O          -4.5735    3.4230   20.7280 O.3     1  UNL1       -0.4551
     19 C          -4.7763    4.2368   19.4844 C.3     1  UNL1        0.2543
     20 N           4.0059    0.6668   19.8664 N.pl3   1  UNL1       -0.2784
     21 H           4.7519    1.2672   20.0950 H       1  UNL1        0.1555
     22 N           5.3868   -1.3553   18.7945 N.ar    1  UNL1       -0.2377
     23 N           5.2632   -2.8501   18.8101 N.ar    1  UNL1       -0.1642
     24 C           4.0650   -3.2074   19.6387 C.ar    1  UNL1        0.1749
     25 C           3.4482   -1.9335   20.1353 C.ar    1  UNL1        0.0589
     26 C           4.2651   -0.7888   19.6135 C.ar    1  UNL1        0.1319
     27 C           3.5704   -4.5951   19.9212 C.3     1  UNL1        0.4366
     28 F           3.0759   -5.9828   20.2036 F       1  UNL1       -0.1643
     29 F           4.2594   -4.5695   21.2534 F       1  UNL1       -0.1643
     30 F           2.8815   -4.6207   18.5891 F       1  UNL1       -0.1643
     31 C           6.0810    0.2936   16.9105 C.3     1  UNL1        0.0285
     32 C           6.4463   -0.5656   18.0846 C.3     1  UNL1        0.1289
@<TRIPOS>BOND
     1    31    32    1
     2    32    22    1
     3    22    23   ar
     4    23    24   ar
     5    24    27    1
     6    27    28    1
     7    27    29    1
     8    27    30    1
     9    24    25   ar
    10    25    26   ar
    11    26    20    1
    12    20     1    1
    13     1     2   ar
    14     2     3   ar
    15     3     6    1
    16     6     7   ar
    17     7     8   ar
    18     8     9   ar
    19     9    12    1
    20    12    13   ar
    21    13    14   ar
    22    14    15   ar
    23    15    16    1
    24    15    17   ar
    25     9    10   ar
    26    10    18    1
    27    18    19    1
    28    10    11   ar
    29     3     4   ar
    30     4     5   ar
    31    26    22   ar
    32     5     1   ar
    33    11     6   ar
    34    17    12   ar
    35    20    21    1
@<TRIPOS>MOLECULE
*****
 32 35 0 0 0
SMALL
GASTEIGER

@<TRIPOS>ATOM
      1 C          -1.6285    3.0634   20.4575 C.ar    1  UNL1        0.1646
      2 N          -0.9841    1.7247   20.6641 N.ar    1  UNL1       -0.2224
      3 C           0.4994    1.9318   20.7440 C.ar    1  UNL1        0.1074
      4 C           0.7718    3.3985   20.5867 C.ar    1  UNL1        0.0588
      5 S          -0.5433    4.0979   20.4097 S.2     1  UNL1       -0.0508
      6 C           1.5297    0.8604   20.9456 C.ar    1  UNL1        0.1026
      7 C           1.6848   -0.2318   19.9293 C.ar    1  UNL1        0.0224
      8 C           2.7150   -1.3032   20.1310 C.ar    1  UNL1        0.0239
      9 C           3.5901   -1.2824   21.3491 C.ar    1  UNL1        0.1189
     10 C           3.4350   -0.1902   22.3654 C.ar    1  UNL1        0.2416
     11 N           2.4048    0.8811   22.1637 N.ar    1  UNL1       -0.2089
     12 N           4.6204   -2.3539   21.5507 N.ar    1  UNL1       -0.2826
     13 C           4.5314   -3.4902   22.5259 C.ar    1  UNL1        0.1826
     14 N           5.7764   -4.3157   22.3905 N.ar    1  UNL1       -0.2280
     15 C           6.6349   -3.6896   21.3317 C.ar    1  UNL1        0.0786
     16 C           7.9730   -4.1883   20.8726 C.3     1  UNL1        0.0538
     17 C           5.9204   -2.4771   20.8128 C.ar    1  UNL1        0.0963
     18 O           4.3101   -0.1695   23.5835 O.3     1  UNL1       -0.4551
     19 C           3.7772   -0.6565   24.8983 C.3     1  UNL1        0.2543
     20 N          -3.0998    3.3222   20.3224 N.pl3   1  UNL1       -0.2784
     21 H          -3.5154    3.3468   19.4303 H       1  UNL1        0.1555
     22 N          -5.4020    3.8692   21.5657 N.ar    1  UNL1       -0.2377
     23 N          -5.8280    4.0049   22.9976 N.ar    1  UNL1       -0.1642
     24 C          -4.6272    3.7630   23.8633 C.ar    1  UNL1        0.1749
     25 C          -3.4591    3.4778   22.9666 C.ar    1  UNL1        0.0589
     26 C          -3.9379    3.5434   21.5466 C.ar    1  UNL1        0.1319
     27 C          -4.5994    3.7998   25.3626 C.3     1  UNL1        0.4366
     28 F          -4.5717    3.8367   26.8619 F       1  UNL1       -0.1643
     29 F          -3.1663    3.3570   25.3470 F       1  UNL1       -0.1643
     30 F          -6.0324    4.2427   25.3782 F       1  UNL1       -0.1643
     31 C          -7.1275    5.2626   20.2126 C.3     1  UNL1        0.0285
     32 C          -6.2850    4.0308   20.3640 C.3     1  UNL1        0.1289
@<TRIPOS>BOND
     1    31    32    1
     2    32    22    1
     3    22    23   ar
     4    23    24   ar
     5    24    27    1
     6    27    28    1
     7    27    29    1
     8    27    30    1
     9    24    25   ar
    10    25    26   ar
    11    26    20    1
    12    20     1    1
    13     1     2   ar
    14     2     3   ar
    15     3     6    1
    16     6     7   ar
    17     7     8   ar
    18     8     9   ar
    19     9    12    1
    20    12    13   ar
    21    13    14   ar
    22    14    15   ar
    23    15    16    1
    24    15    17   ar
    25     9    10   ar
    26    10    18    1
    27    18    19    1
    28    10    11   ar
    29     3     4   ar
    30     4     5   ar
    31    26    22   ar
    32     5     1   ar
    33    11     6   ar
    34    17    12   ar
    35    20    21    1
@<TRIPOS>MOLECULE
*****
 32 35 0 0 0
SMALL
GASTEIGER

@<TRIPOS>ATOM
      1 C           2.3566    1.5425   20.5596 C.ar    1  UNL1        0.1646
      2 N           0.8828    1.7053   20.7859 N.ar    1  UNL1       -0.2224
      3 C           0.3587    2.6621   19.7565 C.ar    1  UNL1        0.1074
      4 C           1.5086    3.0906   18.8939 C.ar    1  UNL1        0.0588
      5 S           2.7435    2.3987   19.3902 S.2     1  UNL1       -0.0508
      6 C          -1.0654    3.1115   19.6144 C.ar    1  UNL1        0.1026
      7 C          -1.4638    3.9892   18.4652 C.ar    1  UNL1        0.0224
      8 C          -2.8879    4.4385   18.3232 C.ar    1  UNL1        0.0239
      9 C          -3.9135    4.0102   19.3305 C.ar    1  UNL1        0.1189
     10 C          -3.5151    3.1324   20.4798 C.ar    1  UNL1        0.2416
     11 N          -2.0910    2.6831   20.6217 N.ar    1  UNL1       -0.2089
     12 N          -5.3376    4.4596   19.1885 N.ar    1  UNL1       -0.2826
     13 C          -6.4445    3.6878   18.5335 C.ar    1  UNL1        0.1826
     14 N          -7.6958    4.5108   18.6167 N.ar    1  UNL1       -0.2280
     15 C          -7.3621    5.7913   19.3232 C.ar    1  UNL1        0.0786
     16 C          -8.3181    6.9075   19.6236 C.3     1  UNL1        0.0538
     17 C          -5.9047    5.7596   19.6766 C.ar    1  UNL1        0.0963
     18 O          -4.5407    2.7040   21.4870 O.3     1  UNL1       -0.4551
     19 C          -4.5139    3.2748   22.8739 C.3     1  UNL1        0.2543
     20 N           3.2814    0.6756   21.3618 N.pl3   1  UNL1       -0.2784
     21 H           3.3638    0.8109   22.3335 H       1  UNL1        0.1555
     22 N           5.5504   -0.3483   20.3881 N.ar    1  UNL1       -0.2377
     23 N           5.9285   -1.6284   19.7036 N.ar    1  UNL1       -0.1642
     24 C           4.6923   -2.4684   19.5760 C.ar    1  UNL1        0.1749
     25 C           3.5503   -1.7076   20.1816 C.ar    1  UNL1        0.0589
     26 C           4.0806   -0.3973   20.6835 C.ar    1  UNL1        0.1319
     27 C           4.6124   -3.8302   18.9523 C.3     1  UNL1        0.4366
     28 F           4.5324   -5.1921   18.3286 F       1  UNL1       -0.1643
     29 F           5.4935   -3.3679   17.8298 F       1  UNL1       -0.1643
     30 F           3.7313   -4.2926   20.0747 F       1  UNL1       -0.1643
     31 C           7.0151    1.6572   19.6250 C.3     1  UNL1        0.0285
     32 C           6.4790    0.7822   20.7191 C.3     1  UNL1        0.1289
@<TRIPOS>BOND
     1    31    32    1
     2    32    22    1
     3    22    23   ar
     4    23    24   ar
     5    24    27    1
     6    27    28    1
     7    27    29    1
     8    27    30    1
     9    24    25   ar
    10    25    26   ar
    11    26    20    1
    12    20     1    1
    13     1     2   ar
    14     2     3   ar
    15     3     6    1
    16     6     7   ar
    17     7     8   ar
    18     8     9   ar
    19     9    12    1
    20    12    13   ar
    21    13    14   ar
    22    14    15   ar
    23    15    16    1
    24    15    17   ar
    25     9    10   ar
    26    10    18    1
    27    18    19    1
    28    10    11   ar
    29     3     4   ar
    30     4     5   ar
    31    26    22   ar
    32     5     1   ar
    33    11     6   ar
    34    17    12   ar
    35    20    21    1
@<TRIPOS>MOLECULE
*****
 32 35 0 0 0
SMALL
GASTEIGER

@<TRIPOS>ATOM
      1 C          -0.4362    2.6397   21.1263 C.ar    1  UNL1        0.1646
      2 N          -0.3605    2.8096   22.6147 N.ar    1  UNL1       -0.2224
      3 C           0.4519    1.6774   23.1697 C.ar    1  UNL1        0.1074
      4 C           0.8783    0.8078   22.0244 C.ar    1  UNL1        0.0588
      5 S           0.3295    1.4025   20.7614 S.2     1  UNL1       -0.0508
      6 C           0.7802    1.4540   24.6163 C.ar    1  UNL1        0.1026
      7 C           2.2117    1.3653   25.0554 C.ar    1  UNL1        0.0224
      8 C           2.5400    1.1419   26.5018 C.ar    1  UNL1        0.0239
      9 C           1.4368    1.0073   27.5092 C.ar    1  UNL1        0.1189
     10 C           0.0053    1.0960   27.0701 C.ar    1  UNL1        0.2416
     11 N          -0.3230    1.3194   25.6236 N.ar    1  UNL1       -0.2089
     12 N           1.7651    0.7839   28.9557 N.ar    1  UNL1       -0.2826
     13 C           2.2625   -0.4960   29.5595 C.ar    1  UNL1        0.1826
     14 N           2.4585   -0.2698   31.0293 N.ar    1  UNL1       -0.2280
     15 C           2.0822    1.1500   31.3339 C.ar    1  UNL1        0.0786
     16 C           2.1267    1.8037   32.6833 C.3     1  UNL1        0.0538
     17 C           1.6537    1.8011   30.0524 C.ar    1  UNL1        0.0963
     18 O          -1.0980    0.9614   28.0774 O.3     1  UNL1       -0.4551
     19 C          -1.4082   -0.3788   28.6754 C.3     1  UNL1        0.2543
     20 N          -1.1519    3.5476   20.1705 N.pl3   1  UNL1       -0.2784
     21 H          -0.6417    4.0580   19.5008 H       1  UNL1        0.1555
     22 N          -3.5620    3.8957   19.0683 N.ar    1  UNL1       -0.2377
     23 N          -4.9668    3.9656   19.5898 N.ar    1  UNL1       -0.1642
     24 C          -4.9176    3.7909   21.0788 C.ar    1  UNL1        0.1749
     25 C          -3.4826    3.6131   21.4775 C.ar    1  UNL1        0.0589
     26 C          -2.6448    3.6779   20.2350 C.ar    1  UNL1        0.1319
     27 C          -6.0965    3.7936   22.0061 C.3     1  UNL1        0.4366
     28 F          -7.2755    3.7963   22.9336 F       1  UNL1       -0.1643
     29 F          -6.9693    4.2980   20.8953 F       1  UNL1       -0.1643
     30 F          -5.2239    3.2893   23.1170 F       1  UNL1       -0.1643
     31 C          -4.0917    4.6129   16.6280 C.3     1  UNL1        0.0285
     32 C          -3.1474    4.0216   17.6322 C.3     1  UNL1        0.1289
@<TRIPOS>BOND
     1    31    32    1
     2    32    22    1
     3    22    23   ar
     4    23    24   ar
     5    24    27    1
     6    27    28    1
     7    27    29    1
     8    27    30    1
     9    24    25   ar
    10    25    26   ar
    11    26    20    1
    12    20     1    1
    13     1     2   ar
    14     2     3   ar
    15     3     6    1
    16     6     7   ar
    17     7     8   ar
    18     8     9   ar
    19     9    12    1
    20    12    13   ar
    21    13    14   ar
    22    14    15   ar
    23    15    16    1
    24    15    17   ar
    25     9    10   ar
    26    10    18    1
    27    18    19    1
    28    10    11   ar
    29     3     4   ar
    30     4     5   ar
    31    26    22   ar
    32     5     1   ar
    33    11     6   ar
    34    17    12   ar
    35    20    21    1
