@<TRIPOS>MOLECULE
*****
 39 44 0 0 0
SMALL
GASTEIGER

@<TRIPOS>ATOM
      1 C           5.0140   -2.2019   24.5191 C.ar    1  UNL1        0.1261
      2 N           3.9529   -1.3465   25.1452 N.ar    1  UNL1       -0.1632
      3 N           4.3797   -1.0311   26.5481 N.ar    1  UNL1       -0.2290
      4 C           5.7047   -1.6917   26.7891 C.ar    1  UNL1        0.0822
      5 C           6.0968   -2.4153   25.5351 C.ar    1  UNL1        0.0413
      6 C           3.6157   -0.2009   27.5366 C.ar    1  UNL1        0.0933
      7 C           2.5508   -0.8333   28.3829 C.ar    1  UNL1        0.0209
      8 C           1.7868   -0.0031   29.3713 C.ar    1  UNL1        0.0130
      9 C           2.0877    1.4595   29.5135 C.ar    1  UNL1        0.0586
     10 CL          1.3237    2.2898   30.5021 Cl      1  UNL1       -0.0822
     11 C           3.1526    2.0919   28.6673 C.ar    1  UNL1        0.0243
     12 C           3.9165    1.2617   27.6789 C.ar    1  UNL1        0.0761
     13 CL          4.9815    1.8941   26.8326 Cl      1  UNL1       -0.0806
     14 C           6.4983   -1.6380   28.0608 C.ar    1  UNL1        0.0176
     15 C           6.2808   -2.6727   29.1248 C.ar    1  UNL1        0.0024
     16 C           7.0744   -2.6191   30.3966 C.ar    1  UNL1        0.0114
     17 C           8.0855   -1.5307   30.6044 C.ar    1  UNL1        0.0577
     18 CL          8.8791   -1.4771   31.8761 Cl      1  UNL1       -0.0822
     19 C           8.3030   -0.4959   29.5403 C.ar    1  UNL1        0.0114
     20 C           7.5094   -0.5497   28.2686 C.ar    1  UNL1        0.0024
     21 C           4.9119   -2.8920   20.7008 C.ar    1  UNL1        0.1185
     22 N           5.0234   -4.2856   21.2443 N.ar    1  UNL1       -0.1450
     23 N           5.0752   -4.1967   22.7408 N.ar    1  UNL1       -0.1395
     24 C           4.9958   -2.7482   23.1221 C.ar    1  UNL1        0.1525
     25 S           4.8949   -1.9418   21.8614 S.2     1  UNL1       -0.0480
     26 C           4.8317   -2.5147   19.2513 C.3     1  UNL1        0.1301
     27 C           5.8967   -1.4796   19.4617 C.3     1  UNL1        0.0145
     28 C           5.8165   -1.1023   18.0121 C.3     1  UNL1        0.0014
     29 C           4.7514   -2.1374   17.8017 C.3     1  UNL1        0.0145
     30 F           2.7016   -4.5849   18.8303 F       1  UNL1       -0.1696
     31 C           3.7666   -3.5498   19.0408 C.3     1  UNL1        0.4025
     32 F           2.7655   -2.6561   19.7111 F       1  UNL1       -0.1696
     33 F           4.7677   -4.4435   18.3706 F       1  UNL1       -0.1696
     34 C           7.3512   -3.2123   25.3326 C.3     1  UNL1        0.1587
     35 N           7.3377   -4.6978   25.5402 N.ar    1  UNL1       -0.2254
     36 C           7.9125   -5.7235   24.6087 C.ar    1  UNL1        0.1975
     37 N           7.6770   -7.0781   25.2085 N.ar    1  UNL1       -0.2007
     38 C           6.9566   -6.8896   26.5106 C.ar    1  UNL1        0.2210
     39 N           6.7469   -5.4185   26.7156 N.ar    1  UNL1       -0.1448
@<TRIPOS>BOND
     1    30    31    1
     2    31    32    1
     3    31    33    1
     4    31    26    1
     5    26    21    1
     6    21    22   ar
     7    22    23   ar
     8    23    24   ar
     9    24     1    1
    10     1     2   ar
    11     2     3   ar
    12     3     6    1
    13     6     7   ar
    14     7     8   ar
    15     8     9   ar
    16     9    10    1
    17     9    11   ar
    18    11    12   ar
    19    12    13    1
    20     3     4   ar
    21     4    14    1
    22    14    15   ar
    23    15    16   ar
    24    16    17   ar
    25    17    18    1
    26    17    19   ar
    27    19    20   ar
    28     4     5   ar
    29     5    34    1
    30    34    35    1
    31    35    36   ar
    32    36    37   ar
    33    37    38   ar
    34    38    39   ar
    35    24    25   ar
    36    26    27    1
    37    27    28    1
    38    28    29    1
    39    29    26    1
    40    25    21   ar
    41     5     1   ar
    42    39    35   ar
    43    12     6   ar
    44    20    14   ar
@<TRIPOS>MOLECULE
*****
 39 44 0 0 0
SMALL
GASTEIGER

@<TRIPOS>ATOM
      1 C           0.3994    1.6056   22.9765 C.ar    1  UNL1        0.1261
      2 N           0.8173    1.1101   24.3292 N.ar    1  UNL1       -0.1632
      3 N           0.2255    2.0241   25.3609 N.ar    1  UNL1       -0.2290
      4 C          -0.5582    3.0846   24.6458 C.ar    1  UNL1        0.0822
      5 C          -0.4507    2.8260   23.1722 C.ar    1  UNL1        0.0413
      6 C           0.3886    1.8996   26.8468 C.ar    1  UNL1        0.0933
      7 C          -0.4885    0.9613   27.6216 C.ar    1  UNL1        0.0209
      8 C          -0.3253    0.8368   29.1075 C.ar    1  UNL1        0.0130
      9 C           0.7150    1.6506   29.8186 C.ar    1  UNL1        0.0586
     10 CL          0.8782    1.5260   31.3045 Cl      1  UNL1       -0.0822
     11 C           1.5921    2.5888   29.0438 C.ar    1  UNL1        0.0243
     12 C           1.4289    2.7133   27.5579 C.ar    1  UNL1        0.0761
     13 CL          2.3060    3.6516   26.7830 Cl      1  UNL1       -0.0806
     14 C          -1.3162    4.2066   25.2910 C.ar    1  UNL1        0.0176
     15 C          -0.8542    5.6228   25.1148 C.ar    1  UNL1        0.0024
     16 C          -1.6122    6.7448   25.7600 C.ar    1  UNL1        0.0114
     17 C          -2.8324    6.4508   26.5815 C.ar    1  UNL1        0.0577
     18 CL         -3.5904    7.5729   27.2267 Cl      1  UNL1       -0.0822
     19 C          -3.2945    5.0346   26.7578 C.ar    1  UNL1        0.0114
     20 C          -2.5363    3.9126   26.1125 C.ar    1  UNL1        0.0024
     21 C           2.0399   -0.0420   19.8686 C.ar    1  UNL1        0.1185
     22 N           0.6256    0.1228   19.3967 N.ar    1  UNL1       -0.1450
     23 N          -0.1610    0.7600   20.5035 N.ar    1  UNL1       -0.1395
     24 C           0.7670    0.9891   21.6594 C.ar    1  UNL1        0.1525
     25 S           2.1273    0.4935   21.2670 S.2     1  UNL1       -0.0480
     26 C           3.1686   -0.6375   19.0804 C.3     1  UNL1        0.1301
     27 C           2.7933    0.2109   17.9018 C.3     1  UNL1        0.0145
     28 C           3.9221   -0.3847   17.1135 C.3     1  UNL1        0.0014
     29 C           4.2974   -1.2331   18.2922 C.3     1  UNL1        0.0145
     30 F           3.9194   -2.3345   21.4377 F       1  UNL1       -0.1696
     31 C           3.5440   -1.4860   20.2591 C.3     1  UNL1        0.4025
     32 F           4.6791   -0.5552   20.5677 F       1  UNL1       -0.1696
     33 F           2.4090   -2.4168   19.9505 F       1  UNL1       -0.1696
     34 C          -1.0824    3.6440   22.0851 C.3     1  UNL1        0.1587
     35 N          -2.5605    3.5583   21.8447 N.ar    1  UNL1       -0.2254
     36 C          -3.6294    4.1793   22.6943 C.ar    1  UNL1        0.1975
     37 N          -4.9588    3.8414   22.0872 N.ar    1  UNL1       -0.2007
     38 C          -4.7115    3.0117   20.8623 C.ar    1  UNL1        0.2210
     39 N          -3.2293    2.8367   20.7124 N.ar    1  UNL1       -0.1448
@<TRIPOS>BOND
     1    30    31    1
     2    31    32    1
     3    31    33    1
     4    31    26    1
     5    26    21    1
     6    21    22   ar
     7    22    23   ar
     8    23    24   ar
     9    24     1    1
    10     1     2   ar
    11     2     3   ar
    12     3     6    1
    13     6     7   ar
    14     7     8   ar
    15     8     9   ar
    16     9    10    1
    17     9    11   ar
    18    11    12   ar
    19    12    13    1
    20     3     4   ar
    21     4    14    1
    22    14    15   ar
    23    15    16   ar
    24    16    17   ar
    25    17    18    1
    26    17    19   ar
    27    19    20   ar
    28     4     5   ar
    29     5    34    1
    30    34    35    1
    31    35    36   ar
    32    36    37   ar
    33    37    38   ar
    34    38    39   ar
    35    24    25   ar
    36    26    27    1
    37    27    28    1
    38    28    29    1
    39    29    26    1
    40    25    21   ar
    41     5     1   ar
    42    39    35   ar
    43    12     6   ar
    44    20    14   ar
@<TRIPOS>MOLECULE
*****
 39 44 0 0 0
SMALL
GASTEIGER

@<TRIPOS>ATOM
      1 C           0.5017    2.0235   23.5029 C.ar    1  UNL1        0.1261
      2 N           1.5432    1.2753   22.7247 N.ar    1  UNL1       -0.1632
      3 N           1.5342    1.7963   21.3182 N.ar    1  UNL1       -0.2290
      4 C           0.4871    2.8666   21.2270 C.ar    1  UNL1        0.0822
      5 C          -0.1510    3.0070   22.5772 C.ar    1  UNL1        0.0413
      6 C           2.4173    1.3292   20.1992 C.ar    1  UNL1        0.0933
      7 C           3.5123    2.2173   19.6872 C.ar    1  UNL1        0.0209
      8 C           4.3952    1.7501   18.5682 C.ar    1  UNL1        0.0130
      9 C           4.1832    0.3949   17.9613 C.ar    1  UNL1        0.0586
     10 CL          5.0663   -0.0723   16.8423 Cl      1  UNL1       -0.0822
     11 C           3.0882   -0.4932   18.4733 C.ar    1  UNL1        0.0243
     12 C           2.2052   -0.0260   19.5923 C.ar    1  UNL1        0.0761
     13 CL          1.1101   -0.9141   20.1044 Cl      1  UNL1       -0.0806
     14 C           0.1393    3.6575   20.0009 C.ar    1  UNL1        0.0176
     15 C           0.5192    5.1057   19.9097 C.ar    1  UNL1        0.0024
     16 C           0.1713    5.8967   18.6836 C.ar    1  UNL1        0.0114
     17 C          -0.5565    5.2394   17.5486 C.ar    1  UNL1        0.0577
     18 CL         -0.9044    6.0304   16.3225 Cl      1  UNL1       -0.0822
     19 C          -0.9366    3.7911   17.6397 C.ar    1  UNL1        0.0114
     20 C          -0.5886    3.0003   18.8659 C.ar    1  UNL1        0.0024
     21 C           0.2884    1.1123   27.2698 C.ar    1  UNL1        0.1185
     22 N          -0.9644    1.9185   27.0952 N.ar    1  UNL1       -0.1450
     23 N          -1.0369    2.3580   25.6629 N.ar    1  UNL1       -0.1395
     24 C           0.1710    1.8234   24.9522 C.ar    1  UNL1        0.1525
     25 S           0.9901    1.0535   25.9454 S.2     1  UNL1       -0.0480
     26 C           0.7572    0.4765   28.5449 C.3     1  UNL1        0.1301
     27 C           2.1793    0.6016   28.0844 C.3     1  UNL1        0.0145
     28 C           2.6482   -0.0343   29.3596 C.3     1  UNL1        0.0014
     29 C           1.2261   -0.1593   29.8201 C.3     1  UNL1        0.0145
     30 F          -2.0869    0.2263   29.4660 F       1  UNL1       -0.1696
     31 C          -0.6649    0.3514   29.0054 C.3     1  UNL1        0.4025
     32 F          -0.8815   -0.7692   28.0321 F       1  UNL1       -0.1696
     33 F          -0.4482    1.4720   29.9787 F       1  UNL1       -0.1696
     34 C          -1.2490    3.9629   22.9384 C.3     1  UNL1        0.1587
     35 N          -2.6780    3.6050   22.6559 N.ar    1  UNL1       -0.2254
     36 C          -3.7999    3.6037   23.6516 C.ar    1  UNL1        0.1975
     37 N          -5.0514    3.1835   22.9393 N.ar    1  UNL1       -0.2007
     38 C          -4.7029    2.9251   21.5035 C.ar    1  UNL1        0.2210
     39 N          -3.2361    3.1856   21.3283 N.ar    1  UNL1       -0.1448
@<TRIPOS>BOND
     1    30    31    1
     2    31    32    1
     3    31    33    1
     4    31    26    1
     5    26    21    1
     6    21    22   ar
     7    22    23   ar
     8    23    24   ar
     9    24     1    1
    10     1     2   ar
    11     2     3   ar
    12     3     6    1
    13     6     7   ar
    14     7     8   ar
    15     8     9   ar
    16     9    10    1
    17     9    11   ar
    18    11    12   ar
    19    12    13    1
    20     3     4   ar
    21     4    14    1
    22    14    15   ar
    23    15    16   ar
    24    16    17   ar
    25    17    18    1
    26    17    19   ar
    27    19    20   ar
    28     4     5   ar
    29     5    34    1
    30    34    35    1
    31    35    36   ar
    32    36    37   ar
    33    37    38   ar
    34    38    39   ar
    35    24    25   ar
    36    26    27    1
    37    27    28    1
    38    28    29    1
    39    29    26    1
    40    25    21   ar
    41     5     1   ar
    42    39    35   ar
    43    12     6   ar
    44    20    14   ar
@<TRIPOS>MOLECULE
*****
 39 44 0 0 0
SMALL
GASTEIGER

@<TRIPOS>ATOM
      1 C           5.8070   -2.2101   27.6832 C.ar    1  UNL1        0.1261
      2 N           4.5326   -1.6652   27.1096 N.ar    1  UNL1       -0.1632
      3 N           3.8554   -0.8532   28.1735 N.ar    1  UNL1       -0.2290
      4 C           4.7112   -0.8962   29.4047 C.ar    1  UNL1        0.0822
      5 C           5.9173   -1.7349   29.1017 C.ar    1  UNL1        0.0413
      6 C           2.5512   -0.1257   28.0313 C.ar    1  UNL1        0.0933
      7 C           1.3682   -0.5388   28.8557 C.ar    1  UNL1        0.0209
      8 C           0.0642    0.1886   28.7135 C.ar    1  UNL1        0.0130
      9 C          -0.0568    1.3291   27.7467 C.ar    1  UNL1        0.0586
     10 CL         -1.3610    2.0565   27.6045 Cl      1  UNL1       -0.0822
     11 C           1.1262    1.7422   26.9223 C.ar    1  UNL1        0.0243
     12 C           2.4302    1.0148   27.0645 C.ar    1  UNL1        0.0761
     13 CL          3.6133    1.4279   26.2401 Cl      1  UNL1       -0.0806
     14 C           4.4131   -0.2195   30.7098 C.ar    1  UNL1        0.0176
     15 C           3.9631   -1.0296   31.8892 C.ar    1  UNL1        0.0024
     16 C           3.6650   -0.3529   33.1942 C.ar    1  UNL1        0.0114
     17 C           3.8171    1.1341   33.3199 C.ar    1  UNL1        0.0577
     18 CL          3.5190    1.8109   34.6249 Cl      1  UNL1       -0.0822
     19 C           4.2672    1.9444   32.1404 C.ar    1  UNL1        0.0114
     20 C           4.5652    1.2675   30.8354 C.ar    1  UNL1        0.0024
     21 C           7.8691   -5.0049   25.9506 C.ar    1  UNL1        0.1185
     22 N           8.7727   -3.8218   25.7669 N.ar    1  UNL1       -0.1450
     23 N           8.1102   -2.6309   26.3935 N.ar    1  UNL1       -0.1395
     24 C           6.7972   -3.0780   26.9646 C.ar    1  UNL1        0.1525
     25 S           6.6482   -4.5452   26.6908 S.2     1  UNL1       -0.0480
     26 C           8.1390   -6.4024   25.4772 C.3     1  UNL1        0.1301
     27 C           8.3578   -5.8886   24.0851 C.3     1  UNL1        0.0145
     28 C           8.6277   -7.2862   23.6116 C.3     1  UNL1        0.0014
     29 C           8.4090   -7.8000   25.0038 C.3     1  UNL1        0.0145
     30 F           7.7015   -7.4302   28.2615 F       1  UNL1       -0.1696
     31 C           7.9203   -6.9163   26.8694 C.3     1  UNL1        0.4025
     32 F           9.2427   -6.3452   27.2880 F       1  UNL1       -0.1696
     33 F           6.5980   -7.4874   26.4508 F       1  UNL1       -0.1696
     34 C           7.0372   -2.0440   30.0506 C.3     1  UNL1        0.1587
     35 N           7.1649   -3.4184   30.6377 N.ar    1  UNL1       -0.2254
     36 C           6.5108   -3.9031   31.8976 C.ar    1  UNL1        0.1975
     37 N           6.9106   -5.3337   32.1067 N.ar    1  UNL1       -0.2007
     38 C           7.8119   -5.7330   30.9761 C.ar    1  UNL1        0.2210
     39 N           7.9690   -4.5493   30.0682 N.ar    1  UNL1       -0.1448
@<TRIPOS>BOND
     1    30    31    1
     2    31    32    1
     3    31    33    1
     4    31    26    1
     5    26    21    1
     6    21    22   ar
     7    22    23   ar
     8    23    24   ar
     9    24     1    1
    10     1     2   ar
    11     2     3   ar
    12     3     6    1
    13     6     7   ar
    14     7     8   ar
    15     8     9   ar
    16     9    10    1
    17     9    11   ar
    18    11    12   ar
    19    12    13    1
    20     3     4   ar
    21     4    14    1
    22    14    15   ar
    23    15    16   ar
    24    16    17   ar
    25    17    18    1
    26    17    19   ar
    27    19    20   ar
    28     4     5   ar
    29     5    34    1
    30    34    35    1
    31    35    36   ar
    32    36    37   ar
    33    37    38   ar
    34    38    39   ar
    35    24    25   ar
    36    26    27    1
    37    27    28    1
    38    28    29    1
    39    29    26    1
    40    25    21   ar
    41     5     1   ar
    42    39    35   ar
    43    12     6   ar
    44    20    14   ar
@<TRIPOS>MOLECULE
*****
 39 44 0 0 0
SMALL
GASTEIGER

@<TRIPOS>ATOM
      1 C          -0.0323    2.6259   19.3296 C.ar    1  UNL1        0.1261
      2 N          -0.9204    3.3713   18.3779 N.ar    1  UNL1       -0.1632
      3 N          -2.1160    3.8563   19.1428 N.ar    1  UNL1       -0.2290
      4 C          -1.9670    3.4107   20.5673 C.ar    1  UNL1        0.0822
      5 C          -0.6792    2.6502   20.6828 C.ar    1  UNL1        0.0413
      6 C          -3.2600    4.6480   18.5818 C.ar    1  UNL1        0.0933
      7 C          -4.3695    3.9495   17.8531 C.ar    1  UNL1        0.0209
      8 C          -5.5133    4.7412   17.2921 C.ar    1  UNL1        0.0130
      9 C          -5.5477    6.2314   17.4598 C.ar    1  UNL1        0.0586
     10 CL         -6.6916    7.0231   16.8988 Cl      1  UNL1       -0.0822
     11 C          -4.4382    6.9299   18.1885 C.ar    1  UNL1        0.0243
     12 C          -3.2943    6.1382   18.7495 C.ar    1  UNL1        0.0761
     13 CL         -2.1847    6.8367   19.4783 Cl      1  UNL1       -0.0806
     14 C          -2.9356    3.6784   21.6809 C.ar    1  UNL1        0.0176
     15 C          -2.5472    4.5849   22.8111 C.ar    1  UNL1        0.0024
     16 C          -3.5159    4.8526   23.9246 C.ar    1  UNL1        0.0114
     17 C          -4.8730    4.2139   23.9080 C.ar    1  UNL1        0.0577
     18 CL         -5.8417    4.4816   25.0215 Cl      1  UNL1       -0.0822
     19 C          -5.2615    3.3074   22.7777 C.ar    1  UNL1        0.0114
     20 C          -4.2927    3.0397   21.6642 C.ar    1  UNL1        0.0024
     21 C           2.9885    0.2929   18.6247 C.ar    1  UNL1        0.1185
     22 N           3.5765    1.6343   18.3006 N.ar    1  UNL1       -0.1450
     23 N           2.5164    2.6715   18.5253 N.ar    1  UNL1       -0.1395
     24 C           1.2733    1.9712   18.9881 C.ar    1  UNL1        0.1525
     25 S           1.5651    0.5011   19.0496 S.2     1  UNL1       -0.0480
     26 C           3.6992   -1.0252   18.5389 C.3     1  UNL1        0.1301
     27 C           2.8612   -1.5504   19.6667 C.3     1  UNL1        0.0145
     28 C           3.5719   -2.8686   19.5809 C.3     1  UNL1        0.0014
     29 C           4.4098   -2.3435   18.4531 C.3     1  UNL1        0.0145
     30 F           5.3752    0.0251   16.2833 F       1  UNL1       -0.1696
     31 C           4.5372   -0.5001   17.4111 C.3     1  UNL1        0.4025
     32 F           5.6467   -0.2002   18.3751 F       1  UNL1       -0.1696
     33 F           3.4278   -0.7999   16.4471 F       1  UNL1       -0.1696
     34 C          -0.1340    2.0241   21.9320 C.3     1  UNL1        0.1587
     35 N           1.0717    2.6137   22.6018 N.ar    1  UNL1       -0.2254
     36 C           2.4717    2.0805   22.5255 C.ar    1  UNL1        0.1975
     37 N           3.3544    2.9772   23.3421 N.ar    1  UNL1       -0.2007
     38 C           2.4999    4.0646   23.9231 C.ar    1  UNL1        0.2210
     39 N           1.0892    3.8399   23.4656 N.ar    1  UNL1       -0.1448
@<TRIPOS>BOND
     1    30    31    1
     2    31    32    1
     3    31    33    1
     4    31    26    1
     5    26    21    1
     6    21    22   ar
     7    22    23   ar
     8    23    24   ar
     9    24     1    1
    10     1     2   ar
    11     2     3   ar
    12     3     6    1
    13     6     7   ar
    14     7     8   ar
    15     8     9   ar
    16     9    10    1
    17     9    11   ar
    18    11    12   ar
    19    12    13    1
    20     3     4   ar
    21     4    14    1
    22    14    15   ar
    23    15    16   ar
    24    16    17   ar
    25    17    18    1
    26    17    19   ar
    27    19    20   ar
    28     4     5   ar
    29     5    34    1
    30    34    35    1
    31    35    36   ar
    32    36    37   ar
    33    37    38   ar
    34    38    39   ar
    35    24    25   ar
    36    26    27    1
    37    27    28    1
    38    28    29    1
    39    29    26    1
    40    25    21   ar
    41     5     1   ar
    42    39    35   ar
    43    12     6   ar
    44    20    14   ar
@<TRIPOS>MOLECULE
*****
 39 44 0 0 0
SMALL
GASTEIGER

@<TRIPOS>ATOM
      1 C           0.9395    1.5063   21.9593 C.ar    1  UNL1        0.1261
      2 N           1.2668    1.1225   23.3719 N.ar    1  UNL1       -0.1632
      3 N           0.4792    2.0115   24.2881 N.ar    1  UNL1       -0.2290
      4 C          -0.3349    2.9447   23.4417 C.ar    1  UNL1        0.0822
      5 C          -0.0504    2.6325   22.0024 C.ar    1  UNL1        0.0413
      6 C           0.5018    1.9738   25.7876 C.ar    1  UNL1        0.0933
      7 C          -0.5190    1.1662   26.5329 C.ar    1  UNL1        0.0209
      8 C          -0.4965    1.1286   28.0323 C.ar    1  UNL1        0.0130
      9 C           0.5469    1.8987   28.7862 C.ar    1  UNL1        0.0586
     10 CL          0.5694    1.8610   30.2856 Cl      1  UNL1       -0.0822
     11 C           1.5677    2.7063   28.0408 C.ar    1  UNL1        0.0243
     12 C           1.5451    2.7439   26.5415 C.ar    1  UNL1        0.0761
     13 CL          2.5659    3.5516   25.7960 Cl      1  UNL1       -0.0806
     14 C          -1.2693    4.0041   23.9461 C.ar    1  UNL1        0.0176
     15 C          -2.6688    3.6414   24.3458 C.ar    1  UNL1        0.0024
     16 C          -3.6033    4.7008   24.8502 C.ar    1  UNL1        0.0114
     17 C          -3.1383    6.1230   24.9548 C.ar    1  UNL1        0.0577
     18 CL         -4.0727    7.1825   25.4592 Cl      1  UNL1       -0.0822
     19 C          -1.7387    6.4859   24.5551 C.ar    1  UNL1        0.0114
     20 C          -0.8043    5.4264   24.0508 C.ar    1  UNL1        0.0024
     21 C           2.8125   -0.5311   19.2379 C.ar    1  UNL1        0.1185
     22 N           1.9283    0.3372   18.3927 N.ar    1  UNL1       -0.1450
     23 N           1.1191    1.2060   19.3093 N.ar    1  UNL1       -0.1395
     24 C           1.5031    0.8748   20.7209 C.ar    1  UNL1        0.1525
     25 S           2.5497   -0.1989   20.6768 S.2     1  UNL1       -0.0480
     26 C           3.7881   -1.5524   18.7328 C.3     1  UNL1        0.1301
     27 C           3.2043   -2.5715   19.6658 C.3     1  UNL1        0.0145
     28 C           4.1800   -3.5928   19.1608 C.3     1  UNL1        0.0014
     29 C           4.7638   -2.5737   18.2278 C.3     1  UNL1        0.0145
     30 F           4.9558    0.4858   16.8667 F       1  UNL1       -0.1696
     31 C           4.3720   -0.5332   17.7998 C.3     1  UNL1        0.4025
     32 F           5.1065    0.0959   18.9465 F       1  UNL1       -0.1696
     33 F           3.6375   -1.1623   16.6531 F       1  UNL1       -0.1696
     34 C          -0.6505    3.3249   20.8148 C.3     1  UNL1        0.1587
     35 N          -2.1056    3.6890   20.8151 N.ar    1  UNL1       -0.2254
     36 C          -2.6664    5.0801   20.7918 C.ar    1  UNL1        0.1975
     37 N          -4.1628    4.9769   20.8011 N.ar    1  UNL1       -0.2007
     38 C          -4.5269    3.5221   20.8301 C.ar    1  UNL1        0.2210
     39 N          -3.2555    2.7261   20.8388 N.ar    1  UNL1       -0.1448
@<TRIPOS>BOND
     1    30    31    1
     2    31    32    1
     3    31    33    1
     4    31    26    1
     5    26    21    1
     6    21    22   ar
     7    22    23   ar
     8    23    24   ar
     9    24     1    1
    10     1     2   ar
    11     2     3   ar
    12     3     6    1
    13     6     7   ar
    14     7     8   ar
    15     8     9   ar
    16     9    10    1
    17     9    11   ar
    18    11    12   ar
    19    12    13    1
    20     3     4   ar
    21     4    14    1
    22    14    15   ar
    23    15    16   ar
    24    16    17   ar
    25    17    18    1
    26    17    19   ar
    27    19    20   ar
    28     4     5   ar
    29     5    34    1
    30    34    35    1
    31    35    36   ar
    32    36    37   ar
    33    37    38   ar
    34    38    39   ar
    35    24    25   ar
    36    26    27    1
    37    27    28    1
    38    28    29    1
    39    29    26    1
    40    25    21   ar
    41     5     1   ar
    42    39    35   ar
    43    12     6   ar
    44    20    14   ar
@<TRIPOS>MOLECULE
*****
 39 44 0 0 0
SMALL
GASTEIGER

@<TRIPOS>ATOM
      1 C           3.6012   -1.2058   24.1232 C.ar    1  UNL1        0.1261
      2 N           3.9686   -1.3224   25.5729 N.ar    1  UNL1       -0.1632
      3 N           3.2171   -0.2664   26.3279 N.ar    1  UNL1       -0.2290
      4 C           2.3852    0.5028   25.3449 C.ar    1  UNL1        0.0822
      5 C           2.6225   -0.0778   23.9823 C.ar    1  UNL1        0.0413
      6 C           3.2854   -0.0224   27.8064 C.ar    1  UNL1        0.0933
      7 C           2.2909   -0.6740   28.7208 C.ar    1  UNL1        0.0209
      8 C           2.3593   -0.4300   30.1992 C.ar    1  UNL1        0.0130
      9 C           3.4222    0.4656   30.7632 C.ar    1  UNL1        0.0586
     10 CL          3.4906    0.7095   32.2417 Cl      1  UNL1       -0.0822
     11 C           4.4168    1.1171   29.8488 C.ar    1  UNL1        0.0243
     12 C           4.3484    0.8731   28.3704 C.ar    1  UNL1        0.0761
     13 CL          5.3430    1.5247   27.4558 Cl      1  UNL1       -0.0806
     14 C           1.4756    1.6510   25.6678 C.ar    1  UNL1        0.0176
     15 C           2.0489    3.0136   25.9217 C.ar    1  UNL1        0.0024
     16 C           1.1394    4.1618   26.2446 C.ar    1  UNL1        0.0114
     17 C          -0.3437    3.9475   26.3135 C.ar    1  UNL1        0.0577
     18 CL         -1.2532    5.0957   26.6364 Cl      1  UNL1       -0.0822
     19 C          -0.9171    2.5848   26.0595 C.ar    1  UNL1        0.0114
     20 C          -0.0074    1.4366   25.7367 C.ar    1  UNL1        0.0024
     21 C           4.8804   -2.8070   20.8270 C.ar    1  UNL1        0.1185
     22 N           4.9617   -3.9736   21.7666 N.ar    1  UNL1       -0.1450
     23 N           4.4924   -3.5157   23.1156 N.ar    1  UNL1       -0.1395
     24 C           4.1211   -2.0663   23.0099 C.ar    1  UNL1        0.1525
     25 S           4.3609   -1.6283   21.5955 S.2     1  UNL1       -0.0480
     26 C           5.2532   -2.8175   19.3742 C.3     1  UNL1        0.1301
     27 C           6.3976   -1.8911   19.6612 C.3     1  UNL1        0.0145
     28 C           6.7704   -1.9015   18.2082 C.3     1  UNL1        0.0014
     29 C           5.6261   -2.8278   17.9212 C.3     1  UNL1        0.0145
     30 F           2.9645   -4.6701   18.8001 F       1  UNL1       -0.1696
     31 C           4.1089   -3.7438   19.0871 C.3     1  UNL1        0.4025
     32 F           5.0704   -4.8854   18.9378 F       1  UNL1       -0.1696
     33 F           3.1474   -2.6023   19.2365 F       1  UNL1       -0.1696
     34 C           1.9920    0.3879   22.7035 C.3     1  UNL1        0.1587
     35 N           2.3437    1.7329   22.1402 N.ar    1  UNL1       -0.2254
     36 C           1.4706    2.9525   22.1593 C.ar    1  UNL1        0.1975
     37 N           2.2175    4.0678   21.4899 N.ar    1  UNL1       -0.2007
     38 C           3.5522    3.5376   21.0570 C.ar    1  UNL1        0.2210
     39 N           3.6302    2.0945   21.4589 N.ar    1  UNL1       -0.1448
@<TRIPOS>BOND
     1    30    31    1
     2    31    32    1
     3    31    33    1
     4    31    26    1
     5    26    21    1
     6    21    22   ar
     7    22    23   ar
     8    23    24   ar
     9    24     1    1
    10     1     2   ar
    11     2     3   ar
    12     3     6    1
    13     6     7   ar
    14     7     8   ar
    15     8     9   ar
    16     9    10    1
    17     9    11   ar
    18    11    12   ar
    19    12    13    1
    20     3     4   ar
    21     4    14    1
    22    14    15   ar
    23    15    16   ar
    24    16    17   ar
    25    17    18    1
    26    17    19   ar
    27    19    20   ar
    28     4     5   ar
    29     5    34    1
    30    34    35    1
    31    35    36   ar
    32    36    37   ar
    33    37    38   ar
    34    38    39   ar
    35    24    25   ar
    36    26    27    1
    37    27    28    1
    38    28    29    1
    39    29    26    1
    40    25    21   ar
    41     5     1   ar
    42    39    35   ar
    43    12     6   ar
    44    20    14   ar
@<TRIPOS>MOLECULE
*****
 39 44 0 0 0
SMALL
GASTEIGER

@<TRIPOS>ATOM
      1 C           0.1731    1.9186   22.9921 C.ar    1  UNL1        0.1261
      2 N          -0.9691    2.8726   23.1805 N.ar    1  UNL1       -0.1632
      3 N          -1.1726    3.0667   24.6539 N.ar    1  UNL1       -0.2290
      4 C          -0.1563    2.2328   25.3761 C.ar    1  UNL1        0.0822
      5 C           0.6754    1.5232   24.3491 C.ar    1  UNL1        0.0413
      6 C          -2.2104    3.9413   25.2929 C.ar    1  UNL1        0.0933
      7 C          -3.6038    3.4251   25.4971 C.ar    1  UNL1        0.0209
      8 C          -4.6415    4.2997   26.1361 C.ar    1  UNL1        0.0130
      9 C          -4.2856    5.6905   26.5710 C.ar    1  UNL1        0.0586
     10 CL         -5.3234    6.5651   27.2100 Cl      1  UNL1       -0.0822
     11 C          -2.8922    6.2067   26.3668 C.ar    1  UNL1        0.0243
     12 C          -1.8545    5.3321   25.7278 C.ar    1  UNL1        0.0761
     13 CL         -0.4610    5.8483   25.5237 Cl      1  UNL1       -0.0806
     14 C           0.0008    2.1270   26.8641 C.ar    1  UNL1        0.0176
     15 C          -0.5901    0.9609   27.5997 C.ar    1  UNL1        0.0024
     16 C          -0.4330    0.8551   29.0876 C.ar    1  UNL1        0.0114
     17 C           0.3150    1.9154   29.8401 C.ar    1  UNL1        0.0577
     18 CL          0.4721    1.8096   31.3281 Cl      1  UNL1       -0.0822
     19 C           0.9059    3.0816   29.1046 C.ar    1  UNL1        0.0114
     20 C           0.7488    3.1873   27.6166 C.ar    1  UNL1        0.0024
     21 C           2.1971    1.0755   19.7894 C.ar    1  UNL1        0.1185
     22 N           0.9126    0.3493   19.5200 N.ar    1  UNL1       -0.1450
     23 N          -0.0019    0.5767   20.6870 N.ar    1  UNL1       -0.1395
     24 C           0.7173    1.4435   21.6776 C.ar    1  UNL1        0.1525
     25 S           2.0764    1.7518   21.1228 S.2     1  UNL1       -0.0480
     26 C           3.3924    1.1181   18.8842 C.3     1  UNL1        0.1301
     27 C           3.4476    2.6102   19.0271 C.3     1  UNL1        0.0145
     28 C           4.6430    2.6527   18.1220 C.3     1  UNL1        0.0014
     29 C           4.5878    1.1606   17.9790 C.3     1  UNL1        0.0145
     30 F           3.2822   -1.8663   18.5983 F       1  UNL1       -0.1696
     31 C           3.3373   -0.3742   18.7412 C.3     1  UNL1        0.4025
     32 F           2.7843   -0.2209   17.3553 F       1  UNL1       -0.1696
     33 F           3.8904   -0.5273   20.1271 F       1  UNL1       -0.1696
     34 C           1.8102    0.5833   24.6298 C.3     1  UNL1        0.1587
     35 N           2.8031    0.9067   25.7065 N.ar    1  UNL1       -0.2254
     36 C           3.0472    0.1049   26.9506 C.ar    1  UNL1        0.1975
     37 N           4.1212    0.7914   27.7412 N.ar    1  UNL1       -0.2007
     38 C           4.5410    2.0174   26.9858 C.ar    1  UNL1        0.2210
     39 N           3.7264    2.0887   25.7283 N.ar    1  UNL1       -0.1448
@<TRIPOS>BOND
     1    30    31    1
     2    31    32    1
     3    31    33    1
     4    31    26    1
     5    26    21    1
     6    21    22   ar
     7    22    23   ar
     8    23    24   ar
     9    24     1    1
    10     1     2   ar
    11     2     3   ar
    12     3     6    1
    13     6     7   ar
    14     7     8   ar
    15     8     9   ar
    16     9    10    1
    17     9    11   ar
    18    11    12   ar
    19    12    13    1
    20     3     4   ar
    21     4    14    1
    22    14    15   ar
    23    15    16   ar
    24    16    17   ar
    25    17    18    1
    26    17    19   ar
    27    19    20   ar
    28     4     5   ar
    29     5    34    1
    30    34    35    1
    31    35    36   ar
    32    36    37   ar
    33    37    38   ar
    34    38    39   ar
    35    24    25   ar
    36    26    27    1
    37    27    28    1
    38    28    29    1
    39    29    26    1
    40    25    21   ar
    41     5     1   ar
    42    39    35   ar
    43    12     6   ar
    44    20    14   ar
@<TRIPOS>MOLECULE
*****
 39 44 0 0 0
SMALL
GASTEIGER

@<TRIPOS>ATOM
      1 C           5.1900   -1.3655   23.6828 C.ar    1  UNL1        0.1261
      2 N           4.4277   -0.5728   24.7029 N.ar    1  UNL1       -0.1632
      3 N           3.4100    0.2576   23.9786 N.ar    1  UNL1       -0.2290
      4 C           3.5433   -0.0218   22.5109 C.ar    1  UNL1        0.0822
      5 C           4.6434   -1.0250   22.3281 C.ar    1  UNL1        0.0413
      6 C           2.4308    1.2018   24.6111 C.ar    1  UNL1        0.0933
      7 C           0.9727    0.8525   24.6538 C.ar    1  UNL1        0.0209
      8 C          -0.0064    1.7967   25.2861 C.ar    1  UNL1        0.0130
      9 C           0.4726    3.0900   25.8758 C.ar    1  UNL1        0.0586
     10 CL         -0.5065    4.0342   26.5082 Cl      1  UNL1       -0.0822
     11 C           1.9308    3.4393   25.8331 C.ar    1  UNL1        0.0243
     12 C           2.9098    2.4951   25.2007 C.ar    1  UNL1        0.0761
     13 CL          4.3681    2.8443   25.1580 Cl      1  UNL1       -0.0806
     14 C           2.7209    0.5938   21.4179 C.ar    1  UNL1        0.0176
     15 C           1.6116   -0.1902   20.7817 C.ar    1  UNL1        0.0024
     16 C           0.7892    0.4254   19.6887 C.ar    1  UNL1        0.0114
     17 C           1.0760    1.8251   19.2319 C.ar    1  UNL1        0.0577
     18 CL          0.2536    2.4407   18.1390 Cl      1  UNL1       -0.0822
     19 C           2.1853    2.6092   19.8682 C.ar    1  UNL1        0.0114
     20 C           3.0077    1.9935   20.9612 C.ar    1  UNL1        0.0024
     21 C           7.5206   -4.3065   24.6749 C.ar    1  UNL1        0.1185
     22 N           8.5131   -3.3192   24.1361 N.ar    1  UNL1       -0.1450
     23 N           7.7608   -2.0974   23.6990 N.ar    1  UNL1       -0.1395
     24 C           6.3035   -2.3295   23.9675 C.ar    1  UNL1        0.1525
     25 S           6.1550   -3.6948   24.5706 S.2     1  UNL1       -0.0480
     26 C           7.8380   -5.6667   25.2218 C.3     1  UNL1        0.1301
     27 C           8.2028   -6.1354   23.8444 C.3     1  UNL1        0.0145
     28 C           8.5202   -7.4957   24.3913 C.3     1  UNL1        0.0014
     29 C           8.1554   -7.0270   25.7687 C.3     1  UNL1        0.0145
     30 F           7.1083   -4.7293   27.9766 F       1  UNL1       -0.1696
     31 C           7.4731   -5.1980   26.5992 C.3     1  UNL1        0.4025
     32 F           6.2217   -6.0235   26.5486 F       1  UNL1       -0.1696
     33 F           8.7245   -4.3726   26.6498 F       1  UNL1       -0.1696
     34 C           5.1142   -1.5886   21.0202 C.3     1  UNL1        0.1587
     35 N           4.4943   -2.8418   20.4770 N.ar    1  UNL1       -0.2254
     36 C           4.6463   -4.2202   21.0489 C.ar    1  UNL1        0.1975
     37 N           3.8595   -5.1670   20.1919 N.ar    1  UNL1       -0.2007
     38 C           3.2212   -4.3739   19.0903 C.ar    1  UNL1        0.2210
     39 N           3.6135   -2.9368   19.2665 N.ar    1  UNL1       -0.1448
@<TRIPOS>BOND
     1    30    31    1
     2    31    32    1
     3    31    33    1
     4    31    26    1
     5    26    21    1
     6    21    22   ar
     7    22    23   ar
     8    23    24   ar
     9    24     1    1
    10     1     2   ar
    11     2     3   ar
    12     3     6    1
    13     6     7   ar
    14     7     8   ar
    15     8     9   ar
    16     9    10    1
    17     9    11   ar
    18    11    12   ar
    19    12    13    1
    20     3     4   ar
    21     4    14    1
    22    14    15   ar
    23    15    16   ar
    24    16    17   ar
    25    17    18    1
    26    17    19   ar
    27    19    20   ar
    28     4     5   ar
    29     5    34    1
    30    34    35    1
    31    35    36   ar
    32    36    37   ar
    33    37    38   ar
    34    38    39   ar
    35    24    25   ar
    36    26    27    1
    37    27    28    1
    38    28    29    1
    39    29    26    1
    40    25    21   ar
    41     5     1   ar
    42    39    35   ar
    43    12     6   ar
    44    20    14   ar
