@<TRIPOS>MOLECULE
*****
 33 36 0 0 0
SMALL
GASTEIGER

@<TRIPOS>ATOM
      1 C          -3.8308  -18.5229   21.9052 C.ar    1  UNL1        0.0207
      2 C          -3.3751  -17.2457   22.5464 C.ar    1  UNL1        0.0995
      3 N          -4.3831  -16.2857   23.1053 N.ar    1  UNL1       -0.2101
      4 C          -5.8468  -16.6029   23.0229 C.ar    1  UNL1        0.2310
      5 C          -6.3027  -17.8799   22.3817 C.ar    1  UNL1        0.0694
      6 C          -5.2946  -18.8400   21.8229 C.ar    1  UNL1        0.0051
      7 C          -7.7665  -18.1971   22.2993 C.ar    1  UNL1        0.0684
      8 C          -8.4142  -19.4850   22.7136 C.ar    1  UNL1        0.0150
      9 C          -9.8875  -19.3658   22.4585 C.ar    1  UNL1        0.0004
     10 C         -10.9173  -20.4227   22.7281 C.3     1  UNL1        0.0328
     11 C         -10.1503  -18.0043   21.8866 C.ar    1  UNL1        0.1165
     12 C         -11.4140  -17.3289   21.4426 C.ar    1  UNL1        0.2735
     13 O         -12.7249  -18.0513   21.5410 O.2     1  UNL1       -0.2656
     14 N         -11.3666  -15.9312   20.9003 N.ar    1  UNL1       -0.3175
     15 C         -10.0557  -15.2089   20.8019 C.ar    1  UNL1        0.0940
     16 C          -8.7921  -15.8843   21.2459 C.ar    1  UNL1        0.0990
     17 N          -8.8394  -17.2819   21.7882 N.ar    1  UNL1       -0.2999
     18 H         -12.1960  -15.4879   20.6089 H       1  UNL1        0.1691
     19 C          -2.8229  -19.4829   21.3464 C.3     1  UNL1        0.1787
     20 S          -1.7308  -18.9845   20.4470 S.O2    1  UNL1       -0.0058
     21 O          -2.6591  -19.0704   19.2721 O.2     1  UNL1       -0.1727
     22 O          -0.8024  -18.8986   21.6221 O.2     1  UNL1       -0.1727
     23 C           0.2624  -17.3776   20.0055 C.3     1  UNL1        0.0271
     24 C          -0.6386  -18.4861   19.5477 C.3     1  UNL1        0.1513
     25 O          -6.8548  -15.6428   23.5818 O.3     1  UNL1       -0.4338
     26 C          -7.4278  -15.8685   24.9495 C.ar    1  UNL1        0.1746
     27 C          -8.7255  -16.6042   25.1069 C.ar    1  UNL1        0.0422
     28 C          -9.2984  -16.8300   26.4746 C.ar    1  UNL1        0.0329
     29 C          -8.5738  -16.3201   27.6849 C.ar    1  UNL1        0.1426
     30 F          -9.1468  -16.5459   29.0527 F       1  UNL1       -0.2041
     31 C          -7.2760  -15.5844   27.5275 C.ar    1  UNL1        0.0624
     32 C          -6.7030  -15.3586   26.1598 C.ar    1  UNL1        0.1767
     33 F          -5.4054  -14.6229   26.0023 F       1  UNL1       -0.2009
@<TRIPOS>BOND
     1    23    24    1
     2    24    20    1
     3    20    21    2
     4    20    22    2
     5    20    19    1
     6    19     1    1
     7     1     2   ar
     8     2     3   ar
     9     3     4   ar
    10     4    25    1
    11    25    26    1
    12    26    27   ar
    13    27    28   ar
    14    28    29   ar
    15    29    30    1
    16    29    31   ar
    17    31    32   ar
    18    32    33    1
    19     4     5   ar
    20     5     7    1
    21     7     8   ar
    22     8     9   ar
    23     9    10    1
    24     9    11   ar
    25    11    12   ar
    26    12    13    2
    27    12    14   ar
    28    14    15   ar
    29    15    16   ar
    30    16    17   ar
    31     5     6   ar
    32     6     1   ar
    33    32    26   ar
    34    17     7   ar
    35    17    11   ar
    36    14    18    1
@<TRIPOS>MOLECULE
*****
 33 36 0 0 0
SMALL
GASTEIGER

@<TRIPOS>ATOM
      1 C          -4.4619  -18.6498   21.8786 C.ar    1  UNL1        0.0207
      2 C          -3.6632  -17.5580   22.5265 C.ar    1  UNL1        0.0995
      3 N          -4.3626  -16.3922   23.1604 N.ar    1  UNL1       -0.2101
      4 C          -5.8607  -16.3182   23.1463 C.ar    1  UNL1        0.2310
      5 C          -6.6594  -17.4100   22.4984 C.ar    1  UNL1        0.0694
      6 C          -5.9600  -18.5759   21.8645 C.ar    1  UNL1        0.0051
      7 C          -8.1576  -17.3361   22.4843 C.ar    1  UNL1        0.0684
      8 C          -8.9862  -16.3956   21.6604 C.ar    1  UNL1        0.0150
      9 C         -10.4308  -16.6679   21.9586 C.ar    1  UNL1        0.0004
     10 C         -11.6051  -15.9564   21.3546 C.3     1  UNL1        0.0328
     11 C         -10.4950  -17.7768   22.9667 C.ar    1  UNL1        0.1165
     12 C         -11.6512  -18.4638   23.6308 C.ar    1  UNL1        0.2735
     13 O         -13.0562  -18.0508   23.3059 O.2     1  UNL1       -0.2656
     14 N         -11.4025  -19.5637   24.6198 N.ar    1  UNL1       -0.3175
     15 C          -9.9976  -19.9767   24.9448 C.ar    1  UNL1        0.0940
     16 C          -8.8413  -19.2897   24.2807 C.ar    1  UNL1        0.0990
     17 N          -9.0900  -18.1897   23.2916 N.ar    1  UNL1       -0.2999
     18 H         -12.1614  -20.0147   25.0557 H       1  UNL1        0.1691
     19 C          -3.7626  -19.8157   21.2448 C.3     1  UNL1        0.1787
     20 S          -2.4535  -19.6127   20.5412 S.O2    1  UNL1       -0.0058
     21 O          -1.7396  -20.2870   21.6749 O.2     1  UNL1       -0.1727
     22 O          -3.1674  -18.9384   19.4073 O.2     1  UNL1       -0.1727
     23 C          -0.4886  -18.0608   19.8479 C.3     1  UNL1        0.0271
     24 C          -1.1444  -19.4098   19.8375 C.3     1  UNL1        0.1513
     25 O          -6.5600  -15.1523   23.7802 O.3     1  UNL1       -0.4338
     26 C          -7.2229  -15.3113   25.1163 C.ar    1  UNL1        0.1746
     27 C          -8.7182  -15.2580   25.2227 C.ar    1  UNL1        0.0422
     28 C          -9.3811  -15.4170   26.5588 C.ar    1  UNL1        0.0329
     29 C          -8.5488  -15.6293   27.7885 C.ar    1  UNL1        0.1426
     30 F          -9.2117  -15.7883   29.1246 F       1  UNL1       -0.2041
     31 C          -7.0534  -15.6827   27.6821 C.ar    1  UNL1        0.0624
     32 C          -6.3905  -15.5236   26.3460 C.ar    1  UNL1        0.1767
     33 F          -4.8953  -15.5769   26.2395 F       1  UNL1       -0.2009
@<TRIPOS>BOND
     1    23    24    1
     2    24    20    1
     3    20    21    2
     4    20    22    2
     5    20    19    1
     6    19     1    1
     7     1     2   ar
     8     2     3   ar
     9     3     4   ar
    10     4    25    1
    11    25    26    1
    12    26    27   ar
    13    27    28   ar
    14    28    29   ar
    15    29    30    1
    16    29    31   ar
    17    31    32   ar
    18    32    33    1
    19     4     5   ar
    20     5     7    1
    21     7     8   ar
    22     8     9   ar
    23     9    10    1
    24     9    11   ar
    25    11    12   ar
    26    12    13    2
    27    12    14   ar
    28    14    15   ar
    29    15    16   ar
    30    16    17   ar
    31     5     6   ar
    32     6     1   ar
    33    32    26   ar
    34    17     7   ar
    35    17    11   ar
    36    14    18    1
@<TRIPOS>MOLECULE
*****
 33 36 0 0 0
SMALL
GASTEIGER

@<TRIPOS>ATOM
      1 C           6.9514   -4.4852   26.1604 C.ar    1  UNL1        0.0207
      2 C           6.9195   -3.1938   26.9228 C.ar    1  UNL1        0.0995
      3 N           6.5309   -1.9223   26.2282 N.ar    1  UNL1       -0.2101
      4 C           6.1742   -1.9423   24.7714 C.ar    1  UNL1        0.2310
      5 C           6.2061   -3.2336   24.0090 C.ar    1  UNL1        0.0694
      6 C           6.5947   -4.5052   24.7036 C.ar    1  UNL1        0.0051
      7 C           5.8494   -3.2536   22.5522 C.ar    1  UNL1        0.0684
      8 C           4.5936   -3.8210   21.9597 C.ar    1  UNL1        0.0150
      9 C           4.6540   -3.6277   20.4734 C.ar    1  UNL1        0.0004
     10 C           3.6054   -4.0476   19.4864 C.3     1  UNL1        0.0328
     11 C           5.9471   -2.9410   20.1474 C.ar    1  UNL1        0.1165
     12 C           6.5473   -2.4963   18.8466 C.ar    1  UNL1        0.2735
     13 O           5.8085   -2.7275   17.5618 O.2     1  UNL1       -0.2656
     14 N           7.8862   -1.8204   18.8307 N.ar    1  UNL1       -0.3175
     15 C           8.6250   -1.5892   20.1155 C.ar    1  UNL1        0.0940
     16 C           8.0249   -2.0339   21.4162 C.ar    1  UNL1        0.0990
     17 N           6.6859   -2.7098   21.4322 N.ar    1  UNL1       -0.2999
     18 H           8.2802   -1.5286   17.9769 H       1  UNL1        0.1691
     19 C           7.3399   -5.7567   26.8549 C.3     1  UNL1        0.1787
     20 S           8.1892   -6.7693   26.1454 S.O2    1  UNL1       -0.0058
     21 O           7.0302   -7.7209   26.1162 O.2     1  UNL1       -0.1727
     22 O           9.3483   -5.8176   26.1747 O.2     1  UNL1       -0.1727
     23 C           9.2739   -7.6610   23.9595 C.3     1  UNL1        0.0271
     24 C           9.0386   -7.7819   25.4360 C.3     1  UNL1        0.1513
     25 O           5.7857   -0.6707   24.0769 O.3     1  UNL1       -0.4338
     26 C           4.3676   -0.1856   24.1384 C.ar    1  UNL1        0.1746
     27 C           3.7678    0.2133   25.4542 C.ar    1  UNL1        0.0422
     28 C           2.3498    0.6984   25.5157 C.ar    1  UNL1        0.0329
     29 C           1.5315    0.7847   24.2615 C.ar    1  UNL1        0.1426
     30 F           0.1135    1.2698   24.3230 F       1  UNL1       -0.2041
     31 C           2.1314    0.3858   22.9457 C.ar    1  UNL1        0.0624
     32 C           3.5494   -0.0994   22.8842 C.ar    1  UNL1        0.1767
     33 F           4.1493   -0.4982   21.5685 F       1  UNL1       -0.2009
@<TRIPOS>BOND
     1    23    24    1
     2    24    20    1
     3    20    21    2
     4    20    22    2
     5    20    19    1
     6    19     1    1
     7     1     2   ar
     8     2     3   ar
     9     3     4   ar
    10     4    25    1
    11    25    26    1
    12    26    27   ar
    13    27    28   ar
    14    28    29   ar
    15    29    30    1
    16    29    31   ar
    17    31    32   ar
    18    32    33    1
    19     4     5   ar
    20     5     7    1
    21     7     8   ar
    22     8     9   ar
    23     9    10    1
    24     9    11   ar
    25    11    12   ar
    26    12    13    2
    27    12    14   ar
    28    14    15   ar
    29    15    16   ar
    30    16    17   ar
    31     5     6   ar
    32     6     1   ar
    33    32    26   ar
    34    17     7   ar
    35    17    11   ar
    36    14    18    1
@<TRIPOS>MOLECULE
*****
 33 36 0 0 0
SMALL
GASTEIGER

@<TRIPOS>ATOM
      1 C           3.0645    2.1517   34.2198 C.ar    1  UNL1        0.0207
      2 C           1.7935    2.4309   33.4738 C.ar    1  UNL1        0.0995
      3 N           1.4603    1.6457   32.2399 N.ar    1  UNL1       -0.2101
      4 C           2.3981    0.5815   31.7521 C.ar    1  UNL1        0.2310
      5 C           3.6691    0.3023   32.4980 C.ar    1  UNL1        0.0694
      6 C           4.0023    1.0875   33.7320 C.ar    1  UNL1        0.0051
      7 C           4.6069   -0.7619   32.0102 C.ar    1  UNL1        0.0684
      8 C           4.9373   -2.0399   32.7226 C.ar    1  UNL1        0.0150
      9 C           5.9135   -2.8028   31.8770 C.ar    1  UNL1        0.0004
     10 C           6.5118   -4.1378   32.2082 C.3     1  UNL1        0.0328
     11 C           6.1864   -1.9963   30.6420 C.ar    1  UNL1        0.1165
     12 C           7.0658   -2.2475   29.4532 C.ar    1  UNL1        0.2735
     13 O           7.8734   -3.5089   29.3708 O.2     1  UNL1       -0.2656
     14 N           7.1377   -1.2373   28.3467 N.ar    1  UNL1       -0.3175
     15 C           6.3302    0.0240   28.4291 C.ar    1  UNL1        0.0940
     16 C           5.4507    0.2752   29.6179 C.ar    1  UNL1        0.0990
     17 N           5.3788   -0.7349   30.7244 N.ar    1  UNL1       -0.2999
     18 H           7.7150   -1.4022   27.5664 H       1  UNL1        0.1691
     19 C           3.3978    2.9368   35.4537 C.3     1  UNL1        0.1787
     20 S           3.5420    2.2362   36.7722 S.O2    1  UNL1       -0.0058
     21 O           2.0496    2.1298   36.8789 O.2     1  UNL1       -0.1727
     22 O           5.0344    2.3426   36.6656 O.2     1  UNL1       -0.1727
     23 C           2.4737    0.9966   38.7901 C.3     1  UNL1        0.0271
     24 C           3.6862    1.5356   38.0907 C.3     1  UNL1        0.1513
     25 O           2.0648   -0.2036   30.5181 O.3     1  UNL1       -0.4338
     26 C           1.1820    0.3954   29.4636 C.ar    1  UNL1        0.1746
     27 C          -0.1433   -0.2330   29.1493 C.ar    1  UNL1        0.0422
     28 C          -1.0260    0.3660   28.0949 C.ar    1  UNL1        0.0329
     29 C          -0.5836    1.5933   27.3547 C.ar    1  UNL1        0.1426
     30 F          -1.4664    2.1923   26.3002 F       1  UNL1       -0.2041
     31 C           0.7418    2.2217   27.6690 C.ar    1  UNL1        0.0624
     32 C           1.6246    1.6228   28.7235 C.ar    1  UNL1        0.1767
     33 F           2.9498    2.2510   29.0379 F       1  UNL1       -0.2009
@<TRIPOS>BOND
     1    23    24    1
     2    24    20    1
     3    20    21    2
     4    20    22    2
     5    20    19    1
     6    19     1    1
     7     1     2   ar
     8     2     3   ar
     9     3     4   ar
    10     4    25    1
    11    25    26    1
    12    26    27   ar
    13    27    28   ar
    14    28    29   ar
    15    29    30    1
    16    29    31   ar
    17    31    32   ar
    18    32    33    1
    19     4     5   ar
    20     5     7    1
    21     7     8   ar
    22     8     9   ar
    23     9    10    1
    24     9    11   ar
    25    11    12   ar
    26    12    13    2
    27    12    14   ar
    28    14    15   ar
    29    15    16   ar
    30    16    17   ar
    31     5     6   ar
    32     6     1   ar
    33    32    26   ar
    34    17     7   ar
    35    17    11   ar
    36    14    18    1
@<TRIPOS>MOLECULE
*****
 33 36 0 0 0
SMALL
GASTEIGER

@<TRIPOS>ATOM
      1 C           2.1981    0.6061   22.7232 C.ar    1  UNL1        0.0207
      2 C           1.8826    1.8719   21.9829 C.ar    1  UNL1        0.0995
      3 N           1.1552    2.9852   22.6770 N.ar    1  UNL1       -0.2101
      4 C           0.7435    2.8325   24.1113 C.ar    1  UNL1        0.2310
      5 C           1.0590    1.5667   24.8515 C.ar    1  UNL1        0.0694
      6 C           1.7863    0.4534   24.1575 C.ar    1  UNL1        0.0051
      7 C           0.6472    1.4140   26.2858 C.ar    1  UNL1        0.0684
      8 C          -0.5446    0.6519   26.7846 C.ar    1  UNL1        0.0150
      9 C          -0.5734    0.7636   28.2802 C.ar    1  UNL1        0.0004
     10 C          -1.5966    0.1516   29.1904 C.3     1  UNL1        0.0328
     11 C           0.6006    1.5947   28.7057 C.ar    1  UNL1        0.1165
     12 C           1.0801    2.0374   30.0562 C.ar    1  UNL1        0.2735
     13 O           0.3257    1.6354   31.2888 O.2     1  UNL1       -0.2656
     14 N           2.3140    2.8821   30.1742 N.ar    1  UNL1       -0.3175
     15 C           3.0684    3.2841   28.9416 C.ar    1  UNL1        0.0940
     16 C           2.5888    2.8414   27.5910 C.ar    1  UNL1        0.0990
     17 N           1.3549    1.9967   27.4731 N.ar    1  UNL1       -0.2999
     18 H           2.6287    3.1726   31.0606 H       1  UNL1        0.1691
     19 C           2.9254   -0.5072   22.0292 C.3     1  UNL1        0.1787
     20 S           3.0510   -0.5038   20.5345 S.O2    1  UNL1       -0.0058
     21 O           1.6676   -1.0713   20.4169 O.2     1  UNL1       -0.1727
     22 O           4.4345    0.0637   20.6521 O.2     1  UNL1       -0.1727
     23 C           2.4719    0.5475   18.2303 C.3     1  UNL1        0.0271
     24 C           3.1768   -0.5004   19.0397 C.3     1  UNL1        0.1513
     25 O           0.0161    3.9458   24.8053 O.3     1  UNL1       -0.4338
     26 C          -1.4769    3.8965   24.9409 C.ar    1  UNL1        0.1746
     27 C          -2.3373    3.7724   23.7184 C.ar    1  UNL1        0.0422
     28 C          -3.8303    3.7231   23.8540 C.ar    1  UNL1        0.0329
     29 C          -4.4630    3.7979   25.2121 C.ar    1  UNL1        0.1426
     30 F          -5.9560    3.7486   25.3477 F       1  UNL1       -0.2041
     31 C          -3.6025    3.9220   26.4345 C.ar    1  UNL1        0.0624
     32 C          -2.1095    3.9713   26.2989 C.ar    1  UNL1        0.1767
     33 F          -1.2490    4.0954   27.5213 F       1  UNL1       -0.2009
@<TRIPOS>BOND
     1    23    24    1
     2    24    20    1
     3    20    21    2
     4    20    22    2
     5    20    19    1
     6    19     1    1
     7     1     2   ar
     8     2     3   ar
     9     3     4   ar
    10     4    25    1
    11    25    26    1
    12    26    27   ar
    13    27    28   ar
    14    28    29   ar
    15    29    30    1
    16    29    31   ar
    17    31    32   ar
    18    32    33    1
    19     4     5   ar
    20     5     7    1
    21     7     8   ar
    22     8     9   ar
    23     9    10    1
    24     9    11   ar
    25    11    12   ar
    26    12    13    2
    27    12    14   ar
    28    14    15   ar
    29    15    16   ar
    30    16    17   ar
    31     5     6   ar
    32     6     1   ar
    33    32    26   ar
    34    17     7   ar
    35    17    11   ar
    36    14    18    1
@<TRIPOS>MOLECULE
*****
 33 36 0 0 0
SMALL
GASTEIGER

@<TRIPOS>ATOM
      1 C           6.6811   -3.4459   26.1729 C.ar    1  UNL1        0.0207
      2 C           5.8123   -2.4734   26.9140 C.ar    1  UNL1        0.0995
      3 N           4.7710   -1.6849   26.1765 N.ar    1  UNL1       -0.2101
      4 C           4.5985   -1.8690   24.6979 C.ar    1  UNL1        0.2310
      5 C           5.4672   -2.8415   23.9567 C.ar    1  UNL1        0.0694
      6 C           6.5086   -3.6300   24.6942 C.ar    1  UNL1        0.0051
      7 C           5.2947   -3.0255   22.4781 C.ar    1  UNL1        0.0684
      8 C           4.2862   -3.9139   21.8119 C.ar    1  UNL1        0.0150
      9 C           4.4686   -3.7909   20.3282 C.ar    1  UNL1        0.0004
     10 C           3.6701   -4.5067   19.2793 C.3     1  UNL1        0.0328
     11 C           5.5898   -2.8265   20.0773 C.ar    1  UNL1        0.1165
     12 C           6.2118   -2.3180   18.8106 C.ar    1  UNL1        0.2735
     13 O           5.7013   -2.7911   17.4819 O.2     1  UNL1       -0.2656
     14 N           7.3443   -1.3364   18.8727 N.ar    1  UNL1       -0.3175
     15 C           7.8548   -0.8634   20.2015 C.ar    1  UNL1        0.0940
     16 C           7.2328   -1.3719   21.4681 C.ar    1  UNL1        0.0990
     17 N           6.1003   -2.3535   21.4061 N.ar    1  UNL1       -0.2999
     18 H           7.7525   -1.0026   18.0413 H       1  UNL1        0.1691
     19 C           7.7225   -4.2345   26.9103 C.3     1  UNL1        0.1787
     20 S           7.8770   -5.7031   26.6470 S.O2    1  UNL1       -0.0058
     21 O           6.5316   -5.9547   27.2603 O.2     1  UNL1       -0.1727
     22 O           9.2226   -5.4515   26.0337 O.2     1  UNL1       -0.1727
     23 C           8.2442   -7.6641   24.9829 C.3     1  UNL1        0.0271
     24 C           8.0317   -7.1717   26.3837 C.3     1  UNL1        0.1513
     25 O           3.5571   -1.0804   23.9605 O.3     1  UNL1       -0.4338
     26 C           3.9680   -0.1039   22.8986 C.ar    1  UNL1        0.1746
     27 C           4.9784    0.9604   23.2089 C.ar    1  UNL1        0.0422
     28 C           5.3893    1.9369   22.1470 C.ar    1  UNL1        0.0329
     29 C           4.7898    1.8491   20.7749 C.ar    1  UNL1        0.1426
     30 F           5.2008    2.8256   19.7130 F       1  UNL1       -0.2041
     31 C           3.7794    0.7847   20.4645 C.ar    1  UNL1        0.0624
     32 C           3.3684   -0.1918   21.5264 C.ar    1  UNL1        0.1767
     33 F           2.3581   -1.2561   21.2162 F       1  UNL1       -0.2009
@<TRIPOS>BOND
     1    23    24    1
     2    24    20    1
     3    20    21    2
     4    20    22    2
     5    20    19    1
     6    19     1    1
     7     1     2   ar
     8     2     3   ar
     9     3     4   ar
    10     4    25    1
    11    25    26    1
    12    26    27   ar
    13    27    28   ar
    14    28    29   ar
    15    29    30    1
    16    29    31   ar
    17    31    32   ar
    18    32    33    1
    19     4     5   ar
    20     5     7    1
    21     7     8   ar
    22     8     9   ar
    23     9    10    1
    24     9    11   ar
    25    11    12   ar
    26    12    13    2
    27    12    14   ar
    28    14    15   ar
    29    15    16   ar
    30    16    17   ar
    31     5     6   ar
    32     6     1   ar
    33    32    26   ar
    34    17     7   ar
    35    17    11   ar
    36    14    18    1
@<TRIPOS>MOLECULE
*****
 33 36 0 0 0
SMALL
GASTEIGER

@<TRIPOS>ATOM
      1 C           4.2961   -2.6010   22.5333 C.ar    1  UNL1        0.0207
      2 C           4.6294   -2.3057   23.9657 C.ar    1  UNL1        0.0995
      3 N           4.1550   -1.0312   24.5987 N.ar    1  UNL1       -0.2101
      4 C           3.3473   -0.0521   23.7993 C.ar    1  UNL1        0.2310
      5 C           3.0141   -0.3473   22.3670 C.ar    1  UNL1        0.0694
      6 C           3.4885   -1.6218   21.7339 C.ar    1  UNL1        0.0051
      7 C           2.2064    0.6318   21.5676 C.ar    1  UNL1        0.0684
      8 C           0.7500    0.9364   21.7576 C.ar    1  UNL1        0.0150
      9 C           0.3569    1.9711   20.7453 C.ar    1  UNL1        0.0004
     10 C          -1.0097    2.5664   20.5780 C.3     1  UNL1        0.0328
     11 C           1.5704    2.3060   19.9296 C.ar    1  UNL1        0.1165
     12 C           1.7822    3.2578   18.7897 C.ar    1  UNL1        0.2735
     13 O           0.6391    4.0855   18.2815 O.2     1  UNL1       -0.2656
     14 N           3.1370    3.3818   18.1581 N.ar    1  UNL1       -0.3175
     15 C           4.2801    2.5541   18.6663 C.ar    1  UNL1        0.0940
     16 C           4.0683    1.6024   19.8062 C.ar    1  UNL1        0.0990
     17 N           2.7135    1.4783   20.4378 N.ar    1  UNL1       -0.2999
     18 H           3.2760    4.0065   17.4100 H       1  UNL1        0.1691
     19 C           4.7705   -3.8754   21.9002 C.3     1  UNL1        0.1787
     20 S           4.9452   -3.9540   20.4125 S.O2    1  UNL1       -0.0058
     21 O           3.7927   -4.9101   20.3276 O.2     1  UNL1       -0.1727
     22 O           6.0979   -2.9978   20.4974 O.2     1  UNL1       -0.1727
     23 C           5.3558   -2.7821   18.1304 C.3     1  UNL1        0.0271
     24 C           5.1201   -4.0325   18.9248 C.3     1  UNL1        0.1513
     25 O           2.8730    1.2224   24.4324 O.3     1  UNL1       -0.4338
     26 C           1.8496    1.1800   25.5283 C.ar    1  UNL1        0.1746
     27 C           0.4029    1.4196   25.2131 C.ar    1  UNL1        0.0422
     28 C          -0.6205    1.3771   26.3090 C.ar    1  UNL1        0.0329
     29 C          -0.1970    1.0951   27.7201 C.ar    1  UNL1        0.1426
     30 F          -1.2203    1.0527   28.8160 F       1  UNL1       -0.2041
     31 C           1.2499    0.8555   28.0353 C.ar    1  UNL1        0.0624
     32 C           2.2732    0.8979   26.9394 C.ar    1  UNL1        0.1767
     33 F           3.7200    0.6583   27.2544 F       1  UNL1       -0.2009
@<TRIPOS>BOND
     1    23    24    1
     2    24    20    1
     3    20    21    2
     4    20    22    2
     5    20    19    1
     6    19     1    1
     7     1     2   ar
     8     2     3   ar
     9     3     4   ar
    10     4    25    1
    11    25    26    1
    12    26    27   ar
    13    27    28   ar
    14    28    29   ar
    15    29    30    1
    16    29    31   ar
    17    31    32   ar
    18    32    33    1
    19     4     5   ar
    20     5     7    1
    21     7     8   ar
    22     8     9   ar
    23     9    10    1
    24     9    11   ar
    25    11    12   ar
    26    12    13    2
    27    12    14   ar
    28    14    15   ar
    29    15    16   ar
    30    16    17   ar
    31     5     6   ar
    32     6     1   ar
    33    32    26   ar
    34    17     7   ar
    35    17    11   ar
    36    14    18    1
@<TRIPOS>MOLECULE
*****
 33 36 0 0 0
SMALL
GASTEIGER

@<TRIPOS>ATOM
      1 C           6.9708   -4.1970   26.1942 C.ar    1  UNL1        0.0207
      2 C           6.9826   -2.8631   26.8800 C.ar    1  UNL1        0.0995
      3 N           6.6237   -1.6235   26.1155 N.ar    1  UNL1       -0.2101
      4 C           6.2531   -1.7178   24.6650 C.ar    1  UNL1        0.2310
      5 C           6.2413   -3.0517   23.9791 C.ar    1  UNL1        0.0694
      6 C           6.6002   -4.2914   24.7437 C.ar    1  UNL1        0.0051
      7 C           5.8707   -3.1460   22.5287 C.ar    1  UNL1        0.0684
      8 C           4.6517   -3.8200   21.9722 C.ar    1  UNL1        0.0150
      9 C           4.6817   -3.6734   20.4797 C.ar    1  UNL1        0.0004
     10 C           3.6545   -4.1991   19.5213 C.3     1  UNL1        0.0328
     11 C           5.9193   -2.9089   20.1138 C.ar    1  UNL1        0.1165
     12 C           6.4720   -2.4674   18.7911 C.ar    1  UNL1        0.2735
     13 O           5.7371   -2.7933   17.5247 O.2     1  UNL1       -0.2656
     14 N           7.7595   -1.7000   18.7347 N.ar    1  UNL1       -0.3175
     15 C           8.4944   -1.3740   20.0011 C.ar    1  UNL1        0.0940
     16 C           7.9417   -1.8155   21.3238 C.ar    1  UNL1        0.0990
     17 N           6.6542   -2.5829   21.3801 N.ar    1  UNL1       -0.2999
     18 H           8.1223   -1.4102   17.8666 H       1  UNL1        0.1691
     19 C           7.3296   -5.4367   26.9586 C.3     1  UNL1        0.1787
     20 S           7.1110   -5.4929   28.4416 S.O2    1  UNL1       -0.0058
     21 O           5.6316   -5.6010   28.2194 O.2     1  UNL1       -0.1727
     22 O           8.5905   -5.3848   28.6638 O.2     1  UNL1       -0.1727
     23 C           8.0137   -5.9586   30.8328 C.3     1  UNL1        0.0271
     24 C           6.8925   -5.5491   29.9245 C.3     1  UNL1        0.1513
     25 O           5.8943   -0.4781   23.9005 O.3     1  UNL1       -0.4338
     26 C           4.4662   -0.0240   23.8355 C.ar    1  UNL1        0.1746
     27 C           3.6766   -0.2104   22.5739 C.ar    1  UNL1        0.0422
     28 C           2.2485    0.2437   22.5088 C.ar    1  UNL1        0.0329
     29 C           1.6099    0.8843   23.7055 C.ar    1  UNL1        0.1426
     30 F           0.1818    1.3384   23.6404 F       1  UNL1       -0.2041
     31 C           2.3996    1.0708   24.9672 C.ar    1  UNL1        0.0624
     32 C           3.8277    0.6166   25.0322 C.ar    1  UNL1        0.1767
     33 F           4.6173    0.8031   26.2938 F       1  UNL1       -0.2009
@<TRIPOS>BOND
     1    23    24    1
     2    24    20    1
     3    20    21    2
     4    20    22    2
     5    20    19    1
     6    19     1    1
     7     1     2   ar
     8     2     3   ar
     9     3     4   ar
    10     4    25    1
    11    25    26    1
    12    26    27   ar
    13    27    28   ar
    14    28    29   ar
    15    29    30    1
    16    29    31   ar
    17    31    32   ar
    18    32    33    1
    19     4     5   ar
    20     5     7    1
    21     7     8   ar
    22     8     9   ar
    23     9    10    1
    24     9    11   ar
    25    11    12   ar
    26    12    13    2
    27    12    14   ar
    28    14    15   ar
    29    15    16   ar
    30    16    17   ar
    31     5     6   ar
    32     6     1   ar
    33    32    26   ar
    34    17     7   ar
    35    17    11   ar
    36    14    18    1
@<TRIPOS>MOLECULE
*****
 33 36 0 0 0
SMALL
GASTEIGER

@<TRIPOS>ATOM
      1 C           0.8498    2.0734   22.2744 C.ar    1  UNL1        0.0207
      2 C           0.6611    3.0374   21.1407 C.ar    1  UNL1        0.0995
      3 N           1.2430    2.7325   19.7922 N.ar    1  UNL1       -0.2101
      4 C           2.0136    1.4636   19.5774 C.ar    1  UNL1        0.2310
      5 C           2.2024    0.4996   20.7109 C.ar    1  UNL1        0.0694
      6 C           1.6204    0.8045   22.0595 C.ar    1  UNL1        0.0051
      7 C           2.9730   -0.7692   20.4960 C.ar    1  UNL1        0.0684
      8 C           2.4992   -1.9698   19.7318 C.ar    1  UNL1        0.0150
      9 C           3.5861   -3.0028   19.7712 C.ar    1  UNL1        0.0004
     10 C           3.5363   -4.3598   19.1339 C.3     1  UNL1        0.0328
     11 C           4.7316   -2.4406   20.5597 C.ar    1  UNL1        0.1165
     12 C           6.0708   -3.0074   20.9277 C.ar    1  UNL1        0.2735
     13 O           6.4497   -4.3879   20.4797 O.2     1  UNL1       -0.2656
     14 N           7.0310   -2.1937   21.7436 N.ar    1  UNL1       -0.3175
     15 C           6.6520   -0.8132   22.1916 C.ar    1  UNL1        0.0940
     16 C           5.3129   -0.2465   21.8237 C.ar    1  UNL1        0.0990
     17 N           4.3527   -1.0602   21.0077 N.ar    1  UNL1       -0.2999
     18 H           7.9099   -2.5657   21.9851 H       1  UNL1        0.1691
     19 C           0.2680    2.3782   23.6229 C.3     1  UNL1        0.1787
     20 S           0.9492    1.8810   24.8633 S.O2    1  UNL1       -0.0058
     21 O          -0.2054    0.9611   25.1287 O.2     1  UNL1       -0.1727
     22 O           2.1039    2.8009   24.5979 O.2     1  UNL1       -0.1727
     23 C           2.9927    0.7623   26.0134 C.3     1  UNL1        0.0271
     24 C           1.6305    1.3838   26.1038 C.3     1  UNL1        0.1513
     25 O           2.5955    1.1588   18.2288 O.3     1  UNL1       -0.4338
     26 C           4.0837    1.1093   18.0477 C.ar    1  UNL1        0.1746
     27 C           4.9459    2.1920   18.6258 C.ar    1  UNL1        0.0422
     28 C           6.4341    2.1425   18.4448 C.ar    1  UNL1        0.0329
     29 C           7.0601    1.0102   17.6857 C.ar    1  UNL1        0.1426
     30 F           8.5483    0.9607   17.5047 F       1  UNL1       -0.2041
     31 C           6.1977   -0.0726   17.1076 C.ar    1  UNL1        0.0624
     32 C           4.7095   -0.0230   17.2886 C.ar    1  UNL1        0.1767
     33 F           3.8472   -1.1057   16.7106 F       1  UNL1       -0.2009
@<TRIPOS>BOND
     1    23    24    1
     2    24    20    1
     3    20    21    2
     4    20    22    2
     5    20    19    1
     6    19     1    1
     7     1     2   ar
     8     2     3   ar
     9     3     4   ar
    10     4    25    1
    11    25    26    1
    12    26    27   ar
    13    27    28   ar
    14    28    29   ar
    15    29    30    1
    16    29    31   ar
    17    31    32   ar
    18    32    33    1
    19     4     5   ar
    20     5     7    1
    21     7     8   ar
    22     8     9   ar
    23     9    10    1
    24     9    11   ar
    25    11    12   ar
    26    12    13    2
    27    12    14   ar
    28    14    15   ar
    29    15    16   ar
    30    16    17   ar
    31     5     6   ar
    32     6     1   ar
    33    32    26   ar
    34    17     7   ar
    35    17    11   ar
    36    14    18    1
