@<TRIPOS>MOLECULE
*****
 35 37 0 0 0
SMALL
GASTEIGER

@<TRIPOS>ATOM
      1 C          -7.5766  -18.4858   22.4158 C.3     1  UNL1        0.1017
      2 C          -8.0954  -19.8428   22.7890 C.3     1  UNL1        0.0394
      3 C          -9.2797  -19.9682   23.7011 C.3     1  UNL1        0.0739
      4 N          -9.9450  -18.7366   24.2400 N.3     1  UNL1       -0.2704
      5 C          -9.4262  -17.3796   23.8667 C.3     1  UNL1        0.1037
      6 C          -8.2420  -17.2542   22.9547 C.3     1  UNL1        0.1490
      7 C          -5.0043  -18.3632   22.0721 C.2     1  UNL1        0.2488
      8 O          -4.8003  -18.4916   23.5526 O.2     1  UNL1       -0.2700
      9 N          -6.3924  -18.3604   21.5037 N.am    1  UNL1       -0.2999
     10 H          -6.5263  -18.2761   20.5320 H       1  UNL1        0.1498
     11 C          -3.7584  -19.0430   19.8959 C.ar    1  UNL1        0.1443
     12 C          -2.5742  -18.9176   18.9838 C.ar    1  UNL1        0.0520
     13 C          -1.4517  -17.9869   19.3357 C.ar    1  UNL1        0.0553
     14 N          -0.2675  -17.8614   18.4236 N.pl3   1  UNL1       -0.3563
     15 C          -1.5134  -17.1816   20.5997 C.ar    1  UNL1        0.0709
     16 CL         -0.3909  -16.2510   20.9517 Cl      1  UNL1       -0.0810
     17 C          -2.6976  -17.3071   21.5118 C.ar    1  UNL1        0.0202
     18 C          -3.8201  -18.2378   21.1599 C.ar    1  UNL1        0.0882
     19 H          -0.2270  -18.3899   17.5939 H       1  UNL1        0.1424
     20 H           0.4692  -17.2506   18.6545 H       1  UNL1        0.1424
     21 C          -5.0117  -21.2912   20.2489 C.3     1  UNL1        0.2525
     22 O          -4.8809  -19.9737   19.5440 O.3     1  UNL1       -0.4712
     23 O          -7.7232  -15.8971   22.5814 O.3     1  UNL1       -0.3505
     24 C          -6.8359  -15.1465   23.5297 C.3     1  UNL1        0.1741
     25 C         -11.1292  -18.8620   25.1520 C.3     1  UNL1        0.0760
     26 C         -12.5150  -18.9089   24.5799 C.3     1  UNL1        0.0646
     27 C         -13.0464  -17.7395   23.8051 C.3     1  UNL1        0.2068
     28 O         -13.2773  -17.8610   22.3279 O.3     1  UNL1       -0.4754
     29 C         -12.1376  -18.2085   21.4167 C.ar    1  UNL1        0.1387
     30 C         -11.4017  -17.1230   20.6887 C.ar    1  UNL1        0.0392
     31 C         -10.2620  -17.4704   19.7775 C.ar    1  UNL1        0.0327
     32 C          -9.8582  -18.9034   19.5943 C.ar    1  UNL1        0.1403
     33 F          -8.7185  -19.2508   18.6831 F       1  UNL1       -0.2042
     34 C         -10.5941  -19.9889   20.3224 C.ar    1  UNL1        0.0327
     35 C         -11.7339  -19.6414   21.2336 C.ar    1  UNL1        0.0392
@<TRIPOS>BOND
     1    21    22    1
     2    22    11    1
     3    11    12   ar
     4    12    13   ar
     5    13    14    1
     6    13    15   ar
     7    15    16    1
     8    15    17   ar
     9    17    18   ar
    10    18     7    1
    11     7     8    2
    12     7     9   am
    13     9     1    1
    14     1     2    1
    15     2     3    1
    16     3     4    1
    17     4    25    1
    18    25    26    1
    19    26    27    1
    20    27    28    1
    21    28    29    1
    22    29    30   ar
    23    30    31   ar
    24    31    32   ar
    25    32    33    1
    26    32    34   ar
    27    34    35   ar
    28     4     5    1
    29     5     6    1
    30     6    23    1
    31    23    24    1
    32    18    11   ar
    33     6     1    1
    34    35    29   ar
    35    14    19    1
    36    14    20    1
    37     9    10    1
@<TRIPOS>MOLECULE
*****
 35 37 0 0 0
SMALL
GASTEIGER

@<TRIPOS>ATOM
      1 C           6.6479   -4.2868   24.1789 C.3     1  UNL1        0.1017
      2 C           5.6733   -3.3382   23.5463 C.3     1  UNL1        0.0394
      3 C           5.8102   -2.9785   22.0964 C.3     1  UNL1        0.0739
      4 N           6.9216   -3.5675   21.2793 N.3     1  UNL1       -0.2704
      5 C           7.8961   -4.5162   21.9119 C.3     1  UNL1        0.1037
      6 C           7.7593   -4.8758   23.3617 C.3     1  UNL1        0.1490
      7 C           7.1913   -3.8146   26.6752 C.2     1  UNL1        0.2488
      8 O           8.0084   -2.6230   26.2720 O.2     1  UNL1       -0.2700
      9 N           6.5111   -4.6464   25.6287 N.am    1  UNL1       -0.2999
     10 H           5.9748   -5.4285   25.8934 H       1  UNL1        0.1498
     11 C           7.3505   -5.5719   28.5822 C.ar    1  UNL1        0.1443
     12 C           7.2137   -5.9315   30.0320 C.ar    1  UNL1        0.0520
     13 C           6.7808   -4.8935   31.0246 C.ar    1  UNL1        0.0553
     14 N           6.6440   -5.2532   32.4745 N.pl3   1  UNL1       -0.3563
     15 C           6.4848   -3.4959   30.5674 C.ar    1  UNL1        0.0709
     16 CL          6.0519   -2.4580   31.5600 Cl      1  UNL1       -0.0810
     17 C           6.6216   -3.1363   29.1177 C.ar    1  UNL1        0.0202
     18 C           7.0545   -4.1743   28.1251 C.ar    1  UNL1        0.0882
     19 H           6.8383   -6.1705   32.7745 H       1  UNL1        0.1424
     20 H           6.3599   -4.5720   33.1259 H       1  UNL1        0.1424
     21 C           8.4711   -7.8570   28.0603 C.3     1  UNL1        0.2525
     22 O           7.7834   -6.6098   27.5896 O.3     1  UNL1       -0.4712
     23 O           8.7339   -5.8245   23.9943 O.3     1  UNL1       -0.3505
     24 C           8.4089   -7.2862   24.0814 C.3     1  UNL1        0.1741
     25 C           7.0584   -3.2079   19.8295 C.3     1  UNL1        0.0760
     26 C           7.0119   -1.7697   19.4059 C.3     1  UNL1        0.0646
     27 C           6.4836   -1.4037   18.0505 C.3     1  UNL1        0.2068
     28 O           5.1215   -1.8671   17.6263 O.3     1  UNL1       -0.4754
     29 C           3.8976   -1.2869   18.2706 C.ar    1  UNL1        0.1387
     30 C           3.3528   -1.8947   19.5291 C.ar    1  UNL1        0.0392
     31 C           2.1288   -1.3145   20.1734 C.ar    1  UNL1        0.0327
     32 C           1.4496   -0.1264   19.5593 C.ar    1  UNL1        0.1403
     33 F           0.2256    0.4538   20.2036 F       1  UNL1       -0.2042
     34 C           1.9943    0.4814   18.3008 C.ar    1  UNL1        0.0327
     35 C           3.2184   -0.0989   17.6565 C.ar    1  UNL1        0.0392
@<TRIPOS>BOND
     1    21    22    1
     2    22    11    1
     3    11    12   ar
     4    12    13   ar
     5    13    14    1
     6    13    15   ar
     7    15    16    1
     8    15    17   ar
     9    17    18   ar
    10    18     7    1
    11     7     8    2
    12     7     9   am
    13     9     1    1
    14     1     2    1
    15     2     3    1
    16     3     4    1
    17     4    25    1
    18    25    26    1
    19    26    27    1
    20    27    28    1
    21    28    29    1
    22    29    30   ar
    23    30    31   ar
    24    31    32   ar
    25    32    33    1
    26    32    34   ar
    27    34    35   ar
    28     4     5    1
    29     5     6    1
    30     6    23    1
    31    23    24    1
    32    18    11   ar
    33     6     1    1
    34    35    29   ar
    35    14    19    1
    36    14    20    1
    37     9    10    1
@<TRIPOS>MOLECULE
*****
 35 37 0 0 0
SMALL
GASTEIGER

@<TRIPOS>ATOM
      1 C           6.5264   -4.0049   24.2071 C.3     1  UNL1        0.1017
      2 C           7.5291   -4.7377   23.3659 C.3     1  UNL1        0.0394
      3 C           7.6874   -4.3909   21.9151 C.3     1  UNL1        0.0739
      4 N           6.8431   -3.3114   21.3056 N.3     1  UNL1       -0.2704
      5 C           5.8404   -2.5786   22.1468 C.3     1  UNL1        0.1037
      6 C           5.6820   -2.9253   23.5975 C.3     1  UNL1        0.1490
      7 C           7.1692   -3.6221   26.6951 C.2     1  UNL1        0.2488
      8 O           8.1286   -2.5458   26.2816 O.2     1  UNL1       -0.2700
      9 N           6.3681   -4.3517   25.6578 N.am    1  UNL1       -0.2999
     10 H           5.7384   -5.0581   25.9292 H       1  UNL1        0.1498
     11 C           7.1119   -5.3978   28.5908 C.ar    1  UNL1        0.1443
     12 C           6.9535   -5.7445   30.0415 C.ar    1  UNL1        0.0520
     13 C           6.6941   -4.6624   31.0473 C.ar    1  UNL1        0.0553
     14 N           6.5358   -5.0092   32.4981 N.pl3   1  UNL1       -0.3563
     15 C           6.5932   -3.2335   30.6024 C.ar    1  UNL1        0.0709
     16 CL          6.3338   -2.1513   31.6082 Cl      1  UNL1       -0.0810
     17 C           6.7515   -2.8867   29.1517 C.ar    1  UNL1        0.0202
     18 C           7.0109   -3.9689   28.1459 C.ar    1  UNL1        0.0882
     19 H           6.6021   -5.9470   32.7901 H       1  UNL1        0.1424
     20 H           6.3656   -4.2989   33.1583 H       1  UNL1        0.1424
     21 C           8.7384   -7.0864   27.4716 C.3     1  UNL1        0.2525
     22 O           7.3712   -6.4800   27.5850 O.3     1  UNL1       -0.4712
     23 O           4.6793   -2.1925   24.4387 O.3     1  UNL1       -0.3505
     24 C           3.6640   -1.3003   23.7885 C.3     1  UNL1        0.1741
     25 C           7.0014   -2.9646   19.8548 C.3     1  UNL1        0.0760
     26 C           6.9101   -1.5346   19.4112 C.3     1  UNL1        0.0646
     27 C           6.3775   -1.2048   18.0482 C.3     1  UNL1        0.2068
     28 O           5.0282   -1.7078   17.6282 O.3     1  UNL1       -0.4754
     29 C           3.7904   -1.1706   18.2832 C.ar    1  UNL1        0.1387
     30 C           3.2792   -1.7955   19.5474 C.ar    1  UNL1        0.0392
     31 C           2.0413   -1.2582   20.2023 C.ar    1  UNL1        0.0327
     32 C           1.3145   -0.0960   19.5930 C.ar    1  UNL1        0.1403
     33 F           0.0766    0.4412   20.2480 F       1  UNL1       -0.2042
     34 C           1.8257    0.5289   18.3288 C.ar    1  UNL1        0.0327
     35 C           3.0636   -0.0084   17.6739 C.ar    1  UNL1        0.0392
@<TRIPOS>BOND
     1    21    22    1
     2    22    11    1
     3    11    12   ar
     4    12    13   ar
     5    13    14    1
     6    13    15   ar
     7    15    16    1
     8    15    17   ar
     9    17    18   ar
    10    18     7    1
    11     7     8    2
    12     7     9   am
    13     9     1    1
    14     1     2    1
    15     2     3    1
    16     3     4    1
    17     4    25    1
    18    25    26    1
    19    26    27    1
    20    27    28    1
    21    28    29    1
    22    29    30   ar
    23    30    31   ar
    24    31    32   ar
    25    32    33    1
    26    32    34   ar
    27    34    35   ar
    28     4     5    1
    29     5     6    1
    30     6    23    1
    31    23    24    1
    32    18    11   ar
    33     6     1    1
    34    35    29   ar
    35    14    19    1
    36    14    20    1
    37     9    10    1
@<TRIPOS>MOLECULE
*****
 35 37 0 0 0
SMALL
GASTEIGER

@<TRIPOS>ATOM
      1 C           0.5793    2.7798   28.5105 C.3     1  UNL1        0.1017
      2 C           0.6352    4.2763   28.5966 C.3     1  UNL1        0.0394
      3 C          -0.3810    5.1078   27.8711 C.3     1  UNL1        0.0739
      4 N          -1.4529    4.4427   27.0596 N.3     1  UNL1       -0.2704
      5 C          -1.5087    2.9462   26.9735 C.3     1  UNL1        0.1037
      6 C          -0.4927    2.1148   27.6989 C.3     1  UNL1        0.1490
      7 C           1.3416    1.5195   30.6506 C.2     1  UNL1        0.2488
      8 O           0.0716    1.9219   31.3400 O.2     1  UNL1       -0.2700
      9 N           1.5954    1.9484   29.2359 N.am    1  UNL1       -0.2999
     10 H           2.4289    1.6843   28.7834 H       1  UNL1        0.1498
     11 C           2.9097   -0.5503   30.7344 C.ar    1  UNL1        0.1443
     12 C           3.9258   -1.3817   31.4598 C.ar    1  UNL1        0.0520
     13 C           4.3899   -0.9748   32.8269 C.ar    1  UNL1        0.0553
     14 N           5.4061   -1.8062   33.5523 N.pl3   1  UNL1       -0.3563
     15 C           3.8379    0.2635   33.4686 C.ar    1  UNL1        0.0709
     16 CL          4.3020    0.6705   34.8357 Cl      1  UNL1       -0.0810
     17 C           2.8218    1.0949   32.7432 C.ar    1  UNL1        0.0202
     18 C           2.3577    0.6880   31.3761 C.ar    1  UNL1        0.0882
     19 H           5.7684   -2.6190   33.1311 H       1  UNL1        0.1424
     20 H           5.7107   -1.5392   34.4496 H       1  UNL1        0.1424
     21 C           3.4063   -0.9473   28.2153 C.3     1  UNL1        0.2525
     22 O           2.4457   -0.9572   29.3672 O.3     1  UNL1       -0.4712
     23 O          -0.5485    0.6183   27.6128 O.3     1  UNL1       -0.3505
     24 C          -1.2791   -0.1665   28.6617 C.3     1  UNL1        0.1741
     25 C          -2.4690    5.2741   26.3341 C.3     1  UNL1        0.0760
     26 C          -3.6853    5.7717   27.0573 C.3     1  UNL1        0.0646
     27 C          -4.9923    5.0503   26.9111 C.3     1  UNL1        0.2068
     28 O          -5.0680    3.7932   26.0964 O.3     1  UNL1       -0.4754
     29 C          -5.4820    3.8566   24.6561 C.ar    1  UNL1        0.1387
     30 C          -4.6505    3.1809   23.6062 C.ar    1  UNL1        0.0392
     31 C          -5.0645    3.2444   22.1659 C.ar    1  UNL1        0.0327
     32 C          -6.3100    3.9835   21.7754 C.ar    1  UNL1        0.1403
     33 F          -6.7240    4.0470   20.3350 F       1  UNL1       -0.2042
     34 C          -7.1414    4.6592   22.8252 C.ar    1  UNL1        0.0327
     35 C          -6.7274    4.5957   24.2656 C.ar    1  UNL1        0.0392
@<TRIPOS>BOND
     1    21    22    1
     2    22    11    1
     3    11    12   ar
     4    12    13   ar
     5    13    14    1
     6    13    15   ar
     7    15    16    1
     8    15    17   ar
     9    17    18   ar
    10    18     7    1
    11     7     8    2
    12     7     9   am
    13     9     1    1
    14     1     2    1
    15     2     3    1
    16     3     4    1
    17     4    25    1
    18    25    26    1
    19    26    27    1
    20    27    28    1
    21    28    29    1
    22    29    30   ar
    23    30    31   ar
    24    31    32   ar
    25    32    33    1
    26    32    34   ar
    27    34    35   ar
    28     4     5    1
    29     5     6    1
    30     6    23    1
    31    23    24    1
    32    18    11   ar
    33     6     1    1
    34    35    29   ar
    35    14    19    1
    36    14    20    1
    37     9    10    1
@<TRIPOS>MOLECULE
*****
 35 37 0 0 0
SMALL
GASTEIGER

@<TRIPOS>ATOM
      1 C          -0.1205    2.3706   20.1041 C.3     1  UNL1        0.1017
      2 C           0.3348    3.0170   18.8294 C.3     1  UNL1        0.0394
      3 C           1.7699    2.9114   18.4059 C.3     1  UNL1        0.0739
      4 N           2.7497    2.1594   19.2570 N.3     1  UNL1       -0.2704
      5 C           2.2944    1.5130   20.5317 C.3     1  UNL1        0.1037
      6 C           0.8593    1.6186   20.9553 C.3     1  UNL1        0.1490
      7 C          -1.9822    3.5652   21.4668 C.2     1  UNL1        0.2488
      8 O          -0.9737    4.5486   21.9825 O.2     1  UNL1       -0.2700
      9 N          -1.5556    2.4762   20.5276 N.am    1  UNL1       -0.2999
     10 H          -2.2175    1.8308   20.1892 H       1  UNL1        0.1498
     11 C          -4.5034    3.7108   20.8566 C.ar    1  UNL1        0.1443
     12 C          -5.9384    3.8163   21.2802 C.ar    1  UNL1        0.0520
     13 C          -6.2874    3.8820   22.7375 C.ar    1  UNL1        0.0553
     14 N          -7.7225    3.9875   23.1611 N.pl3   1  UNL1       -0.3563
     15 C          -5.2013    3.8420   23.7713 C.ar    1  UNL1        0.0709
     16 CL         -5.5503    3.9077   25.2287 Cl      1  UNL1       -0.0810
     17 C          -3.7663    3.7365   23.3478 C.ar    1  UNL1        0.0202
     18 C          -3.4173    3.6708   21.8904 C.ar    1  UNL1        0.0882
     19 H          -8.4354    4.0138   22.4825 H       1  UNL1        0.1424
     20 H          -7.9516    4.0306   24.1176 H       1  UNL1        0.1424
     21 C          -4.0237    4.9087   18.6017 C.3     1  UNL1        0.2525
     22 O          -4.1544    3.6451   19.3992 O.3     1  UNL1       -0.4712
     23 O           0.4040    0.9722   22.2300 O.3     1  UNL1       -0.3505
     24 C           0.6328    1.6601   23.5431 C.3     1  UNL1        0.1741
     25 C           4.1847    2.0538   18.8335 C.3     1  UNL1        0.0760
     26 C           4.7195    0.7522   18.3140 C.3     1  UNL1        0.0646
     27 C           3.8293   -0.1643   17.5281 C.3     1  UNL1        0.2068
     28 O           4.0274   -1.6493   17.6040 O.3     1  UNL1       -0.4754
     29 C           4.4404   -2.2857   18.8979 C.ar    1  UNL1        0.1387
     30 C           5.6750   -3.1356   18.9553 C.ar    1  UNL1        0.0392
     31 C           6.0881   -3.7720   20.2492 C.ar    1  UNL1        0.0327
     32 C           5.2664   -3.5585   21.4859 C.ar    1  UNL1        0.1403
     33 F           5.6794   -4.1950   22.7799 F       1  UNL1       -0.2042
     34 C           4.0318   -2.7086   21.4286 C.ar    1  UNL1        0.0327
     35 C           3.6188   -2.0722   20.1346 C.ar    1  UNL1        0.0392
@<TRIPOS>BOND
     1    21    22    1
     2    22    11    1
     3    11    12   ar
     4    12    13   ar
     5    13    14    1
     6    13    15   ar
     7    15    16    1
     8    15    17   ar
     9    17    18   ar
    10    18     7    1
    11     7     8    2
    12     7     9   am
    13     9     1    1
    14     1     2    1
    15     2     3    1
    16     3     4    1
    17     4    25    1
    18    25    26    1
    19    26    27    1
    20    27    28    1
    21    28    29    1
    22    29    30   ar
    23    30    31   ar
    24    31    32   ar
    25    32    33    1
    26    32    34   ar
    27    34    35   ar
    28     4     5    1
    29     5     6    1
    30     6    23    1
    31    23    24    1
    32    18    11   ar
    33     6     1    1
    34    35    29   ar
    35    14    19    1
    36    14    20    1
    37     9    10    1
@<TRIPOS>MOLECULE
*****
 35 37 0 0 0
SMALL
GASTEIGER

@<TRIPOS>ATOM
      1 C          -7.8049  -17.0155   23.2201 C.3     1  UNL1        0.1017
      2 C          -7.0483  -18.0063   22.3859 C.3     1  UNL1        0.0394
      3 C          -5.5497  -17.9581   22.3393 C.3     1  UNL1        0.0739
      4 N          -4.8079  -16.9192   23.1269 N.3     1  UNL1       -0.2704
      5 C          -5.5646  -15.9285   23.9612 C.3     1  UNL1        0.1037
      6 C          -7.0630  -15.9766   24.0078 C.3     1  UNL1        0.1490
      7 C          -9.9977  -18.2608   23.8455 C.2     1  UNL1        0.2488
      8 O          -9.1935  -19.4097   24.3777 O.2     1  UNL1       -0.2700
      9 N          -9.3034  -17.0637   23.2668 N.am    1  UNL1       -0.2999
     10 H          -9.8312  -16.3096   22.9175 H       1  UNL1        0.1498
     11 C         -12.2902  -18.1916   22.6249 C.ar    1  UNL1        0.1443
     12 C         -13.7886  -18.2398   22.6715 C.ar    1  UNL1        0.0520
     13 C         -14.4932  -18.4051   23.9854 C.ar    1  UNL1        0.0553
     14 N         -15.9917  -18.4532   24.0320 N.pl3   1  UNL1       -0.3563
     15 C         -13.6993  -18.5224   25.2526 C.ar    1  UNL1        0.0709
     16 CL        -14.4038  -18.6878   26.5665 Cl      1  UNL1       -0.0810
     17 C         -12.2008  -18.4743   25.2060 C.ar    1  UNL1        0.0202
     18 C         -11.4962  -18.3089   23.8921 C.ar    1  UNL1        0.0882
     19 H         -16.5128  -18.3763   23.2003 H       1  UNL1        0.1424
     20 H         -16.4542  -18.5618   24.8944 H       1  UNL1        0.1424
     21 C         -11.7272  -16.7476   20.5398 C.3     1  UNL1        0.2525
     22 O         -11.5856  -18.0263   21.3110 O.3     1  UNL1       -0.4712
     23 O          -7.8197  -14.9859   24.8420 O.3     1  UNL1       -0.3505
     24 C          -8.3572  -15.3899   26.1828 C.3     1  UNL1        0.1741
     25 C          -3.3094  -16.8710   23.0803 C.3     1  UNL1        0.0760
     26 C          -2.6180  -15.9956   22.0775 C.3     1  UNL1        0.0646
     27 C          -1.3115  -16.4269   21.4800 C.3     1  UNL1        0.2068
     28 O          -1.2905  -17.4425   20.3763 O.3     1  UNL1       -0.4754
     29 C          -2.4116  -18.4303   20.2447 C.ar    1  UNL1        0.1387
     30 C          -2.3811  -19.7084   21.0293 C.ar    1  UNL1        0.0392
     31 C          -3.5022  -20.6962   20.8977 C.ar    1  UNL1        0.0327
     32 C          -4.6538  -20.4060   19.9813 C.ar    1  UNL1        0.1403
     33 F          -5.7749  -21.3937   19.8497 F       1  UNL1       -0.2042
     34 C          -4.6843  -19.1279   19.1966 C.ar    1  UNL1        0.0327
     35 C          -3.5631  -18.1401   19.3283 C.ar    1  UNL1        0.0392
@<TRIPOS>BOND
     1    21    22    1
     2    22    11    1
     3    11    12   ar
     4    12    13   ar
     5    13    14    1
     6    13    15   ar
     7    15    16    1
     8    15    17   ar
     9    17    18   ar
    10    18     7    1
    11     7     8    2
    12     7     9   am
    13     9     1    1
    14     1     2    1
    15     2     3    1
    16     3     4    1
    17     4    25    1
    18    25    26    1
    19    26    27    1
    20    27    28    1
    21    28    29    1
    22    29    30   ar
    23    30    31   ar
    24    31    32   ar
    25    32    33    1
    26    32    34   ar
    27    34    35   ar
    28     4     5    1
    29     5     6    1
    30     6    23    1
    31    23    24    1
    32    18    11   ar
    33     6     1    1
    34    35    29   ar
    35    14    19    1
    36    14    20    1
    37     9    10    1
@<TRIPOS>MOLECULE
*****
 35 37 0 0 0
SMALL
GASTEIGER

@<TRIPOS>ATOM
      1 C           4.1165   -1.4894   27.2097 C.3     1  UNL1        0.1017
      2 C           2.8662   -0.9313   27.8222 C.3     1  UNL1        0.0394
      3 C           2.9020   -0.3547   29.2065 C.3     1  UNL1        0.0739
      4 N           4.1880   -0.3363   29.9783 N.3     1  UNL1       -0.2704
      5 C           5.4384   -0.8944   29.3658 C.3     1  UNL1        0.1037
      6 C           5.4027   -1.4709   27.9815 C.3     1  UNL1        0.1490
      7 C           4.0844   -1.1554   24.6334 C.2     1  UNL1        0.2488
      8 O           4.1236    0.3317   24.8256 O.2     1  UNL1       -0.2700
      9 N           4.0808   -2.0659   25.8254 N.am    1  UNL1       -0.2999
     10 H           4.0551   -3.0420   25.6992 H       1  UNL1        0.1498
     11 C           4.8246   -2.9767   22.9348 C.ar    1  UNL1        0.1443
     12 C           4.7888   -3.5532   21.5505 C.ar    1  UNL1        0.0520
     13 C           3.9772   -2.8851   20.4805 C.ar    1  UNL1        0.0553
     14 N           3.9415   -3.4618   19.0962 N.pl3   1  UNL1       -0.3563
     15 C           3.2013   -1.6405   20.7948 C.ar    1  UNL1        0.0709
     16 CL          2.3897   -0.9724   19.7247 Cl      1  UNL1       -0.0810
     17 C           3.2370   -1.0639   22.1790 C.ar    1  UNL1        0.0202
     18 C           4.0487   -1.7320   23.2490 C.ar    1  UNL1        0.0882
     19 H           4.4507   -4.2787   18.8899 H       1  UNL1        0.1424
     20 H           3.4088   -3.0233   18.3939 H       1  UNL1        0.1424
     21 C           6.9263   -4.3244   23.6532 C.3     1  UNL1        0.2525
     22 O           5.6362   -3.6447   24.0048 O.3     1  UNL1       -0.4712
     23 O           6.6530   -2.0290   27.3690 O.3     1  UNL1       -0.3505
     24 C           6.9505   -3.4953   27.4757 C.3     1  UNL1        0.1741
     25 C           4.2237    0.2403   31.3626 C.3     1  UNL1        0.0760
     26 C           2.9485    0.4292   32.1295 C.3     1  UNL1        0.0646
     27 C           2.1614    1.6969   31.9753 C.3     1  UNL1        0.2068
     28 O           0.7086    1.6375   31.6068 O.3     1  UNL1       -0.4754
     29 C           0.2995    1.6582   30.1638 C.ar    1  UNL1        0.1387
     30 C          -0.6180    0.5987   29.6292 C.ar    1  UNL1        0.0392
     31 C          -1.0271    0.6194   28.1862 C.ar    1  UNL1        0.0327
     32 C          -0.5189    1.6995   27.2779 C.ar    1  UNL1        0.1403
     33 F          -0.9280    1.7202   25.8350 F       1  UNL1       -0.2042
     34 C           0.3986    2.7590   27.8126 C.ar    1  UNL1        0.0327
     35 C           0.8078    2.7383   29.2556 C.ar    1  UNL1        0.0392
@<TRIPOS>BOND
     1    21    22    1
     2    22    11    1
     3    11    12   ar
     4    12    13   ar
     5    13    14    1
     6    13    15   ar
     7    15    16    1
     8    15    17   ar
     9    17    18   ar
    10    18     7    1
    11     7     8    2
    12     7     9   am
    13     9     1    1
    14     1     2    1
    15     2     3    1
    16     3     4    1
    17     4    25    1
    18    25    26    1
    19    26    27    1
    20    27    28    1
    21    28    29    1
    22    29    30   ar
    23    30    31   ar
    24    31    32   ar
    25    32    33    1
    26    32    34   ar
    27    34    35   ar
    28     4     5    1
    29     5     6    1
    30     6    23    1
    31    23    24    1
    32    18    11   ar
    33     6     1    1
    34    35    29   ar
    35    14    19    1
    36    14    20    1
    37     9    10    1
@<TRIPOS>MOLECULE
*****
 35 37 0 0 0
SMALL
GASTEIGER

@<TRIPOS>ATOM
      1 C           0.1101    2.4053   20.4610 C.3     1  UNL1        0.1017
      2 C           1.1338    1.9810   21.4720 C.3     1  UNL1        0.0394
      3 C           2.5832    1.9178   21.0907 C.3     1  UNL1        0.0739
      4 N           3.0089    2.2788   19.6985 N.3     1  UNL1       -0.2704
      5 C           1.9853    2.7030   18.6874 C.3     1  UNL1        0.1037
      6 C           0.5359    2.7663   19.0687 C.3     1  UNL1        0.1490
      7 C          -1.8900    3.7019   21.4944 C.2     1  UNL1        0.2488
      8 O          -0.9915    4.8720   21.7655 O.2     1  UNL1       -0.2700
      9 N          -1.3392    2.4685   20.8422 N.am    1  UNL1       -0.2999
     10 H          -1.9289    1.7006   20.6643 H       1  UNL1        0.1498
     11 C          -3.7464    3.5893   23.3086 C.ar    1  UNL1        0.1443
     12 C          -5.1958    3.6525   23.6898 C.ar    1  UNL1        0.0520
     13 C          -6.2381    3.8916   22.6380 C.ar    1  UNL1        0.0553
     14 N          -7.6876    3.9548   23.0192 N.pl3   1  UNL1       -0.3563
     15 C          -5.8312    4.0674   21.2050 C.ar    1  UNL1        0.0709
     16 CL         -6.8735    4.3065   20.1532 Cl      1  UNL1       -0.0810
     17 C          -4.3818    4.0042   20.8239 C.ar    1  UNL1        0.0202
     18 C          -3.3394    3.7651   21.8757 C.ar    1  UNL1        0.0882
     19 H          -7.9547    3.8394   23.9597 H       1  UNL1        0.1424
     20 H          -8.3717    4.1117   22.3289 H       1  UNL1        0.1424
     21 C          -2.2704    4.4730   25.2555 C.3     1  UNL1        0.2525
     22 O          -2.7040    3.3502   24.3604 O.3     1  UNL1       -0.4712
     23 O          -0.4877    3.1905   18.0576 O.3     1  UNL1       -0.3505
     24 C          -0.4216    4.5618   17.4534 C.3     1  UNL1        0.1741
     25 C           4.4582    2.2155   19.3173 C.3     1  UNL1        0.0760
     26 C           4.8491    1.8887   17.9064 C.3     1  UNL1        0.0646
     27 C           5.8223    0.7798   17.6355 C.3     1  UNL1        0.2068
     28 O           6.1481   -0.2119   18.7126 O.3     1  UNL1       -0.4754
     29 C           5.3012   -1.4380   18.8843 C.ar    1  UNL1        0.1387
     30 C           5.7887   -2.7632   18.3783 C.ar    1  UNL1        0.0392
     31 C           4.9417   -3.9892   18.5500 C.ar    1  UNL1        0.0327
     32 C           3.6072   -3.8901   19.2278 C.ar    1  UNL1        0.1403
     33 F           2.7603   -5.1161   19.3996 F       1  UNL1       -0.2042
     34 C           3.1197   -2.5648   19.7339 C.ar    1  UNL1        0.0327
     35 C           3.9667   -1.3388   19.5621 C.ar    1  UNL1        0.0392
@<TRIPOS>BOND
     1    21    22    1
     2    22    11    1
     3    11    12   ar
     4    12    13   ar
     5    13    14    1
     6    13    15   ar
     7    15    16    1
     8    15    17   ar
     9    17    18   ar
    10    18     7    1
    11     7     8    2
    12     7     9   am
    13     9     1    1
    14     1     2    1
    15     2     3    1
    16     3     4    1
    17     4    25    1
    18    25    26    1
    19    26    27    1
    20    27    28    1
    21    28    29    1
    22    29    30   ar
    23    30    31   ar
    24    31    32   ar
    25    32    33    1
    26    32    34   ar
    27    34    35   ar
    28     4     5    1
    29     5     6    1
    30     6    23    1
    31    23    24    1
    32    18    11   ar
    33     6     1    1
    34    35    29   ar
    35    14    19    1
    36    14    20    1
    37     9    10    1
@<TRIPOS>MOLECULE
*****
 35 37 0 0 0
SMALL
GASTEIGER

@<TRIPOS>ATOM
      1 C           4.0595   -1.3749   27.2435 C.3     1  UNL1        0.1017
      2 C           5.4069   -1.9884   27.4852 C.3     1  UNL1        0.0394
      3 C           5.9998   -1.9772   28.8630 C.3     1  UNL1        0.0739
      4 N           5.2455   -1.3526   29.9991 N.3     1  UNL1       -0.2704
      5 C           3.8982   -0.7391   29.7575 C.3     1  UNL1        0.1037
      6 C           3.3052   -0.7503   28.3797 C.3     1  UNL1        0.1490
      7 C           3.5209   -0.1514   25.0158 C.2     1  UNL1        0.2488
      8 O           4.1683    1.0945   25.5436 O.2     1  UNL1       -0.2700
      9 N           3.4665   -1.3861   25.8658 N.am    1  UNL1       -0.2999
     10 H           3.0416   -2.2038   25.5194 H       1  UNL1        0.1498
     11 C           3.4686   -1.0967   22.5964 C.ar    1  UNL1        0.1443
     12 C           2.8755   -1.1078   21.2187 C.ar    1  UNL1        0.0520
     13 C           1.7418   -0.1849   20.8826 C.ar    1  UNL1        0.0553
     14 N           1.1487   -0.1961   19.5048 N.pl3   1  UNL1       -0.3563
     15 C           1.2011    0.7491   21.9243 C.ar    1  UNL1        0.0709
     16 CL          0.0674    1.6720   21.5882 Cl      1  UNL1       -0.0810
     17 C           1.7942    0.7603   23.3020 C.ar    1  UNL1        0.0202
     18 C           2.9279   -0.1626   23.6380 C.ar    1  UNL1        0.0882
     19 H           1.5036   -0.8092   18.8211 H       1  UNL1        0.1424
     20 H           0.4046    0.4096   19.2842 H       1  UNL1        0.1424
     21 C           4.5293   -3.4679   22.5490 C.3     1  UNL1        0.2525
     22 O           4.6023   -2.0196   22.9324 O.3     1  UNL1       -0.4712
     23 O           1.9579   -0.1368   28.1381 O.3     1  UNL1       -0.3505
     24 C           0.9187   -0.1593   29.2195 C.3     1  UNL1        0.1741
     25 C           5.8385   -1.3414   31.3768 C.3     1  UNL1        0.0760
     26 C           6.1584   -2.6347   32.0662 C.3     1  UNL1        0.0646
     27 C           7.5852   -3.0747   32.2105 C.3     1  UNL1        0.2068
     28 O           8.0277   -4.3862   31.6325 O.3     1  UNL1       -0.4754
     29 C           7.9131   -4.6325   30.1573 C.ar    1  UNL1        0.1387
     30 C           8.9464   -4.0781   29.2219 C.ar    1  UNL1        0.0392
     31 C           8.8319   -4.3244   27.7467 C.ar    1  UNL1        0.0327
     32 C           7.6839   -5.1250   27.2069 C.ar    1  UNL1        0.1403
     33 F           7.5694   -5.3713   25.7317 F       1  UNL1       -0.2042
     34 C           6.6506   -5.6793   28.1423 C.ar    1  UNL1        0.0327
     35 C           6.7652   -5.4330   29.6175 C.ar    1  UNL1        0.0392
@<TRIPOS>BOND
     1    21    22    1
     2    22    11    1
     3    11    12   ar
     4    12    13   ar
     5    13    14    1
     6    13    15   ar
     7    15    16    1
     8    15    17   ar
     9    17    18   ar
    10    18     7    1
    11     7     8    2
    12     7     9   am
    13     9     1    1
    14     1     2    1
    15     2     3    1
    16     3     4    1
    17     4    25    1
    18    25    26    1
    19    26    27    1
    20    27    28    1
    21    28    29    1
    22    29    30   ar
    23    30    31   ar
    24    31    32   ar
    25    32    33    1
    26    32    34   ar
    27    34    35   ar
    28     4     5    1
    29     5     6    1
    30     6    23    1
    31    23    24    1
    32    18    11   ar
    33     6     1    1
    34    35    29   ar
    35    14    19    1
    36    14    20    1
    37     9    10    1
