@<TRIPOS>MOLECULE
*****
 33 36 0 0 0
SMALL
GASTEIGER

@<TRIPOS>ATOM
      1 C           0.0608    2.0220   21.7717 C.ar    1  UNL1        0.1637
      2 N           0.0711    2.4776   23.2007 N.ar    1  UNL1       -0.2116
      3 C          -1.0589    3.3094   23.7310 C.ar    1  UNL1        0.1378
      4 C          -2.1993    3.6856   22.8321 C.ar    1  UNL1        0.0785
      5 S          -3.4427    4.4898   23.0713 S.2     1  UNL1       -0.0821
      6 C          -4.2215    4.5311   21.7900 C.ar    1  UNL1        0.0371
      7 C          -3.4595    3.7526   20.7589 C.ar    1  UNL1        0.0267
      8 C          -2.2096    3.2300   21.4030 C.ar    1  UNL1        0.0921
      9 N          -1.0796    2.3982   20.8728 N.ar    1  UNL1       -0.2259
     10 C           1.1134    0.6143   19.8585 C.2     1  UNL1        0.0033
     11 C           1.1908    1.1901   21.2414 C.2     1  UNL1        0.0388
     12 C           3.7240   -2.3483   19.4610 C.ar    1  UNL1        0.1754
     13 C           2.5941   -1.5165   19.9914 C.ar    1  UNL1        0.0403
     14 C           2.2434   -0.2175   19.3282 C.ar    1  UNL1        0.0063
     15 C           3.0227    0.2495   18.1346 C.ar    1  UNL1        0.0403
     16 C           4.1526   -0.5823   17.6043 C.ar    1  UNL1        0.1754
     17 C           4.5033   -1.8812   18.2675 C.ar    1  UNL1        0.2061
     18 C           3.5614   -4.9394   19.5614 C.3     1  UNL1        0.2526
     19 O           4.0747   -3.6472   20.1243 O.3     1  UNL1       -0.4683
     20 O           4.9319   -0.1153   16.4107 O.3     1  UNL1       -0.4683
     21 C           6.1701    0.7101   16.5995 C.3     1  UNL1        0.2526
     22 O           5.6333   -2.7131   17.7371 O.3     1  UNL1       -0.4654
     23 C           7.0297   -2.4861   18.2355 C.3     1  UNL1        0.2528
     24 N          -1.0485    3.7650   25.1601 N.pl3   1  UNL1       -0.3140
     25 H          -0.6912    4.6528   25.3912 H       1  UNL1        0.1485
     26 C          -1.5825    2.8679   26.2372 C.3     1  UNL1        0.1154
     27 C          -0.6422    2.0197   27.0412 C.ar    1  UNL1       -0.0026
     28 C          -1.1835    1.0410   28.0408 C.ar    1  UNL1       -0.0029
     29 C          -0.2432    0.1927   28.8448 C.ar    1  UNL1       -0.0045
     30 C           1.2383    0.3232   28.6492 C.ar    1  UNL1       -0.0219
     31 C           2.1785   -0.5250   29.4533 C.3     1  UNL1        0.0310
     32 C           1.7795    1.3020   27.6497 C.ar    1  UNL1       -0.0045
     33 C           0.8392    2.1502   26.8456 C.ar    1  UNL1       -0.0029
@<TRIPOS>BOND
     1    18    19    1
     2    19    12    1
     3    12    13   ar
     4    13    14   ar
     5    14    10    1
     6    10    11    2
     7    11     1    1
     8     1     2   ar
     9     2     3   ar
    10     3    24    1
    11    24    26    1
    12    26    27    1
    13    27    28   ar
    14    28    29   ar
    15    29    30   ar
    16    30    31    1
    17    30    32   ar
    18    32    33   ar
    19     3     4   ar
    20     4     5   ar
    21     5     6   ar
    22     6     7   ar
    23     7     8   ar
    24     8     9   ar
    25    14    15   ar
    26    15    16   ar
    27    16    20    1
    28    20    21    1
    29    16    17   ar
    30    17    22    1
    31    22    23    1
    32    17    12   ar
    33     9     1   ar
    34    33    27   ar
    35     8     4   ar
    36    24    25    1
@<TRIPOS>MOLECULE
*****
 33 36 0 0 0
SMALL
GASTEIGER

@<TRIPOS>ATOM
      1 C           0.5055    1.4616   19.5571 C.ar    1  UNL1        0.1637
      2 N          -0.4200    1.8035   20.6868 N.ar    1  UNL1       -0.2116
      3 C          -1.4170    2.9132   20.5301 C.ar    1  UNL1        0.1378
      4 C          -1.4884    3.6810   19.2435 C.ar    1  UNL1        0.0785
      5 S          -2.3611    4.8176   18.8002 S.2     1  UNL1       -0.0821
      6 C          -1.9749    5.1781   17.3963 C.ar    1  UNL1        0.0371
      7 C          -0.8636    4.2644   16.9720 C.ar    1  UNL1        0.0267
      8 C          -0.5629    3.3391   18.1137 C.ar    1  UNL1        0.0921
      9 N           0.4340    2.2294   18.2704 N.ar    1  UNL1       -0.2259
     10 C           2.0024   -0.0200   21.0782 C.2     1  UNL1        0.0033
     11 C           1.5025    0.3518   19.7138 C.2     1  UNL1        0.0388
     12 C           4.4570   -3.0092   20.1896 C.ar    1  UNL1        0.1754
     13 C           3.4601   -1.8995   20.0327 C.ar    1  UNL1        0.0403
     14 C           2.9994   -1.1298   21.2350 C.ar    1  UNL1        0.0063
     15 C           3.5357   -1.4697   22.5940 C.ar    1  UNL1        0.0403
     16 C           4.5327   -2.5794   22.7507 C.ar    1  UNL1        0.1754
     17 C           4.9933   -3.3492   21.5485 C.ar    1  UNL1        0.2061
     18 C           4.4460   -5.1866   18.7721 C.3     1  UNL1        0.2526
     19 O           4.9177   -3.7790   18.9874 O.3     1  UNL1       -0.4683
     20 O           5.0690   -2.9194   24.1097 O.3     1  UNL1       -0.4683
     21 C           5.1753   -1.8555   25.1618 C.3     1  UNL1        0.2526
     22 O           5.9903   -4.4589   21.7054 O.3     1  UNL1       -0.4654
     23 C           7.4590   -4.1641   21.6276 C.3     1  UNL1        0.2528
     24 N          -2.3425    3.2551   21.6601 N.pl3   1  UNL1       -0.3140
     25 H          -3.2796    2.9545   21.6369 H       1  UNL1        0.1485
     26 C          -1.8400    4.0550   22.8252 C.3     1  UNL1        0.1154
     27 C          -1.5324    3.3738   24.1257 C.ar    1  UNL1       -0.0026
     28 C          -0.4080    2.3842   24.2064 C.ar    1  UNL1       -0.0029
     29 C          -0.1004    1.7029   25.5069 C.ar    1  UNL1       -0.0045
     30 C          -0.9172    2.0113   26.7267 C.ar    1  UNL1       -0.0219
     31 C          -0.6095    1.3300   28.0272 C.3     1  UNL1        0.0310
     32 C          -2.0415    3.0008   26.6460 C.ar    1  UNL1       -0.0045
     33 C          -2.3491    3.6821   25.3455 C.ar    1  UNL1       -0.0029
@<TRIPOS>BOND
     1    18    19    1
     2    19    12    1
     3    12    13   ar
     4    13    14   ar
     5    14    10    1
     6    10    11    2
     7    11     1    1
     8     1     2   ar
     9     2     3   ar
    10     3    24    1
    11    24    26    1
    12    26    27    1
    13    27    28   ar
    14    28    29   ar
    15    29    30   ar
    16    30    31    1
    17    30    32   ar
    18    32    33   ar
    19     3     4   ar
    20     4     5   ar
    21     5     6   ar
    22     6     7   ar
    23     7     8   ar
    24     8     9   ar
    25    14    15   ar
    26    15    16   ar
    27    16    20    1
    28    20    21    1
    29    16    17   ar
    30    17    22    1
    31    22    23    1
    32    17    12   ar
    33     9     1   ar
    34    33    27   ar
    35     8     4   ar
    36    24    25    1
@<TRIPOS>MOLECULE
*****
 33 36 0 0 0
SMALL
GASTEIGER

@<TRIPOS>ATOM
      1 C           0.0896    2.5792   18.8340 C.ar    1  UNL1        0.1637
      2 N          -0.4973    2.5055   20.2123 N.ar    1  UNL1       -0.2116
      3 C          -1.7843    3.2127   20.5183 C.ar    1  UNL1        0.1378
      4 C          -2.4842    3.9936   19.4459 C.ar    1  UNL1        0.0785
      5 S          -3.7566    4.7880   19.4509 S.2     1  UNL1       -0.0821
      6 C          -3.9560    5.3526   18.0756 C.ar    1  UNL1        0.0371
      7 C          -2.8068    4.9072   17.2206 C.ar    1  UNL1        0.0267
      8 C          -1.8972    4.0673   18.0674 C.ar    1  UNL1        0.0921
      9 N          -0.6103    3.3601   17.7615 N.ar    1  UNL1       -0.2259
     10 C           1.5517    0.4330   18.9137 C.2     1  UNL1        0.0033
     11 C           1.3766    1.8719   18.5280 C.2     1  UNL1        0.0388
     12 C           4.4396   -2.2886   18.9673 C.ar    1  UNL1        0.1754
     13 C           3.1527   -1.5814   19.2733 C.ar    1  UNL1        0.0403
     14 C           2.8386   -0.2743   18.6078 C.ar    1  UNL1        0.0063
     15 C           3.8115    0.3256   17.6363 C.ar    1  UNL1        0.0403
     16 C           5.0984   -0.3817   17.3304 C.ar    1  UNL1        0.1754
     17 C           5.4124   -1.6888   17.9959 C.ar    1  UNL1        0.2061
     18 C           4.5241   -4.8845   18.9004 C.3     1  UNL1        0.2526
     19 O           4.7537   -3.5957   19.6328 O.3     1  UNL1       -0.4683
     20 O           6.0713    0.2181   16.3589 O.3     1  UNL1       -0.4683
     21 C           7.2222    1.0390   16.8603 C.3     1  UNL1        0.2526
     22 O           6.6994   -2.3960   17.6898 O.3     1  UNL1       -0.4654
     23 C           7.8804   -2.2314   18.5999 C.3     1  UNL1        0.2528
     24 N          -2.3713    3.1390   21.8968 N.pl3   1  UNL1       -0.3140
     25 H          -3.1879    2.6128   22.0566 H       1  UNL1        0.1485
     26 C          -1.7140    3.8669   23.0317 C.3     1  UNL1        0.1154
     27 C          -1.2445    3.1082   24.2375 C.ar    1  UNL1       -0.0026
     28 C          -1.9035    3.3299   25.5666 C.ar    1  UNL1       -0.0029
     29 C          -1.4340    2.5712   26.7724 C.ar    1  UNL1       -0.0045
     30 C          -0.3053    1.5908   26.6491 C.ar    1  UNL1       -0.0219
     31 C           0.1642    0.8321   27.8549 C.3     1  UNL1        0.0310
     32 C           0.3537    1.3691   25.3200 C.ar    1  UNL1       -0.0045
     33 C          -0.1159    2.1278   24.1142 C.ar    1  UNL1       -0.0029
@<TRIPOS>BOND
     1    18    19    1
     2    19    12    1
     3    12    13   ar
     4    13    14   ar
     5    14    10    1
     6    10    11    2
     7    11     1    1
     8     1     2   ar
     9     2     3   ar
    10     3    24    1
    11    24    26    1
    12    26    27    1
    13    27    28   ar
    14    28    29   ar
    15    29    30   ar
    16    30    31    1
    17    30    32   ar
    18    32    33   ar
    19     3     4   ar
    20     4     5   ar
    21     5     6   ar
    22     6     7   ar
    23     7     8   ar
    24     8     9   ar
    25    14    15   ar
    26    15    16   ar
    27    16    20    1
    28    20    21    1
    29    16    17   ar
    30    17    22    1
    31    22    23    1
    32    17    12   ar
    33     9     1   ar
    34    33    27   ar
    35     8     4   ar
    36    24    25    1
@<TRIPOS>MOLECULE
*****
 33 36 0 0 0
SMALL
GASTEIGER

@<TRIPOS>ATOM
      1 C           0.2131    2.5793   18.7983 C.ar    1  UNL1        0.1637
      2 N          -0.3977    2.5133   20.1666 N.ar    1  UNL1       -0.2116
      3 C          -1.6977    3.2093   20.4421 C.ar    1  UNL1        0.1378
      4 C          -2.3867    3.9712   19.3491 C.ar    1  UNL1        0.0785
      5 S          -3.6676    4.7513   19.3230 S.2     1  UNL1       -0.0821
      6 C          -3.8483    5.2994   17.9385 C.ar    1  UNL1        0.0371
      7 C          -2.6792    4.8581   17.1089 C.ar    1  UNL1        0.0267
      8 C          -1.7758    4.0372   17.9807 C.ar    1  UNL1        0.0921
      9 N          -0.4759    3.3412   17.7053 N.ar    1  UNL1       -0.2259
     10 C           1.6491    0.4141   18.7931 C.2     1  UNL1        0.0033
     11 C           1.5131    1.8833   18.5229 C.2     1  UNL1        0.0388
     12 C           5.2429   -0.3653   17.3006 C.ar    1  UNL1        0.1754
     13 C           3.9430    0.3308   17.5760 C.ar    1  UNL1        0.0403
     14 C           2.9490   -0.2819   18.5176 C.ar    1  UNL1        0.0063
     15 C           3.2549   -1.5906   19.1838 C.ar    1  UNL1        0.0403
     16 C           4.5548   -2.2866   18.9084 C.ar    1  UNL1        0.1754
     17 C           5.5487   -1.6739   17.9668 C.ar    1  UNL1        0.2061
     18 C           7.3715    1.0685   16.8962 C.3     1  UNL1        0.2526
     19 O           6.2369    0.2474   16.3590 O.3     1  UNL1       -0.4683
     20 O           4.8607   -3.5953   19.5746 O.3     1  UNL1       -0.4683
     21 C           4.4327   -4.8817   18.9327 C.3     1  UNL1        0.2526
     22 O           6.8487   -2.3700   17.6914 O.3     1  UNL1       -0.4654
     23 C           7.9776   -2.2663   18.6735 C.3     1  UNL1        0.2528
     24 N          -2.3085    3.1433   21.8105 N.pl3   1  UNL1       -0.3140
     25 H          -3.1243    2.6130   21.9604 H       1  UNL1        0.1485
     26 C          -1.6763    3.8853   22.9506 C.3     1  UNL1        0.1154
     27 C          -1.3191    3.1576   24.2127 C.ar    1  UNL1       -0.0026
     28 C          -0.2241    2.1326   24.2033 C.ar    1  UNL1       -0.0029
     29 C           0.1331    1.4050   25.4654 C.ar    1  UNL1       -0.0045
     30 C          -0.6048    1.7025   26.7371 C.ar    1  UNL1       -0.0219
     31 C          -0.2476    0.9748   27.9992 C.3     1  UNL1        0.0310
     32 C          -1.6999    2.7275   26.7466 C.ar    1  UNL1       -0.0045
     33 C          -2.0570    3.4551   25.4844 C.ar    1  UNL1       -0.0029
@<TRIPOS>BOND
     1    18    19    1
     2    19    12    1
     3    12    13   ar
     4    13    14   ar
     5    14    10    1
     6    10    11    2
     7    11     1    1
     8     1     2   ar
     9     2     3   ar
    10     3    24    1
    11    24    26    1
    12    26    27    1
    13    27    28   ar
    14    28    29   ar
    15    29    30   ar
    16    30    31    1
    17    30    32   ar
    18    32    33   ar
    19     3     4   ar
    20     4     5   ar
    21     5     6   ar
    22     6     7   ar
    23     7     8   ar
    24     8     9   ar
    25    14    15   ar
    26    15    16   ar
    27    16    20    1
    28    20    21    1
    29    16    17   ar
    30    17    22    1
    31    22    23    1
    32    17    12   ar
    33     9     1   ar
    34    33    27   ar
    35     8     4   ar
    36    24    25    1
@<TRIPOS>MOLECULE
*****
 33 36 0 0 0
SMALL
GASTEIGER

@<TRIPOS>ATOM
      1 C           3.7781   -1.3447   24.2854 C.ar    1  UNL1        0.1637
      2 N           4.8389   -2.3826   24.0680 N.ar    1  UNL1       -0.2116
      3 C           5.1192   -2.8904   22.6846 C.ar    1  UNL1        0.1378
      4 C           4.3387   -2.3601   21.5187 C.ar    1  UNL1        0.0785
      5 S           4.3918   -2.6685   20.0517 S.2     1  UNL1       -0.0821
      6 C           3.3638   -1.8211   19.3624 C.ar    1  UNL1        0.0371
      7 C           2.6753   -0.9890   20.4034 C.ar    1  UNL1        0.0267
      8 C           3.2778   -1.3221   21.7361 C.ar    1  UNL1        0.0921
      9 N           2.9976   -0.8145   23.1194 N.ar    1  UNL1       -0.2259
     10 C           4.0191   -1.5827   26.8613 C.2     1  UNL1        0.0033
     11 C           3.4978   -0.8370   25.6688 C.2     1  UNL1        0.0388
     12 C           2.0956   -0.0449   29.9734 C.ar    1  UNL1        0.1754
     13 C           2.3758   -0.5525   28.5900 C.ar    1  UNL1        0.0403
     14 C           3.7388   -1.0750   28.2446 C.ar    1  UNL1        0.0063
     15 C           4.8216   -1.0897   29.2827 C.ar    1  UNL1        0.0403
     16 C           4.5413   -0.5820   30.6660 C.ar    1  UNL1        0.1754
     17 C           3.1783   -0.0596   31.0114 C.ar    1  UNL1        0.2061
     18 C          -0.1930    0.9354   29.2308 C.3     1  UNL1        0.2526
     19 O           0.7325    0.4776   30.3188 O.3     1  UNL1       -0.4683
     20 O           5.6240   -0.5968   31.7041 O.3     1  UNL1       -0.4683
     21 C           5.7316   -1.7482   32.6593 C.3     1  UNL1        0.2526
     22 O           2.8980    0.4481   32.3948 O.3     1  UNL1       -0.4654
     23 C           2.9595    1.9193   32.6804 C.3     1  UNL1        0.2528
     24 N           6.1801   -3.9284   22.4673 N.pl3   1  UNL1       -0.3140
     25 H           6.1082   -4.5550   21.7114 H       1  UNL1        0.1485
     26 C           7.3505   -4.0116   23.4017 C.3     1  UNL1        0.1154
     27 C           7.4910   -5.1853   24.3251 C.ar    1  UNL1       -0.0026
     28 C           8.2145   -6.4171   23.8676 C.ar    1  UNL1       -0.0029
     29 C           8.3550   -7.5908   24.7910 C.ar    1  UNL1       -0.0045
     30 C           7.7720   -7.5328   26.1719 C.ar    1  UNL1       -0.0219
     31 C           7.9124   -8.7065   27.0953 C.3     1  UNL1        0.0310
     32 C           7.0485   -6.3010   26.6294 C.ar    1  UNL1       -0.0045
     33 C           6.9081   -5.1273   25.7059 C.ar    1  UNL1       -0.0029
@<TRIPOS>BOND
     1    18    19    1
     2    19    12    1
     3    12    13   ar
     4    13    14   ar
     5    14    10    1
     6    10    11    2
     7    11     1    1
     8     1     2   ar
     9     2     3   ar
    10     3    24    1
    11    24    26    1
    12    26    27    1
    13    27    28   ar
    14    28    29   ar
    15    29    30   ar
    16    30    31    1
    17    30    32   ar
    18    32    33   ar
    19     3     4   ar
    20     4     5   ar
    21     5     6   ar
    22     6     7   ar
    23     7     8   ar
    24     8     9   ar
    25    14    15   ar
    26    15    16   ar
    27    16    20    1
    28    20    21    1
    29    16    17   ar
    30    17    22    1
    31    22    23    1
    32    17    12   ar
    33     9     1   ar
    34    33    27   ar
    35     8     4   ar
    36    24    25    1
@<TRIPOS>MOLECULE
*****
 33 36 0 0 0
SMALL
GASTEIGER

@<TRIPOS>ATOM
      1 C          -0.3557    2.9234   19.0844 C.ar    1  UNL1        0.1637
      2 N          -1.3102    2.4748   20.1509 N.ar    1  UNL1       -0.2116
      3 C          -2.4942    3.3255   20.5040 C.ar    1  UNL1        0.1378
      4 C          -2.7235    4.6248   19.7903 C.ar    1  UNL1        0.0785
      5 S          -3.7946    5.6667   19.9219 S.2     1  UNL1       -0.0821
      6 C          -3.5019    6.7592   18.9367 C.ar    1  UNL1        0.0371
      7 C          -2.2500    6.3925   18.1961 C.ar    1  UNL1        0.0267
      8 C          -1.7690    5.0734   18.7238 C.ar    1  UNL1        0.0921
      9 N          -0.5850    4.2227   18.3708 N.ar    1  UNL1       -0.2259
     10 C           0.9690    0.7010   19.3220 C.2     1  UNL1        0.0033
     11 C           0.8283    2.0727   18.7314 C.2     1  UNL1        0.0388
     12 C           4.2525   -0.5865   17.5024 C.ar    1  UNL1        0.1754
     13 C           3.0686    0.2643   17.8553 C.ar    1  UNL1        0.0403
     14 C           2.1529   -0.1497   18.9690 C.ar    1  UNL1        0.0063
     15 C           2.4211   -1.4144   19.7296 C.ar    1  UNL1        0.0403
     16 C           3.6051   -2.2651   19.3766 C.ar    1  UNL1        0.1754
     17 C           4.5207   -1.8511   18.2630 C.ar    1  UNL1        0.2061
     18 C           6.2824    0.7960   16.6547 C.3     1  UNL1        0.2526
     19 O           5.1682   -0.1725   16.3887 O.3     1  UNL1       -0.4683
     20 O           3.8733   -3.5298   20.1373 O.3     1  UNL1       -0.4683
     21 C           3.4972   -4.8555   19.5448 C.3     1  UNL1        0.2526
     22 O           5.7047   -2.7019   17.9101 O.3     1  UNL1       -0.4654
     23 C           7.0575   -2.3733   18.4686 C.3     1  UNL1        0.2528
     24 N          -3.4487    2.8769   21.5706 N.pl3   1  UNL1       -0.3140
     25 H          -4.0121    2.0828   21.4247 H       1  UNL1        0.1485
     26 C          -3.5449    3.6382   22.8594 C.3     1  UNL1        0.1154
     27 C          -4.8755    4.1407   23.3360 C.ar    1  UNL1       -0.0026
     28 C          -6.1012    3.9290   22.4978 C.ar    1  UNL1       -0.0029
     29 C          -7.4318    4.4316   22.9744 C.ar    1  UNL1       -0.0045
     30 C          -7.5365    5.1458   24.2894 C.ar    1  UNL1       -0.0219
     31 C          -8.8671    5.6483   24.7660 C.3     1  UNL1        0.0310
     32 C          -6.3108    5.3574   25.1276 C.ar    1  UNL1       -0.0045
     33 C          -4.9802    4.8549   24.6509 C.ar    1  UNL1       -0.0029
@<TRIPOS>BOND
     1    18    19    1
     2    19    12    1
     3    12    13   ar
     4    13    14   ar
     5    14    10    1
     6    10    11    2
     7    11     1    1
     8     1     2   ar
     9     2     3   ar
    10     3    24    1
    11    24    26    1
    12    26    27    1
    13    27    28   ar
    14    28    29   ar
    15    29    30   ar
    16    30    31    1
    17    30    32   ar
    18    32    33   ar
    19     3     4   ar
    20     4     5   ar
    21     5     6   ar
    22     6     7   ar
    23     7     8   ar
    24     8     9   ar
    25    14    15   ar
    26    15    16   ar
    27    16    20    1
    28    20    21    1
    29    16    17   ar
    30    17    22    1
    31    22    23    1
    32    17    12   ar
    33     9     1   ar
    34    33    27   ar
    35     8     4   ar
    36    24    25    1
@<TRIPOS>MOLECULE
*****
 33 36 0 0 0
SMALL
GASTEIGER

@<TRIPOS>ATOM
      1 C           3.9502   -1.5183   24.0044 C.ar    1  UNL1        0.1637
      2 N           5.0479   -2.5169   23.7860 N.ar    1  UNL1       -0.2116
      3 C           5.4653   -2.8797   22.3917 C.ar    1  UNL1        0.1378
      4 C           4.7850   -2.2439   21.2158 C.ar    1  UNL1        0.0785
      5 S           4.9798   -2.4026   19.7370 S.2     1  UNL1       -0.0821
      6 C           4.0025   -1.5020   19.0414 C.ar    1  UNL1        0.0371
      7 C           3.2036   -0.7868   20.0903 C.ar    1  UNL1        0.0267
      8 C           3.6872   -1.2453   21.4342 C.ar    1  UNL1        0.0921
      9 N           3.2698   -0.8825   22.8285 N.ar    1  UNL1       -0.2259
     10 C           4.3803   -1.5662   26.5662 C.2     1  UNL1        0.0033
     11 C           3.5327   -1.1555   25.3988 C.2     1  UNL1        0.0388
     12 C           4.5407   -0.9015   30.4755 C.ar    1  UNL1        0.1754
     13 C           4.9582   -1.2643   29.0812 C.ar    1  UNL1        0.0403
     14 C           3.9629   -1.2034   27.9605 C.ar    1  UNL1        0.0063
     15 C           2.5503   -0.7796   28.2342 C.ar    1  UNL1        0.0403
     16 C           2.1329   -0.4168   29.6285 C.ar    1  UNL1        0.1754
     17 C           3.1281   -0.4778   30.7491 C.ar    1  UNL1        0.2061
     18 C           5.6161   -2.1844   32.4625 C.3     1  UNL1        0.2526
     19 O           5.5360   -0.9624   31.5961 O.3     1  UNL1       -0.4683
     20 O           0.7203    0.0069   29.9023 O.3     1  UNL1       -0.4683
     21 C          -0.3418   -0.2091   28.8653 C.3     1  UNL1        0.2526
     22 O           2.7107   -0.1150   32.1435 O.3     1  UNL1       -0.4654
     23 C           2.6752    1.3241   32.5652 C.3     1  UNL1        0.2528
     24 N           6.5631   -3.8784   22.1734 N.pl3   1  UNL1       -0.3140
     25 H           6.5522   -4.4554   21.3758 H       1  UNL1        0.1485
     26 C           7.6775   -3.9978   23.1703 C.3     1  UNL1        0.1154
     27 C           7.7092   -5.1547   24.1246 C.ar    1  UNL1       -0.0026
     28 C           8.3828   -6.4352   23.7289 C.ar    1  UNL1       -0.0029
     29 C           8.4144   -7.5920   24.6832 C.ar    1  UNL1       -0.0045
     30 C           7.7725   -7.4683   26.0333 C.ar    1  UNL1       -0.0219
     31 C           7.8041   -8.6252   26.9876 C.3     1  UNL1        0.0310
     32 C           7.0989   -6.1878   26.4290 C.ar    1  UNL1       -0.0045
     33 C           7.0673   -5.0310   25.4746 C.ar    1  UNL1       -0.0029
@<TRIPOS>BOND
     1    18    19    1
     2    19    12    1
     3    12    13   ar
     4    13    14   ar
     5    14    10    1
     6    10    11    2
     7    11     1    1
     8     1     2   ar
     9     2     3   ar
    10     3    24    1
    11    24    26    1
    12    26    27    1
    13    27    28   ar
    14    28    29   ar
    15    29    30   ar
    16    30    31    1
    17    30    32   ar
    18    32    33   ar
    19     3     4   ar
    20     4     5   ar
    21     5     6   ar
    22     6     7   ar
    23     7     8   ar
    24     8     9   ar
    25    14    15   ar
    26    15    16   ar
    27    16    20    1
    28    20    21    1
    29    16    17   ar
    30    17    22    1
    31    22    23    1
    32    17    12   ar
    33     9     1   ar
    34    33    27   ar
    35     8     4   ar
    36    24    25    1
@<TRIPOS>MOLECULE
*****
 33 36 0 0 0
SMALL
GASTEIGER

@<TRIPOS>ATOM
      1 C           1.4926    0.8265   24.3105 C.ar    1  UNL1        0.1637
      2 N           1.0655    1.5532   23.0699 N.ar    1  UNL1       -0.2116
      3 C          -0.0168    2.5893   23.1426 C.ar    1  UNL1        0.1378
      4 C          -0.6719    2.8986   24.4561 C.ar    1  UNL1        0.0785
      5 S          -1.7578    3.8619   24.8338 S.2     1  UNL1       -0.0821
      6 C          -2.0018    3.7304   26.3080 C.ar    1  UNL1        0.0371
      7 C          -1.0666    2.6859   26.8413 C.ar    1  UNL1        0.0267
      8 C          -0.2447    2.1718   25.6968 C.ar    1  UNL1        0.0921
      9 N           0.8376    1.1357   25.6240 N.ar    1  UNL1       -0.2259
     10 C           2.9037   -0.8599   22.9266 C.2     1  UNL1        0.0033
     11 C           2.5749   -0.2097   24.2378 C.2     1  UNL1        0.0388
     12 C           5.8484   -3.2894   24.0113 C.ar    1  UNL1        0.1754
     13 C           4.7662   -2.2533   24.0842 C.ar    1  UNL1        0.0403
     14 C           3.9860   -1.8959   22.8538 C.ar    1  UNL1        0.0063
     15 C           4.2880   -2.5747   21.5507 C.ar    1  UNL1        0.0403
     16 C           5.3703   -3.6108   21.4779 C.ar    1  UNL1        0.1754
     17 C           6.1504   -3.9681   22.7082 C.ar    1  UNL1        0.2061
     18 C           6.5139   -2.8002   26.4746 C.3     1  UNL1        0.2526
     19 O           6.6287   -3.6467   25.2416 O.3     1  UNL1       -0.4683
     20 O           5.6723   -4.2896   20.1749 O.3     1  UNL1       -0.4683
     21 C           4.5577   -4.6305   19.2307 C.3     1  UNL1        0.2526
     22 O           7.2327   -5.0042   22.6354 O.3     1  UNL1       -0.4654
     23 C           8.6542   -4.5884   22.3975 C.3     1  UNL1        0.2528
     24 N          -0.4440    3.3160   21.9018 N.pl3   1  UNL1       -0.3140
     25 H          -0.5310    4.2966   21.9110 H       1  UNL1        0.1485
     26 C          -0.7386    2.5487   20.6471 C.3     1  UNL1        0.1154
     27 C           0.3383    1.7310   19.9978 C.ar    1  UNL1       -0.0026
     28 C           0.3925    0.2488   20.2217 C.ar    1  UNL1       -0.0029
     29 C           1.4694   -0.5689   19.5724 C.ar    1  UNL1       -0.0045
     30 C           2.4922    0.0956   18.6992 C.ar    1  UNL1       -0.0219
     31 C           3.5692   -0.7221   18.0499 C.3     1  UNL1        0.0310
     32 C           2.4381    1.5778   18.4754 C.ar    1  UNL1       -0.0045
     33 C           1.3611    2.3955   19.1247 C.ar    1  UNL1       -0.0029
@<TRIPOS>BOND
     1    18    19    1
     2    19    12    1
     3    12    13   ar
     4    13    14   ar
     5    14    10    1
     6    10    11    2
     7    11     1    1
     8     1     2   ar
     9     2     3   ar
    10     3    24    1
    11    24    26    1
    12    26    27    1
    13    27    28   ar
    14    28    29   ar
    15    29    30   ar
    16    30    31    1
    17    30    32   ar
    18    32    33   ar
    19     3     4   ar
    20     4     5   ar
    21     5     6   ar
    22     6     7   ar
    23     7     8   ar
    24     8     9   ar
    25    14    15   ar
    26    15    16   ar
    27    16    20    1
    28    20    21    1
    29    16    17   ar
    30    17    22    1
    31    22    23    1
    32    17    12   ar
    33     9     1   ar
    34    33    27   ar
    35     8     4   ar
    36    24    25    1
@<TRIPOS>MOLECULE
*****
 33 36 0 0 0
SMALL
GASTEIGER

@<TRIPOS>ATOM
      1 C          -0.8112    2.5545   26.0600 C.ar    1  UNL1        0.1637
      2 N          -0.0377    1.6530   25.1441 N.ar    1  UNL1       -0.2116
      3 C           1.2301    1.0086   25.6209 C.ar    1  UNL1        0.1378
      4 C           1.7244    1.2657   27.0136 C.ar    1  UNL1        0.0785
      5 S           2.9310    0.7744   27.7571 S.2     1  UNL1       -0.0821
      6 C           2.9031    1.3724   29.1325 C.ar    1  UNL1        0.0371
      7 C           1.6793    2.2332   29.2390 C.ar    1  UNL1        0.0267
      8 C           0.9508    2.1673   27.9295 C.ar    1  UNL1        0.0921
      9 N          -0.3170    2.8117   27.4526 N.ar    1  UNL1       -0.2259
     10 C          -3.1717    3.5179   26.5602 C.2     1  UNL1        0.0033
     11 C          -2.0791    3.1990   25.5832 C.2     1  UNL1        0.0388
     12 C          -6.3756    5.8570   26.4437 C.ar    1  UNL1        0.1754
     13 C          -5.1078    5.2126   26.9205 C.ar    1  UNL1        0.0403
     14 C          -4.4395    4.1623   26.0835 C.ar    1  UNL1        0.0063
     15 C          -5.0392    3.7566   24.7698 C.ar    1  UNL1        0.0403
     16 C          -6.3070    4.4010   24.2931 C.ar    1  UNL1        0.1754
     17 C          -6.9752    5.4512   25.1301 C.ar    1  UNL1        0.2061
     18 C          -7.5705    6.5589   28.6414 C.3     1  UNL1        0.2526
     19 O          -7.0439    6.9072   27.2807 O.3     1  UNL1       -0.4683
     20 O          -6.9066    3.9953   22.9794 O.3     1  UNL1       -0.4683
     21 C          -6.2539    4.4145   21.6956 C.3     1  UNL1        0.2526
     22 O          -8.2431    6.0957   24.6533 O.3     1  UNL1       -0.4654
     23 C          -8.1867    7.2137   23.6549 C.3     1  UNL1        0.2528
     24 N           2.0037    0.1070   24.7050 N.pl3   1  UNL1       -0.3140
     25 H           2.2899   -0.7822   25.0158 H       1  UNL1        0.1485
     26 C           2.3411    0.5603   23.3155 C.3     1  UNL1        0.1154
     27 C           2.7245   -0.4456   22.2709 C.ar    1  UNL1       -0.0026
     28 C           3.7927   -1.4580   22.5608 C.ar    1  UNL1       -0.0029
     29 C           4.1761   -2.4639   21.5162 C.ar    1  UNL1       -0.0045
     30 C           3.4912   -2.4574   20.1816 C.ar    1  UNL1       -0.0219
     31 C           3.8746   -3.4632   19.1370 C.3     1  UNL1        0.0310
     32 C           2.4231   -1.4450   19.8917 C.ar    1  UNL1       -0.0045
     33 C           2.0397   -0.4391   20.9364 C.ar    1  UNL1       -0.0029
@<TRIPOS>BOND
     1    18    19    1
     2    19    12    1
     3    12    13   ar
     4    13    14   ar
     5    14    10    1
     6    10    11    2
     7    11     1    1
     8     1     2   ar
     9     2     3   ar
    10     3    24    1
    11    24    26    1
    12    26    27    1
    13    27    28   ar
    14    28    29   ar
    15    29    30   ar
    16    30    31    1
    17    30    32   ar
    18    32    33   ar
    19     3     4   ar
    20     4     5   ar
    21     5     6   ar
    22     6     7   ar
    23     7     8   ar
    24     8     9   ar
    25    14    15   ar
    26    15    16   ar
    27    16    20    1
    28    20    21    1
    29    16    17   ar
    30    17    22    1
    31    22    23    1
    32    17    12   ar
    33     9     1   ar
    34    33    27   ar
    35     8     4   ar
    36    24    25    1
