@<TRIPOS>MOLECULE
*****
 35 39 0 0 0
SMALL
GASTEIGER

@<TRIPOS>ATOM
      1 C          -2.1678    3.9857   22.7723 C.ar    1  UNL1        0.0682
      2 C          -3.0675    4.0465   21.5736 C.ar    1  UNL1        0.0241
      3 C          -4.5278    3.7339   21.7152 C.ar    1  UNL1        0.1060
      4 C          -5.0883    3.3606   23.0554 C.ar    1  UNL1        0.0196
      5 C          -4.1887    3.2998   24.2542 C.ar    1  UNL1        0.0160
      6 C          -2.7285    3.6124   24.1126 C.ar    1  UNL1        0.0523
      7 N           3.0321    0.2815   19.9306 N.ar    1  UNL1       -0.2286
      8 C           3.4288    1.6127   20.4968 C.ar    1  UNL1        0.0990
      9 C           2.1991    2.2622   21.0590 C.ar    1  UNL1        0.0338
     10 C           1.0425    1.3325   20.8402 C.ar    1  UNL1        0.0981
     11 N           1.5573    0.1083   20.1428 N.ar    1  UNL1       -0.1680
     12 C          -0.1872    1.9820   21.4023 C.3     1  UNL1        0.1414
     13 N           0.2094    3.3133   21.9686 N.am    1  UNL1       -0.2661
     14 C          -0.7076    4.2983   22.6307 C.2     1  UNL1        0.2508
     15 O          -0.1646    5.5961   23.1513 O.2     1  UNL1       -0.2698
     16 C           1.6843    3.4864   21.7563 C.3     1  UNL1        0.1236
     17 C           4.3232   -4.6305   18.8327 C.3     1  UNL1        0.0521
     18 C           4.5948   -3.1597   18.7195 C.ar    1  UNL1        0.0609
     19 C           3.6777   -2.1745   19.3816 C.ar    1  UNL1        0.0339
     20 C           3.9492   -0.7036   19.2685 C.ar    1  UNL1        0.0855
     21 C           5.1379   -0.2179   18.4931 C.ar    1  UNL1        0.0398
     22 C           6.0550   -1.2031   17.8310 C.ar    1  UNL1        0.1000
     23 N           5.7834   -2.6739   17.9441 N.ar    1  UNL1       -0.2480
     24 N          -1.8288    3.5516   25.3113 N.pl3   1  UNL1       -0.3070
     25 C          -1.0394    2.3079   25.5943 C.3     1  UNL1        0.0964
     26 C          -0.1397    2.2472   26.7930 C.3     1  UNL1        0.0880
     27 C          -0.0295    3.4301   27.7087 C.3     1  UNL1        0.2672
     28 F           0.4077    4.2840   28.8618 F       1  UNL1       -0.2042
     29 F           0.9118    2.4830   28.3922 F       1  UNL1       -0.2042
     30 C          -0.8189    4.6738   27.4258 C.3     1  UNL1        0.0880
     31 C          -1.7186    4.7346   26.2271 C.3     1  UNL1        0.0964
     32 S          -5.4274    3.7947   20.5164 S.O2    1  UNL1        0.0105
     33 C          -6.3268    3.8555   19.3175 C.3     1  UNL1        0.1816
     34 O          -4.2903    3.3574   19.6411 O.2     1  UNL1       -0.1686
     35 O          -6.5644    4.2320   21.3916 O.2     1  UNL1       -0.1686
@<TRIPOS>BOND
     1    17    18    1
     2    18    19   ar
     3    19    20   ar
     4    20     7    1
     5     7     8   ar
     6     8     9   ar
     7     9    10   ar
     8    10    11   ar
     9    10    12    1
    10    12    13    1
    11    13    14   am
    12    14    15    2
    13    14     1    1
    14     1     2   ar
    15     2     3   ar
    16     3    32    1
    17    32    33    1
    18    32    34    2
    19    32    35    2
    20     3     4   ar
    21     4     5   ar
    22     5     6   ar
    23     6    24    1
    24    24    25    1
    25    25    26    1
    26    26    27    1
    27    27    28    1
    28    27    29    1
    29    27    30    1
    30    30    31    1
    31    13    16    1
    32    20    21   ar
    33    21    22   ar
    34    22    23   ar
    35    23    18   ar
    36    11     7   ar
    37     6     1   ar
    38    31    24    1
    39    16     9    1
@<TRIPOS>MOLECULE
*****
 35 39 0 0 0
SMALL
GASTEIGER

@<TRIPOS>ATOM
      1 C           3.6351    1.4680   18.7637 C.ar    1  UNL1        0.0682
      2 C           3.8540    2.8457   18.2123 C.ar    1  UNL1        0.0241
      3 C           5.1993    3.2328   17.6731 C.ar    1  UNL1        0.1060
      4 C           6.3255    2.2422   17.6855 C.ar    1  UNL1        0.0196
      5 C           6.1066    0.8644   18.2369 C.ar    1  UNL1        0.0160
      6 C           4.7614    0.4774   18.7760 C.ar    1  UNL1        0.0523
      7 N           1.1601    1.5066   25.2989 N.ar    1  UNL1       -0.2286
      8 C           0.1956    1.0350   24.2513 C.ar    1  UNL1        0.0990
      9 C           0.8897    1.0925   22.9228 C.ar    1  UNL1        0.0338
     10 C           2.2831    1.5996   23.1493 C.ar    1  UNL1        0.0981
     11 N           2.4502    1.8555   24.6178 N.ar    1  UNL1       -0.1680
     12 C           2.9772    1.6570   21.8208 C.3     1  UNL1        0.1414
     13 N           2.0128    1.1854   20.7731 N.am    1  UNL1       -0.2661
     14 C           2.2899    1.0811   19.3027 C.2     1  UNL1        0.2508
     15 O           1.2217    0.5897   18.3712 O.2     1  UNL1       -0.2698
     16 C           0.7227    0.8365   21.4543 C.3     1  UNL1        0.1236
     17 C          -1.7177    0.2427   29.4366 C.3     1  UNL1        0.0521
     18 C          -0.5559    0.9790   28.8383 C.ar    1  UNL1        0.0609
     19 C          -0.2788    0.8747   27.3678 C.ar    1  UNL1        0.0339
     20 C           0.8830    1.6110   26.7694 C.ar    1  UNL1        0.0855
     21 C           1.7677    2.4516   27.6414 C.ar    1  UNL1        0.0398
     22 C           1.4906    2.5559   29.1120 C.ar    1  UNL1        0.1000
     23 N           0.3288    1.8197   29.7104 N.ar    1  UNL1       -0.2480
     24 N           4.5424   -0.9002   19.3274 N.pl3   1  UNL1       -0.3070
     25 C           4.0025   -1.9850   18.4431 C.3     1  UNL1        0.0964
     26 C           3.7836   -3.3626   18.9946 C.3     1  UNL1        0.0880
     27 C           4.1045   -3.6556   20.4302 C.3     1  UNL1        0.2672
     28 F           4.2563   -4.4172   21.7136 F       1  UNL1       -0.2042
     29 F           3.6173   -5.0048   19.9917 F       1  UNL1       -0.2042
     30 C           4.6444   -2.5710   21.3145 C.3     1  UNL1        0.0880
     31 C           4.8634   -1.1932   20.7631 C.3     1  UNL1        0.0964
     32 S           5.4182    4.6105   17.1217 S.O2    1  UNL1        0.0105
     33 C           5.6369    5.9882   16.5704 C.3     1  UNL1        0.1816
     34 O           3.9343    4.8051   17.0194 O.2     1  UNL1       -0.1686
     35 O           6.9020    4.4159   17.2240 O.2     1  UNL1       -0.1686
@<TRIPOS>BOND
     1    17    18    1
     2    18    19   ar
     3    19    20   ar
     4    20     7    1
     5     7     8   ar
     6     8     9   ar
     7     9    10   ar
     8    10    11   ar
     9    10    12    1
    10    12    13    1
    11    13    14   am
    12    14    15    2
    13    14     1    1
    14     1     2   ar
    15     2     3   ar
    16     3    32    1
    17    32    33    1
    18    32    34    2
    19    32    35    2
    20     3     4   ar
    21     4     5   ar
    22     5     6   ar
    23     6    24    1
    24    24    25    1
    25    25    26    1
    26    26    27    1
    27    27    28    1
    28    27    29    1
    29    27    30    1
    30    30    31    1
    31    13    16    1
    32    20    21   ar
    33    21    22   ar
    34    22    23   ar
    35    23    18   ar
    36    11     7   ar
    37     6     1   ar
    38    31    24    1
    39    16     9    1
@<TRIPOS>MOLECULE
*****
 35 39 0 0 0
SMALL
GASTEIGER

@<TRIPOS>ATOM
      1 C           5.6681   -1.2753   21.1830 C.ar    1  UNL1        0.0682
      2 C           6.8763   -2.0981   21.5192 C.ar    1  UNL1        0.0241
      3 C           7.0329   -3.4726   20.9391 C.ar    1  UNL1        0.1060
      4 C           5.9812   -4.0242   20.0228 C.ar    1  UNL1        0.0196
      5 C           4.7729   -3.2013   19.6865 C.ar    1  UNL1        0.0160
      6 C           4.6164   -1.8270   20.2667 C.ar    1  UNL1        0.0523
      7 N           2.9907    0.8172   27.2895 N.ar    1  UNL1       -0.2286
      8 C           3.4966    1.9153   26.4018 C.ar    1  UNL1        0.0990
      9 C           4.0301    1.2888   25.1477 C.ar    1  UNL1        0.0338
     10 C           3.8539   -0.1965   25.2603 C.ar    1  UNL1        0.0981
     11 N           3.2115   -0.4880   26.5840 N.ar    1  UNL1       -0.1680
     12 C           4.3874   -0.8230   24.0062 C.3     1  UNL1        0.1414
     13 N           4.8934    0.2752   23.1184 N.am    1  UNL1       -0.2661
     14 C           5.5116    0.0991   21.7631 C.2     1  UNL1        0.2508
     15 O           5.9733    1.2974   20.9879 O.2     1  UNL1       -0.2698
     16 C           4.6725    1.5803   23.8239 C.3     1  UNL1        0.1236
     17 C           3.2880    0.3970   32.4601 C.3     1  UNL1        0.0521
     18 C           2.5211    0.7832   31.2302 C.ar    1  UNL1        0.0609
     19 C           3.1393    0.6071   29.8748 C.ar    1  UNL1        0.0339
     20 C           2.3725    0.9933   28.6448 C.ar    1  UNL1        0.0855
     21 C           0.9875    1.5555   28.7701 C.ar    1  UNL1        0.0398
     22 C           0.3694    1.7315   30.1255 C.ar    1  UNL1        0.1000
     23 N           1.1362    1.3454   31.3555 N.ar    1  UNL1       -0.2480
     24 N           3.4081   -1.0041   19.9305 N.pl3   1  UNL1       -0.3070
     25 C           2.2388   -0.9703   20.8694 C.3     1  UNL1        0.0964
     26 C           1.0305   -0.1475   20.5332 C.3     1  UNL1        0.0880
     27 C           0.9916    0.6415   19.2581 C.3     1  UNL1        0.2672
     28 F           0.4854    1.5521   18.1789 F       1  UNL1       -0.2042
     29 F          -0.3535    0.9916   19.8222 F       1  UNL1       -0.2042
     30 C           2.1608    0.6077   18.3191 C.3     1  UNL1        0.0880
     31 C           3.3691   -0.2151   18.6552 C.3     1  UNL1        0.0964
     32 S           8.2412   -4.2953   21.2754 S.O2    1  UNL1        0.0105
     33 C           9.4495   -5.1181   21.6117 C.3     1  UNL1        0.1816
     34 O           7.4424   -5.0515   22.2953 O.2     1  UNL1       -0.1686
     35 O           9.0400   -3.5393   20.2555 O.2     1  UNL1       -0.1686
@<TRIPOS>BOND
     1    17    18    1
     2    18    19   ar
     3    19    20   ar
     4    20     7    1
     5     7     8   ar
     6     8     9   ar
     7     9    10   ar
     8    10    11   ar
     9    10    12    1
    10    12    13    1
    11    13    14   am
    12    14    15    2
    13    14     1    1
    14     1     2   ar
    15     2     3   ar
    16     3    32    1
    17    32    33    1
    18    32    34    2
    19    32    35    2
    20     3     4   ar
    21     4     5   ar
    22     5     6   ar
    23     6    24    1
    24    24    25    1
    25    25    26    1
    26    26    27    1
    27    27    28    1
    28    27    29    1
    29    27    30    1
    30    30    31    1
    31    13    16    1
    32    20    21   ar
    33    21    22   ar
    34    22    23   ar
    35    23    18   ar
    36    11     7   ar
    37     6     1   ar
    38    31    24    1
    39    16     9    1
@<TRIPOS>MOLECULE
*****
 35 39 0 0 0
SMALL
GASTEIGER

@<TRIPOS>ATOM
      1 C           2.6275    1.1034   21.4660 C.ar    1  UNL1        0.0682
      2 C           1.6228    2.0956   21.9719 C.ar    1  UNL1        0.0241
      3 C           0.2103    2.0560   21.4683 C.ar    1  UNL1        0.1060
      4 C          -0.1974    1.0242   20.4589 C.ar    1  UNL1        0.0196
      5 C           0.8073    0.0319   19.9530 C.ar    1  UNL1        0.0160
      6 C           2.2197    0.0715   20.4565 C.ar    1  UNL1        0.0523
      7 N           5.5026   -1.6723   27.1988 N.ar    1  UNL1       -0.2286
      8 C           6.4436   -0.9070   26.3164 C.ar    1  UNL1        0.0990
      9 C           5.6625   -0.3877   25.1459 C.ar    1  UNL1        0.0338
     10 C           4.2387   -0.8321   25.3049 C.ar    1  UNL1        0.0981
     11 N           4.1398   -1.6261   26.5737 N.ar    1  UNL1       -0.1680
     12 C           3.4575   -0.3128   24.1344 C.3     1  UNL1        0.1414
     13 N           4.3986    0.4526   23.2519 N.am    1  UNL1       -0.2661
     14 C           4.0399    1.1430   21.9695 C.2     1  UNL1        0.2508
     15 O           5.0936    1.8731   21.1905 O.2     1  UNL1       -0.2698
     16 C           5.7613    0.4062   23.8771 C.3     1  UNL1        0.1236
     17 C           7.2431   -5.8730   29.7139 C.3     1  UNL1        0.0521
     18 C           6.7316   -4.4632   29.7388 C.ar    1  UNL1        0.0609
     19 C           6.3728   -3.7726   28.4564 C.ar    1  UNL1        0.0339
     20 C           5.8613   -2.3628   28.4813 C.ar    1  UNL1        0.0855
     21 C           5.7084   -1.6434   29.7886 C.ar    1  UNL1        0.0398
     22 C           6.0671   -2.3339   31.0710 C.ar    1  UNL1        0.1000
     23 N           6.5787   -3.7438   31.0461 N.ar    1  UNL1       -0.2480
     24 N           3.2244   -0.9208   19.9506 N.pl3   1  UNL1       -0.3070
     25 C           3.9514   -0.6626   18.6642 C.3     1  UNL1        0.0964
     26 C           4.9561   -1.6549   18.1582 C.3     1  UNL1        0.0880
     27 C           5.2338   -2.9053   18.9387 C.3     1  UNL1        0.2672
     28 F           5.8368   -4.2253   19.3182 F       1  UNL1       -0.2042
     29 F           6.1702   -3.1056   17.7841 F       1  UNL1       -0.2042
     30 C           4.5070   -3.1636   20.2251 C.3     1  UNL1        0.0880
     31 C           3.5022   -2.1713   20.7311 C.3     1  UNL1        0.0964
     32 S          -0.7943    3.0483   21.9743 S.O2    1  UNL1        0.0105
     33 C          -1.7990    4.0406   22.4802 C.3     1  UNL1        0.1816
     34 O          -1.7584    2.6149   20.9100 O.2     1  UNL1       -0.1686
     35 O           0.1697    3.4818   23.0387 O.2     1  UNL1       -0.1686
@<TRIPOS>BOND
     1    17    18    1
     2    18    19   ar
     3    19    20   ar
     4    20     7    1
     5     7     8   ar
     6     8     9   ar
     7     9    10   ar
     8    10    11   ar
     9    10    12    1
    10    12    13    1
    11    13    14   am
    12    14    15    2
    13    14     1    1
    14     1     2   ar
    15     2     3   ar
    16     3    32    1
    17    32    33    1
    18    32    34    2
    19    32    35    2
    20     3     4   ar
    21     4     5   ar
    22     5     6   ar
    23     6    24    1
    24    24    25    1
    25    25    26    1
    26    26    27    1
    27    27    28    1
    28    27    29    1
    29    27    30    1
    30    30    31    1
    31    13    16    1
    32    20    21   ar
    33    21    22   ar
    34    22    23   ar
    35    23    18   ar
    36    11     7   ar
    37     6     1   ar
    38    31    24    1
    39    16     9    1
@<TRIPOS>MOLECULE
*****
 35 39 0 0 0
SMALL
GASTEIGER

@<TRIPOS>ATOM
      1 C           6.7413   -1.6424   30.4440 C.ar    1  UNL1        0.0682
      2 C           6.1276   -0.3921   31.0011 C.ar    1  UNL1        0.0241
      3 C           5.3280   -0.4497   32.2690 C.ar    1  UNL1        0.1060
      4 C           5.1420   -1.7575   32.9796 C.ar    1  UNL1        0.0196
      5 C           5.7557   -3.0078   32.4225 C.ar    1  UNL1        0.0160
      6 C           6.5553   -2.9502   31.1548 C.ar    1  UNL1        0.0523
      7 N           4.6968   -1.6372   23.7615 N.ar    1  UNL1       -0.2286
      8 C           6.1796   -1.5698   23.9779 C.ar    1  UNL1        0.0990
      9 C           6.4331   -1.5805   25.4563 C.ar    1  UNL1        0.0338
     10 C           5.1071   -1.6544   26.1536 C.ar    1  UNL1        0.0981
     11 N           4.0339   -1.6895   25.1061 N.ar    1  UNL1       -0.1680
     12 C           5.3606   -1.6650   27.6319 C.3     1  UNL1        0.1414
     13 N           6.8434   -1.5976   27.8484 N.am    1  UNL1       -0.2661
     14 C           7.5409   -1.5848   29.1762 C.2     1  UNL1        0.2508
     15 O           9.0381   -1.5143   29.2364 O.2     1  UNL1       -0.2698
     16 C           7.5062   -1.5454   26.5038 C.3     1  UNL1        0.1236
     17 C           4.0231   -3.7280   19.0525 C.3     1  UNL1        0.0521
     18 C           3.6624   -2.6955   20.0790 C.ar    1  UNL1        0.0609
     19 C           4.3599   -2.6826   21.4070 C.ar    1  UNL1        0.0339
     20 C           3.9993   -1.6501   22.4336 C.ar    1  UNL1        0.0855
     21 C           2.9411   -0.6306   22.1323 C.ar    1  UNL1        0.0398
     22 C           2.2436   -0.6435   20.8044 C.ar    1  UNL1        0.1000
     23 N           2.6043   -1.6760   19.7777 N.ar    1  UNL1       -0.2480
     24 N           7.1689   -4.2004   30.5976 N.pl3   1  UNL1       -0.3070
     25 C           8.3771   -4.7997   31.2541 C.3     1  UNL1        0.0964
     26 C           8.9908   -6.0499   30.6970 C.3     1  UNL1        0.0880
     27 C           8.3962   -6.7008   29.4834 C.3     1  UNL1        0.2672
     28 F           8.1973   -7.6777   28.3626 F       1  UNL1       -0.2042
     29 F           9.5353   -7.6394   29.7506 F       1  UNL1       -0.2042
     30 C           7.1880   -6.1016   28.8269 C.3     1  UNL1        0.0880
     31 C           6.5743   -4.8513   29.3840 C.3     1  UNL1        0.0964
     32 S           4.7144    0.8006   32.8260 S.O2    1  UNL1        0.0105
     33 C           4.1009    2.0509   33.3830 C.3     1  UNL1        0.1816
     34 O           5.7862    1.6191   32.1692 O.2     1  UNL1       -0.1686
     35 O           3.6426   -0.0179   33.4829 O.2     1  UNL1       -0.1686
@<TRIPOS>BOND
     1    17    18    1
     2    18    19   ar
     3    19    20   ar
     4    20     7    1
     5     7     8   ar
     6     8     9   ar
     7     9    10   ar
     8    10    11   ar
     9    10    12    1
    10    12    13    1
    11    13    14   am
    12    14    15    2
    13    14     1    1
    14     1     2   ar
    15     2     3   ar
    16     3    32    1
    17    32    33    1
    18    32    34    2
    19    32    35    2
    20     3     4   ar
    21     4     5   ar
    22     5     6   ar
    23     6    24    1
    24    24    25    1
    25    25    26    1
    26    26    27    1
    27    27    28    1
    28    27    29    1
    29    27    30    1
    30    30    31    1
    31    13    16    1
    32    20    21   ar
    33    21    22   ar
    34    22    23   ar
    35    23    18   ar
    36    11     7   ar
    37     6     1   ar
    38    31    24    1
    39    16     9    1
@<TRIPOS>MOLECULE
*****
 35 39 0 0 0
SMALL
GASTEIGER

@<TRIPOS>ATOM
      1 C           5.7390   -1.1616   30.5275 C.ar    1  UNL1        0.0682
      2 C           6.8293   -2.1893   30.4560 C.ar    1  UNL1        0.0241
      3 C           6.8528   -3.3271   31.4333 C.ar    1  UNL1        0.1060
      4 C           5.7861   -3.4371   32.4820 C.ar    1  UNL1        0.0196
      5 C           4.6957   -2.4094   32.5535 C.ar    1  UNL1        0.0160
      6 C           4.6722   -1.2717   31.5763 C.ar    1  UNL1        0.0523
      7 N           4.0258   -1.0052   23.7542 N.ar    1  UNL1       -0.2286
      8 C           4.4410    0.3115   24.3407 C.ar    1  UNL1        0.0990
      9 C           4.7695    0.0914   25.7876 C.ar    1  UNL1        0.0338
     10 C           4.5574   -1.3612   26.0954 C.ar    1  UNL1        0.0981
     11 N           4.0978   -2.0390   24.8387 N.ar    1  UNL1       -0.1680
     12 C           4.8859   -1.5813   27.5424 C.3     1  UNL1        0.1414
     13 N           5.3011   -0.2645   28.1289 N.am    1  UNL1       -0.2661
     14 C           5.7155   -0.0239   29.5502 C.2     1  UNL1        0.2508
     15 O           6.1064    1.3545   29.9944 O.2     1  UNL1       -0.2698
     16 C           5.2292    0.7692   27.0443 C.3     1  UNL1        0.1236
     17 C           0.9110    0.0583   19.7334 C.3     1  UNL1        0.0521
     18 C           2.0540   -0.7141   20.3224 C.ar    1  UNL1        0.0609
     19 C           2.4685   -0.4735   21.7438 C.ar    1  UNL1        0.0339
     20 C           3.6114   -1.2459   22.3328 C.ar    1  UNL1        0.0855
     21 C           4.3400   -2.2590   21.5005 C.ar    1  UNL1        0.0398
     22 C           3.9256   -2.4996   20.0791 C.ar    1  UNL1        0.1000
     23 N           2.7826   -1.7272   19.4900 N.ar    1  UNL1       -0.2480
     24 N           3.5819   -0.2440   31.6477 N.pl3   1  UNL1       -0.3070
     25 C           3.5015    0.6836   32.8238 C.3     1  UNL1        0.0964
     26 C           2.4112    1.7113   32.8953 C.3     1  UNL1        0.0880
     27 C           1.4014    1.8114   31.7907 C.3     1  UNL1        0.2672
     28 F           0.2212    2.2916   30.9991 F       1  UNL1       -0.2042
     29 F           0.9110    2.9057   32.6918 F       1  UNL1       -0.2042
     30 C           1.4817    0.8839   30.6146 C.3     1  UNL1        0.0880
     31 C           2.5720   -0.1439   30.5431 C.3     1  UNL1        0.0964
     32 S           7.9431   -4.3547   31.3617 S.O2    1  UNL1        0.0105
     33 C           9.0336   -5.3822   31.2902 C.3     1  UNL1        0.1816
     34 O           8.8991   -3.3840   31.9895 O.2     1  UNL1       -0.1686
     35 O           6.9873   -5.3254   30.7340 O.2     1  UNL1       -0.1686
@<TRIPOS>BOND
     1    17    18    1
     2    18    19   ar
     3    19    20   ar
     4    20     7    1
     5     7     8   ar
     6     8     9   ar
     7     9    10   ar
     8    10    11   ar
     9    10    12    1
    10    12    13    1
    11    13    14   am
    12    14    15    2
    13    14     1    1
    14     1     2   ar
    15     2     3   ar
    16     3    32    1
    17    32    33    1
    18    32    34    2
    19    32    35    2
    20     3     4   ar
    21     4     5   ar
    22     5     6   ar
    23     6    24    1
    24    24    25    1
    25    25    26    1
    26    26    27    1
    27    27    28    1
    28    27    29    1
    29    27    30    1
    30    30    31    1
    31    13    16    1
    32    20    21   ar
    33    21    22   ar
    34    22    23   ar
    35    23    18   ar
    36    11     7   ar
    37     6     1   ar
    38    31    24    1
    39    16     9    1
@<TRIPOS>MOLECULE
*****
 35 39 0 0 0
SMALL
GASTEIGER

@<TRIPOS>ATOM
      1 C           0.8930    2.2367   26.9167 C.ar    1  UNL1        0.0682
      2 C           1.7513    1.4341   27.8490 C.ar    1  UNL1        0.0241
      3 C           1.1308    0.7238   29.0155 C.ar    1  UNL1        0.1060
      4 C          -0.3478    0.8161   29.2496 C.ar    1  UNL1        0.0196
      5 C          -1.2062    1.6187   28.3173 C.ar    1  UNL1        0.0160
      6 C          -0.5857    2.3290   27.1509 C.ar    1  UNL1        0.0523
      7 N           3.8470   -0.2690   21.1002 N.ar    1  UNL1       -0.2286
      8 C           3.8230    1.2265   21.2135 C.ar    1  UNL1        0.0990
      9 C           3.1594    1.5824   22.5108 C.ar    1  UNL1        0.0338
     10 C           2.7734    0.3068   23.1993 C.ar    1  UNL1        0.0981
     11 N           3.1984   -0.8374   22.3275 N.ar    1  UNL1       -0.1680
     12 C           2.1098    0.6627   24.4966 C.3     1  UNL1        0.1414
     13 N           2.0857    2.1583   24.6100 N.am    1  UNL1       -0.2661
     14 C           1.5135    2.9470   25.7503 C.2     1  UNL1        0.2508
     15 O           1.5616    4.4460   25.7243 O.2     1  UNL1       -0.2698
     16 C           2.7344    2.7266   23.3827 C.3     1  UNL1        0.1236
     17 C           4.5971   -4.8183   18.7040 C.3     1  UNL1        0.0521
     18 C           4.7944   -3.3324   18.7617 C.ar    1  UNL1        0.0609
     19 C           4.2221   -2.5436   19.9020 C.ar    1  UNL1        0.0339
     20 C           4.4193   -1.0578   19.9599 C.ar    1  UNL1        0.0855
     21 C           5.1888   -0.3606   18.8773 C.ar    1  UNL1        0.0398
     22 C           5.7610   -1.1495   17.7370 C.ar    1  UNL1        0.1000
     23 N           5.5638   -2.6353   17.6791 N.ar    1  UNL1       -0.2480
     24 N          -1.4440    3.1316   26.2186 N.pl3   1  UNL1       -0.3070
     25 C          -1.6074    2.7006   24.7912 C.3     1  UNL1        0.0964
     26 C          -2.4657    3.5032   23.8589 C.3     1  UNL1        0.0880
     27 C          -3.1606    4.7368   24.3541 C.3     1  UNL1        0.2672
     28 F          -4.0154    5.9694   24.3533 F       1  UNL1       -0.2042
     29 F          -3.6208    4.7339   22.9264 F       1  UNL1       -0.2042
     30 C          -2.9973    5.1679   25.7814 C.3     1  UNL1        0.0880
     31 C          -2.1390    4.3653   26.7138 C.3     1  UNL1        0.0964
     32 S           1.9892   -0.0788   29.9477 S.O2    1  UNL1        0.0105
     33 C           2.8476   -0.8815   30.8798 C.3     1  UNL1        0.1816
     34 O           2.3981   -0.9647   28.8083 O.2     1  UNL1       -0.1686
     35 O           1.5804    0.8070   31.0870 O.2     1  UNL1       -0.1686
@<TRIPOS>BOND
     1    17    18    1
     2    18    19   ar
     3    19    20   ar
     4    20     7    1
     5     7     8   ar
     6     8     9   ar
     7     9    10   ar
     8    10    11   ar
     9    10    12    1
    10    12    13    1
    11    13    14   am
    12    14    15    2
    13    14     1    1
    14     1     2   ar
    15     2     3   ar
    16     3    32    1
    17    32    33    1
    18    32    34    2
    19    32    35    2
    20     3     4   ar
    21     4     5   ar
    22     5     6   ar
    23     6    24    1
    24    24    25    1
    25    25    26    1
    26    26    27    1
    27    27    28    1
    28    27    29    1
    29    27    30    1
    30    30    31    1
    31    13    16    1
    32    20    21   ar
    33    21    22   ar
    34    22    23   ar
    35    23    18   ar
    36    11     7   ar
    37     6     1   ar
    38    31    24    1
    39    16     9    1
@<TRIPOS>MOLECULE
*****
 35 39 0 0 0
SMALL
GASTEIGER

@<TRIPOS>ATOM
      1 C           2.8652    0.2491   19.7361 C.ar    1  UNL1        0.0682
      2 C           3.0748   -1.2307   19.6081 C.ar    1  UNL1        0.0241
      3 C           4.2868   -1.7580   18.8988 C.ar    1  UNL1        0.1060
      4 C           5.2892   -0.8055   18.3174 C.ar    1  UNL1        0.0196
      5 C           5.0796    0.6743   18.4454 C.ar    1  UNL1        0.0160
      6 C           3.8677    1.2015   19.1547 C.ar    1  UNL1        0.0523
      7 N           1.5108    0.9256   26.5584 N.ar    1  UNL1       -0.2286
      8 C           0.4154    1.3796   25.6396 C.ar    1  UNL1        0.0990
      9 C           0.8749    1.1631   24.2282 C.ar    1  UNL1        0.0338
     10 C           2.2542    0.5754   24.2747 C.ar    1  UNL1        0.0981
     11 N           2.6472    0.4287   25.7149 N.ar    1  UNL1       -0.1680
     12 C           2.7137    0.3590   22.8633 C.3     1  UNL1        0.1414
     13 N           1.6183    0.8129   21.9445 N.am    1  UNL1       -0.2661
     14 C           1.6533    0.7763   20.4454 C.2     1  UNL1        0.2508
     15 O           0.4762    1.2670   19.6555 O.2     1  UNL1       -0.2698
     16 C           0.4819    1.3099   22.7881 C.3     1  UNL1        0.1236
     17 C           3.2021   -0.8399   31.1434 C.3     1  UNL1        0.0521
     18 C           2.3216    0.0795   30.3501 C.ar    1  UNL1        0.0609
     19 C           2.3564    0.0429   28.8509 C.ar    1  UNL1        0.0339
     20 C           1.4759    0.9622   28.0576 C.ar    1  UNL1        0.0855
     21 C           0.5604    1.9181   28.7633 C.ar    1  UNL1        0.0398
     22 C           0.5255    1.9547   30.2625 C.ar    1  UNL1        0.1000
     23 N           1.4061    1.0354   31.0559 N.ar    1  UNL1       -0.2480
     24 N           3.6581    2.6813   19.2826 N.pl3   1  UNL1       -0.3070
     25 C           2.9344    3.4323   18.2045 C.3     1  UNL1        0.0964
     26 C           2.7249    4.9121   18.3325 C.3     1  UNL1        0.0880
     27 C           3.2390    5.6408   19.5386 C.3     1  UNL1        0.2672
     28 F           3.5377    6.7662   20.4843 F       1  UNL1       -0.2042
     29 F           2.6191    6.7827   18.7889 F       1  UNL1       -0.2042
     30 C           3.9626    4.8899   20.6167 C.3     1  UNL1        0.0880
     31 C           4.1722    3.4101   20.4888 C.3     1  UNL1        0.0964
     32 S           4.4963   -3.2377   18.7709 S.O2    1  UNL1        0.0105
     33 C           4.7056   -4.7175   18.6431 C.3     1  UNL1        0.1816
     34 O           3.3493   -3.4809   19.7066 O.2     1  UNL1       -0.1686
     35 O           5.6432   -2.9947   17.8352 O.2     1  UNL1       -0.1686
@<TRIPOS>BOND
     1    17    18    1
     2    18    19   ar
     3    19    20   ar
     4    20     7    1
     5     7     8   ar
     6     8     9   ar
     7     9    10   ar
     8    10    11   ar
     9    10    12    1
    10    12    13    1
    11    13    14   am
    12    14    15    2
    13    14     1    1
    14     1     2   ar
    15     2     3   ar
    16     3    32    1
    17    32    33    1
    18    32    34    2
    19    32    35    2
    20     3     4   ar
    21     4     5   ar
    22     5     6   ar
    23     6    24    1
    24    24    25    1
    25    25    26    1
    26    26    27    1
    27    27    28    1
    28    27    29    1
    29    27    30    1
    30    30    31    1
    31    13    16    1
    32    20    21   ar
    33    21    22   ar
    34    22    23   ar
    35    23    18   ar
    36    11     7   ar
    37     6     1   ar
    38    31    24    1
    39    16     9    1
@<TRIPOS>MOLECULE
*****
 35 39 0 0 0
SMALL
GASTEIGER

@<TRIPOS>ATOM
      1 C           2.7722    1.0048   22.3918 C.ar    1  UNL1        0.0682
      2 C           3.6105    0.3078   21.3616 C.ar    1  UNL1        0.0241
      3 C           2.9525   -0.4618   20.2548 C.ar    1  UNL1        0.1060
      4 C           1.4563   -0.5343   20.1783 C.ar    1  UNL1        0.0196
      5 C           0.6179    0.1627   21.2085 C.ar    1  UNL1        0.0160
      6 C           1.2759    0.9323   22.3152 C.ar    1  UNL1        0.0523
      7 N           5.0224   -1.0692   28.6744 N.ar    1  UNL1       -0.2286
      8 C           5.2252    0.3853   28.3693 C.ar    1  UNL1        0.0990
      9 C           4.6887    0.6495   26.9937 C.ar    1  UNL1        0.0338
     10 C           4.1543   -0.6417   26.4486 C.ar    1  UNL1        0.0981
     11 N           4.3605   -1.7040   27.4874 N.ar    1  UNL1       -0.1680
     12 C           3.6178   -0.3776   25.0729 C.3     1  UNL1        0.1414
     13 N           3.8206    1.0771   24.7678 N.am    1  UNL1       -0.2661
     14 C           3.4302    1.7744   23.4985 C.2     1  UNL1        0.2508
     15 O           3.6977    3.2414   23.3358 O.2     1  UNL1       -0.2698
     16 C           4.4825    1.7118   25.9549 C.3     1  UNL1        0.1236
     17 C           4.5395   -1.6642   33.8137 C.3     1  UNL1        0.0521
     18 C           5.1714   -2.0641   32.5135 C.ar    1  UNL1        0.0609
     19 C           4.7810   -1.3668   31.2441 C.ar    1  UNL1        0.0339
     20 C           5.4128   -1.7666   29.9437 C.ar    1  UNL1        0.0855
     21 C           6.4351   -2.8639   29.9127 C.ar    1  UNL1        0.0398
     22 C           6.8255   -3.5612   31.1822 C.ar    1  UNL1        0.1000
     23 N           6.1937   -3.1614   32.4825 N.ar    1  UNL1       -0.2480
     24 N           0.4376    1.6293   23.3454 N.pl3   1  UNL1       -0.3070
     25 C          -0.2132    2.9411   23.0203 C.3     1  UNL1        0.0964
     26 C          -1.0515    3.6381   24.0506 C.3     1  UNL1        0.0880
     27 C          -1.2390    3.0234   25.4059 C.3     1  UNL1        0.2672
     28 F          -1.7093    2.8424   26.8187 F       1  UNL1       -0.2042
     29 F          -2.0532    4.2723   25.5715 F       1  UNL1       -0.2042
     30 C          -0.5883    1.7117   25.7311 C.3     1  UNL1        0.0880
     31 C           0.2501    1.0145   24.7009 C.3     1  UNL1        0.0964
     32 S           3.7909   -1.1588   19.2246 S.O2    1  UNL1        0.0105
     33 C           4.6293   -1.8559   18.1945 C.3     1  UNL1        0.1816
     34 O           3.1657   -2.4690   19.6024 O.2     1  UNL1       -0.1686
     35 O           4.4161    0.1513   18.8468 O.2     1  UNL1       -0.1686
@<TRIPOS>BOND
     1    17    18    1
     2    18    19   ar
     3    19    20   ar
     4    20     7    1
     5     7     8   ar
     6     8     9   ar
     7     9    10   ar
     8    10    11   ar
     9    10    12    1
    10    12    13    1
    11    13    14   am
    12    14    15    2
    13    14     1    1
    14     1     2   ar
    15     2     3   ar
    16     3    32    1
    17    32    33    1
    18    32    34    2
    19    32    35    2
    20     3     4   ar
    21     4     5   ar
    22     5     6   ar
    23     6    24    1
    24    24    25    1
    25    25    26    1
    26    26    27    1
    27    27    28    1
    28    27    29    1
    29    27    30    1
    30    30    31    1
    31    13    16    1
    32    20    21   ar
    33    21    22   ar
    34    22    23   ar
    35    23    18   ar
    36    11     7   ar
    37     6     1   ar
    38    31    24    1
    39    16     9    1
