@<TRIPOS>MOLECULE
*****
 29 32 0 0 0
SMALL
GASTEIGER

@<TRIPOS>ATOM
      1 C          -6.6681  -16.0638   23.7994 C.3     1  UNL1        0.0500
      2 C          -6.4070  -17.2482   22.9169 C.ar    1  UNL1        0.0378
      3 C          -7.4275  -17.9754   22.0924 C.ar    1  UNL1        0.0146
      4 C          -6.7308  -19.0900   21.3698 C.ar    1  UNL1        0.0192
      5 C          -7.2302  -20.1349   20.4166 C.ar    1  UNL1        0.0311
      6 C          -6.2786  -21.1415   19.8412 C.ar    1  UNL1        0.1402
      7 F          -6.7779  -22.1864   18.8880 F       1  UNL1       -0.2042
      8 C          -4.8274  -21.1032   20.2191 C.ar    1  UNL1        0.0311
      9 C          -4.3280  -20.0583   21.1723 C.ar    1  UNL1        0.0195
     10 C          -5.2796  -19.0517   21.7477 C.ar    1  UNL1        0.0601
     11 N          -5.0795  -17.9134   22.7038 N.ar    1  UNL1       -0.3253
     12 C          -8.8883  -17.6458   22.0057 C.ar    1  UNL1        0.0186
     13 C          -9.4020  -16.8071   20.8732 C.ar    1  UNL1        0.0782
     14 N         -10.8628  -16.4776   20.7865 N.ar    1  UNL1       -0.2960
     15 C         -11.8099  -16.9867   21.8324 C.ar    1  UNL1        0.2608
     16 O         -13.2706  -16.6571   21.7457 O.2     1  UNL1       -0.2670
     17 C         -11.2962  -17.8254   22.9650 C.ar    1  UNL1        0.0562
     18 C         -12.2432  -18.3345   24.0109 C.ar    1  UNL1        0.0047
     19 C         -11.7295  -19.1732   25.1434 C.ar    1  UNL1        0.0002
     20 C         -10.2687  -19.5027   25.2301 C.ar    1  UNL1        0.0000
     21 C          -9.3217  -18.9936   24.1842 C.ar    1  UNL1        0.0002
     22 C          -9.8354  -18.1550   23.0517 C.ar    1  UNL1        0.0061
     23 C         -11.3765  -15.6388   19.6539 C.3     1  UNL1        0.0886
     24 C         -12.8155  -15.7354   19.2418 C.3     1  UNL1        0.0246
     25 C         -10.4511  -14.7036   18.9335 C.3     1  UNL1        0.0246
     26 C          -3.7802  -17.5109   23.3360 C.3     1  UNL1        0.1474
     27 C          -2.5978  -17.1795   22.4744 C.2     1  UNL1        0.0732
     28 O          -2.4707  -15.8132   21.8686 O.co2   1  UNL1       -0.5472
     29 O          -1.5426  -18.2145   22.2186 O.co2   1  UNL1       -0.5472
@<TRIPOS>UNITY_ATOM_ATTR
28 1
charge -1
@<TRIPOS>BOND
     1     1     2    1
     2     2     3   ar
     3     3    12    1
     4    12    13   ar
     5    13    14   ar
     6    14    23    1
     7    23    24    1
     8    23    25    1
     9    14    15   ar
    10    15    16    2
    11    15    17   ar
    12    17    18   ar
    13    18    19   ar
    14    19    20   ar
    15    20    21   ar
    16    21    22   ar
    17     3     4   ar
    18     4     5   ar
    19     5     6   ar
    20     6     7    1
    21     6     8   ar
    22     8     9   ar
    23     9    10   ar
    24    10    11   ar
    25    11    26    1
    26    26    27    1
    27    27    28   ar
    28    27    29   ar
    29    11     2   ar
    30    22    12   ar
    31    10     4   ar
    32    22    17   ar
@<TRIPOS>MOLECULE
*****
 29 32 0 0 0
SMALL
GASTEIGER

@<TRIPOS>ATOM
      1 C           4.2435    4.7246   35.2111 C.3     1  UNL1        0.0500
      2 C           3.4578    3.8999   36.1871 C.ar    1  UNL1        0.0378
      3 C           3.6847    2.4507   36.5002 C.ar    1  UNL1        0.0146
      4 C           2.6743    2.0348   37.5279 C.ar    1  UNL1        0.0192
      5 C           2.4196    0.7245   38.2121 C.ar    1  UNL1        0.0311
      6 C           1.3134    0.6064   39.2183 C.ar    1  UNL1        0.1402
      7 F           1.0585   -0.7038   39.9025 F       1  UNL1       -0.2042
      8 C           0.4620    1.7987   39.5403 C.ar    1  UNL1        0.0311
      9 C           0.7167    3.1090   38.8561 C.ar    1  UNL1        0.0195
     10 C           1.8229    3.2271   37.8499 C.ar    1  UNL1        0.0601
     11 N           2.3071    4.3798   37.0212 N.ar    1  UNL1       -0.3253
     12 C           4.7373    1.5716   35.8924 C.ar    1  UNL1        0.0186
     13 C           4.4614    0.8509   34.6061 C.ar    1  UNL1        0.0782
     14 N           5.5140   -0.0281   33.9983 N.ar    1  UNL1       -0.2960
     15 C           6.8423   -0.1865   34.6768 C.ar    1  UNL1        0.2608
     16 O           7.8949   -1.0656   34.0690 O.2     1  UNL1       -0.2670
     17 C           7.1182    0.5342   35.9631 C.ar    1  UNL1        0.0562
     18 C           8.4465    0.3758   36.6416 C.ar    1  UNL1        0.0047
     19 C           8.7224    1.0964   37.9279 C.ar    1  UNL1        0.0002
     20 C           7.6698    1.9755   38.5357 C.ar    1  UNL1        0.0000
     21 C           6.3415    2.1339   37.8572 C.ar    1  UNL1        0.0002
     22 C           6.0657    1.4132   36.5709 C.ar    1  UNL1        0.0061
     23 C           5.2381   -0.7488   32.7120 C.3     1  UNL1        0.0886
     24 C           4.7079   -2.1517   32.7371 C.3     1  UNL1        0.0246
     25 C           5.4925   -0.0665   31.4006 C.3     1  UNL1        0.0246
     26 C           1.7403    5.7685   37.0258 C.3     1  UNL1        0.1474
     27 C           0.4370    6.0490   36.3381 C.2     1  UNL1        0.0732
     28 O          -0.7208    6.5960   37.1193 O.co2   1  UNL1       -0.5472
     29 O           0.2915    5.7823   34.8692 O.co2   1  UNL1       -0.5472
@<TRIPOS>UNITY_ATOM_ATTR
28 1
charge -1
@<TRIPOS>BOND
     1     1     2    1
     2     2     3   ar
     3     3    12    1
     4    12    13   ar
     5    13    14   ar
     6    14    23    1
     7    23    24    1
     8    23    25    1
     9    14    15   ar
    10    15    16    2
    11    15    17   ar
    12    17    18   ar
    13    18    19   ar
    14    19    20   ar
    15    20    21   ar
    16    21    22   ar
    17     3     4   ar
    18     4     5   ar
    19     5     6   ar
    20     6     7    1
    21     6     8   ar
    22     8     9   ar
    23     9    10   ar
    24    10    11   ar
    25    11    26    1
    26    26    27    1
    27    27    28   ar
    28    27    29   ar
    29    11     2   ar
    30    22    12   ar
    31    10     4   ar
    32    22    17   ar
@<TRIPOS>MOLECULE
*****
 29 32 0 0 0
SMALL
GASTEIGER

@<TRIPOS>ATOM
      1 C           4.0165   -0.7698   16.7651 C.3     1  UNL1        0.0500
      2 C           3.9181   -0.8709   18.2585 C.ar    1  UNL1        0.0378
      3 C           3.4101    0.1957   19.1828 C.ar    1  UNL1        0.0146
      4 C           3.4885   -0.3305   20.5852 C.ar    1  UNL1        0.0192
      5 C           3.1251    0.2779   21.9073 C.ar    1  UNL1        0.0311
      6 C           3.3180   -0.5055   23.1718 C.ar    1  UNL1        0.1402
      7 F           2.9546    0.1028   24.4938 F       1  UNL1       -0.2042
      8 C           3.8744   -1.8974   23.1143 C.ar    1  UNL1        0.0311
      9 C           4.2378   -2.5058   21.7922 C.ar    1  UNL1        0.0195
     10 C           4.0449   -1.7223   20.5277 C.ar    1  UNL1        0.0601
     11 N           4.3104   -2.0563   19.0897 N.ar    1  UNL1       -0.3253
     12 C           2.9114    1.5507   18.7760 C.ar    1  UNL1        0.0186
     13 C           1.4390    1.8369   18.7689 C.ar    1  UNL1        0.0782
     14 N           0.9403    3.1918   18.3622 N.ar    1  UNL1       -0.2960
     15 C           1.9139    4.2605   17.9625 C.ar    1  UNL1        0.2608
     16 O           1.4152    5.6154   17.5558 O.2     1  UNL1       -0.2670
     17 C           3.3864    3.9743   17.9696 C.ar    1  UNL1        0.0562
     18 C           4.3601    5.0431   17.5700 C.ar    1  UNL1        0.0047
     19 C           5.8325    4.7569   17.5771 C.ar    1  UNL1        0.0002
     20 C           6.3312    3.4019   17.9838 C.ar    1  UNL1        0.0000
     21 C           5.3576    2.3332   18.3835 C.ar    1  UNL1        0.0002
     22 C           3.8852    2.6194   18.3764 C.ar    1  UNL1        0.0061
     23 C          -0.5322    3.4779   18.3551 C.3     1  UNL1        0.0886
     24 C          -1.2875    3.5549   19.6487 C.3     1  UNL1        0.0246
     25 C          -1.2493    3.6871   17.0543 C.3     1  UNL1        0.0246
     26 C           4.8700   -3.3487   18.5735 C.3     1  UNL1        0.1474
     27 C           4.1690   -4.6413   18.8704 C.2     1  UNL1        0.0732
     28 O           4.9576   -5.9114   18.9917 O.co2   1  UNL1       -0.5472
     29 O           2.6795   -4.6636   19.0459 O.co2   1  UNL1       -0.5472
@<TRIPOS>UNITY_ATOM_ATTR
28 1
charge -1
@<TRIPOS>BOND
     1     1     2    1
     2     2     3   ar
     3     3    12    1
     4    12    13   ar
     5    13    14   ar
     6    14    23    1
     7    23    24    1
     8    23    25    1
     9    14    15   ar
    10    15    16    2
    11    15    17   ar
    12    17    18   ar
    13    18    19   ar
    14    19    20   ar
    15    20    21   ar
    16    21    22   ar
    17     3     4   ar
    18     4     5   ar
    19     5     6   ar
    20     6     7    1
    21     6     8   ar
    22     8     9   ar
    23     9    10   ar
    24    10    11   ar
    25    11    26    1
    26    26    27    1
    27    27    28   ar
    28    27    29   ar
    29    11     2   ar
    30    22    12   ar
    31    10     4   ar
    32    22    17   ar
@<TRIPOS>MOLECULE
*****
 29 32 0 0 0
SMALL
GASTEIGER

@<TRIPOS>ATOM
      1 C           6.5758    1.0212   21.0249 C.3     1  UNL1        0.0500
      2 C           6.0230   -0.3181   20.6365 C.ar    1  UNL1        0.0378
      3 C           5.1239   -1.1776   21.4749 C.ar    1  UNL1        0.0146
      4 C           4.8176   -2.4237   20.6981 C.ar    1  UNL1        0.0192
      5 C           3.9841   -3.6282   21.0210 C.ar    1  UNL1        0.0311
      6 C           3.8603   -4.7434   20.0254 C.ar    1  UNL1        0.1402
      7 F           3.0267   -5.9479   20.3482 F       1  UNL1       -0.2042
      8 C           4.5701   -4.6540   18.7070 C.ar    1  UNL1        0.0311
      9 C           5.4036   -3.4495   18.3841 C.ar    1  UNL1        0.0195
     10 C           5.5274   -2.3343   19.3797 C.ar    1  UNL1        0.0601
     11 N           6.2724   -1.0330   19.3416 N.ar    1  UNL1       -0.3253
     12 C           4.6197   -0.8488   22.8488 C.ar    1  UNL1        0.0186
     13 C           5.4434   -1.1963   24.0531 C.ar    1  UNL1        0.0782
     14 N           4.9392   -0.8674   25.4270 N.ar    1  UNL1       -0.2960
     15 C           3.6111   -0.1911   25.5966 C.ar    1  UNL1        0.2608
     16 O           3.1069    0.1378   26.9704 O.2     1  UNL1       -0.2670
     17 C           2.7873    0.1565   24.3921 C.ar    1  UNL1        0.0562
     18 C           1.4592    0.8328   24.5617 C.ar    1  UNL1        0.0047
     19 C           0.6354    1.1804   23.3573 C.ar    1  UNL1        0.0002
     20 C           1.1397    0.8515   21.9834 C.ar    1  UNL1        0.0000
     21 C           2.4678    0.1752   21.8139 C.ar    1  UNL1        0.0002
     22 C           3.2915   -0.1724   23.0182 C.ar    1  UNL1        0.0061
     23 C           5.7630   -1.2150   26.6314 C.3     1  UNL1        0.0886
     24 C           6.8233   -0.2696   27.1131 C.3     1  UNL1        0.0246
     25 C           5.5266   -2.5080   27.3542 C.3     1  UNL1        0.0246
     26 C           7.1183   -0.5341   18.2078 C.3     1  UNL1        0.1474
     27 C           6.4690    0.0484   16.9875 C.2     1  UNL1        0.0732
     28 O           5.0390   -0.2759   16.6716 O.co2   1  UNL1       -0.5472
     29 O           7.2497    0.9553   16.0830 O.co2   1  UNL1       -0.5472
@<TRIPOS>UNITY_ATOM_ATTR
28 1
charge -1
@<TRIPOS>BOND
     1     1     2    1
     2     2     3   ar
     3     3    12    1
     4    12    13   ar
     5    13    14   ar
     6    14    23    1
     7    23    24    1
     8    23    25    1
     9    14    15   ar
    10    15    16    2
    11    15    17   ar
    12    17    18   ar
    13    18    19   ar
    14    19    20   ar
    15    20    21   ar
    16    21    22   ar
    17     3     4   ar
    18     4     5   ar
    19     5     6   ar
    20     6     7    1
    21     6     8   ar
    22     8     9   ar
    23     9    10   ar
    24    10    11   ar
    25    11    26    1
    26    26    27    1
    27    27    28   ar
    28    27    29   ar
    29    11     2   ar
    30    22    12   ar
    31    10     4   ar
    32    22    17   ar
@<TRIPOS>MOLECULE
*****
 29 32 0 0 0
SMALL
GASTEIGER

@<TRIPOS>ATOM
      1 C           8.5653   -0.9160   22.2243 C.3     1  UNL1        0.0500
      2 C           7.5215   -1.7451   21.5364 C.ar    1  UNL1        0.0378
      3 C           6.5624   -2.6861   22.2031 C.ar    1  UNL1        0.0146
      4 C           5.7018   -3.3012   21.1397 C.ar    1  UNL1        0.0192
      5 C           4.5843   -4.2996   21.2059 C.ar    1  UNL1        0.0311
      6 C           3.8941   -4.7372   19.9481 C.ar    1  UNL1        0.1402
      7 F           2.7766   -5.7356   20.0142 F       1  UNL1       -0.2042
      8 C           4.3213   -4.1763   18.6241 C.ar    1  UNL1        0.0311
      9 C           5.4387   -3.1779   18.5579 C.ar    1  UNL1        0.0195
     10 C           6.1290   -2.7404   19.8157 C.ar    1  UNL1        0.0601
     11 N           7.2537   -1.7786   20.0608 N.ar    1  UNL1       -0.3253
     12 C           6.4787   -2.9633   23.6749 C.ar    1  UNL1        0.0186
     13 C           5.8290   -1.9679   24.5898 C.ar    1  UNL1        0.0782
     14 N           5.7452   -2.2451   26.0616 N.ar    1  UNL1       -0.2960
     15 C           6.3111   -3.5177   26.6185 C.ar    1  UNL1        0.2608
     16 O           6.2273   -3.7950   28.0902 O.2     1  UNL1       -0.2670
     17 C           6.9608   -4.5132   25.7036 C.ar    1  UNL1        0.0562
     18 C           7.5267   -5.7859   26.2604 C.ar    1  UNL1        0.0047
     19 C           8.1763   -6.7813   25.3455 C.ar    1  UNL1        0.0002
     20 C           8.2601   -6.5040   23.8738 C.ar    1  UNL1        0.0000
     21 C           7.6942   -5.2314   23.3169 C.ar    1  UNL1        0.0002
     22 C           7.0446   -4.2360   24.2318 C.ar    1  UNL1        0.0061
     23 C           5.0955   -1.2496   26.9765 C.3     1  UNL1        0.0886
     24 C           3.6305   -1.3552   27.2807 C.3     1  UNL1        0.0246
     25 C           5.9109   -0.1486   27.5871 C.3     1  UNL1        0.0246
     26 C           7.9825   -0.9890   19.0143 C.3     1  UNL1        0.1474
     27 C           7.2418    0.0136   18.1799 C.2     1  UNL1        0.0732
     28 O           6.9905    1.3932   18.7125 O.co2   1  UNL1       -0.5472
     29 O           6.7525   -0.3633   16.8130 O.co2   1  UNL1       -0.5472
@<TRIPOS>UNITY_ATOM_ATTR
28 1
charge -1
@<TRIPOS>BOND
     1     1     2    1
     2     2     3   ar
     3     3    12    1
     4    12    13   ar
     5    13    14   ar
     6    14    23    1
     7    23    24    1
     8    23    25    1
     9    14    15   ar
    10    15    16    2
    11    15    17   ar
    12    17    18   ar
    13    18    19   ar
    14    19    20   ar
    15    20    21   ar
    16    21    22   ar
    17     3     4   ar
    18     4     5   ar
    19     5     6   ar
    20     6     7    1
    21     6     8   ar
    22     8     9   ar
    23     9    10   ar
    24    10    11   ar
    25    11    26    1
    26    26    27    1
    27    27    28   ar
    28    27    29   ar
    29    11     2   ar
    30    22    12   ar
    31    10     4   ar
    32    22    17   ar
@<TRIPOS>MOLECULE
*****
 29 32 0 0 0
SMALL
GASTEIGER

@<TRIPOS>ATOM
      1 C           1.3017    2.9159   23.2390 C.3     1  UNL1        0.0500
      2 C          -0.1810    3.1420   23.2168 C.ar    1  UNL1        0.0378
      3 C          -1.0785    3.2231   24.4159 C.ar    1  UNL1        0.0146
      4 C          -2.4787    3.4579   23.9318 C.ar    1  UNL1        0.0192
      5 C          -3.7788    3.6217   24.6617 C.ar    1  UNL1        0.0311
      6 C          -5.0467    3.8495   23.8933 C.ar    1  UNL1        0.1402
      7 F          -6.3469    4.0133   24.6232 F       1  UNL1       -0.2042
      8 C          -5.0146    3.9136   22.3950 C.ar    1  UNL1        0.0311
      9 C          -3.7144    3.7498   21.6651 C.ar    1  UNL1        0.0195
     10 C          -2.4465    3.5219   22.4335 C.ar    1  UNL1        0.0601
     11 N          -1.0264    3.3267   21.9916 N.ar    1  UNL1       -0.3253
     12 C          -0.6509    3.0923   25.8477 C.ar    1  UNL1        0.0186
     13 C          -0.5590    1.7362   26.4821 C.ar    1  UNL1        0.0782
     14 N          -0.1315    1.6055   27.9139 N.ar    1  UNL1       -0.2960
     15 C           0.2042    2.8308   28.7113 C.ar    1  UNL1        0.2608
     16 O           0.6317    2.7000   30.1432 O.2     1  UNL1       -0.2670
     17 C           0.1122    4.1870   28.0769 C.ar    1  UNL1        0.0562
     18 C           0.4479    5.4123   28.8743 C.ar    1  UNL1        0.0047
     19 C           0.3559    6.7684   28.2399 C.ar    1  UNL1        0.0002
     20 C          -0.0716    6.8992   26.8081 C.ar    1  UNL1        0.0000
     21 C          -0.4073    5.6738   26.0107 C.ar    1  UNL1        0.0002
     22 C          -0.3153    4.3177   26.6451 C.ar    1  UNL1        0.0061
     23 C          -0.0395    0.2493   28.5484 C.3     1  UNL1        0.0886
     24 C           1.3027   -0.3440   28.8589 C.3     1  UNL1        0.0246
     25 C          -1.2898   -0.5135   28.8722 C.3     1  UNL1        0.0246
     26 C          -0.5376    3.3177   20.5735 C.3     1  UNL1        0.1474
     27 C          -0.1193    2.0277   19.9325 C.2     1  UNL1        0.0732
     28 O          -0.3161    0.7305   20.6596 O.co2   1  UNL1       -0.5472
     29 O           0.4958    2.0348   18.5645 O.co2   1  UNL1       -0.5472
@<TRIPOS>UNITY_ATOM_ATTR
28 1
charge -1
@<TRIPOS>BOND
     1     1     2    1
     2     2     3   ar
     3     3    12    1
     4    12    13   ar
     5    13    14   ar
     6    14    23    1
     7    23    24    1
     8    23    25    1
     9    14    15   ar
    10    15    16    2
    11    15    17   ar
    12    17    18   ar
    13    18    19   ar
    14    19    20   ar
    15    20    21   ar
    16    21    22   ar
    17     3     4   ar
    18     4     5   ar
    19     5     6   ar
    20     6     7    1
    21     6     8   ar
    22     8     9   ar
    23     9    10   ar
    24    10    11   ar
    25    11    26    1
    26    26    27    1
    27    27    28   ar
    28    27    29   ar
    29    11     2   ar
    30    22    12   ar
    31    10     4   ar
    32    22    17   ar
@<TRIPOS>MOLECULE
*****
 29 32 0 0 0
SMALL
GASTEIGER

@<TRIPOS>ATOM
      1 C           0.9330    1.2385   18.2565 C.3     1  UNL1        0.0500
      2 C           1.1783    1.1504   19.7337 C.ar    1  UNL1        0.0378
      3 C           2.3681    0.5190   20.3937 C.ar    1  UNL1        0.0146
      4 C           2.2020    0.6567   21.8781 C.ar    1  UNL1        0.0192
      5 C           3.0607    0.2221   23.0287 C.ar    1  UNL1        0.0311
      6 C           2.6269    0.5041   24.4366 C.ar    1  UNL1        0.1402
      7 F           3.4855    0.0696   25.5873 F       1  UNL1       -0.2042
      8 C           1.3345    1.2207   24.6940 C.ar    1  UNL1        0.0311
      9 C           0.4759    1.6553   23.5434 C.ar    1  UNL1        0.0195
     10 C           0.9096    1.3732   22.1355 C.ar    1  UNL1        0.0601
     11 N           0.2769    1.6784   20.8101 N.ar    1  UNL1       -0.3253
     12 C           3.5215   -0.1353   19.6925 C.ar    1  UNL1        0.0186
     13 C           3.7869   -1.5984   19.8899 C.ar    1  UNL1        0.0782
     14 N           4.9403   -2.2526   19.1887 N.ar    1  UNL1       -0.2960
     15 C           5.8282   -1.4439   18.2901 C.ar    1  UNL1        0.2608
     16 O           6.9815   -2.0982   17.5889 O.2     1  UNL1       -0.2670
     17 C           5.5627    0.0192   18.0926 C.ar    1  UNL1        0.0562
     18 C           6.4506    0.8279   17.1940 C.ar    1  UNL1        0.0047
     19 C           6.1851    2.2910   16.9966 C.ar    1  UNL1        0.0002
     20 C           5.0318    2.9453   17.6978 C.ar    1  UNL1        0.0000
     21 C           4.1439    2.1365   18.5964 C.ar    1  UNL1        0.0002
     22 C           4.4094    0.6735   18.7938 C.ar    1  UNL1        0.0061
     23 C           5.2057   -3.7158   19.3862 C.3     1  UNL1        0.0886
     24 C           4.3614   -4.7334   18.6781 C.3     1  UNL1        0.0246
     25 C           6.3155   -4.1611   20.2917 C.3     1  UNL1        0.0246
     26 C          -1.0280    2.3871   20.5983 C.3     1  UNL1        0.1474
     27 C          -1.0491    3.7462   19.9640 C.2     1  UNL1        0.0732
     28 O          -1.6584    3.9306   18.6058 O.co2   1  UNL1       -0.5472
     29 O          -0.4608    4.9210   20.6878 O.co2   1  UNL1       -0.5472
@<TRIPOS>UNITY_ATOM_ATTR
28 1
charge -1
@<TRIPOS>BOND
     1     1     2    1
     2     2     3   ar
     3     3    12    1
     4    12    13   ar
     5    13    14   ar
     6    14    23    1
     7    23    24    1
     8    23    25    1
     9    14    15   ar
    10    15    16    2
    11    15    17   ar
    12    17    18   ar
    13    18    19   ar
    14    19    20   ar
    15    20    21   ar
    16    21    22   ar
    17     3     4   ar
    18     4     5   ar
    19     5     6   ar
    20     6     7    1
    21     6     8   ar
    22     8     9   ar
    23     9    10   ar
    24    10    11   ar
    25    11    26    1
    26    26    27    1
    27    27    28   ar
    28    27    29   ar
    29    11     2   ar
    30    22    12   ar
    31    10     4   ar
    32    22    17   ar
@<TRIPOS>MOLECULE
*****
 29 32 0 0 0
SMALL
GASTEIGER

@<TRIPOS>ATOM
      1 C           6.4866   -0.7574   23.7090 C.3     1  UNL1        0.0500
      2 C           5.0876   -0.2335   23.5741 C.ar    1  UNL1        0.0378
      3 C           4.3678    0.0374   22.2863 C.ar    1  UNL1        0.0146
      4 C           2.9981    0.5498   22.6197 C.ar    1  UNL1        0.0192
      5 C           1.8499    0.9806   21.7560 C.ar    1  UNL1        0.0311
      6 C           0.5749    1.4573   22.3862 C.ar    1  UNL1        0.1402
      7 F          -0.5733    1.8881   21.5225 F       1  UNL1       -0.2042
      8 C           0.4481    1.5031   23.8801 C.ar    1  UNL1        0.0311
      9 C           1.5963    1.0723   24.7438 C.ar    1  UNL1        0.0195
     10 C           2.8713    0.5956   24.1136 C.ar    1  UNL1        0.0601
     11 N           4.1627    0.1115   24.7035 N.ar    1  UNL1       -0.3253
     12 C           4.9208   -0.1681   20.9071 C.ar    1  UNL1        0.0186
     13 C           5.5531    0.9778   20.1742 C.ar    1  UNL1        0.0782
     14 N           6.1060    0.7723   18.7950 N.ar    1  UNL1       -0.2960
     15 C           6.0266   -0.5790   18.1488 C.ar    1  UNL1        0.2608
     16 O           6.5796   -0.7845   16.7697 O.2     1  UNL1       -0.2670
     17 C           5.3943   -1.7249   18.8817 C.ar    1  UNL1        0.0562
     18 C           5.3149   -3.0762   18.2355 C.ar    1  UNL1        0.0047
     19 C           4.6826   -4.2220   18.9684 C.ar    1  UNL1        0.0002
     20 C           4.1297   -4.0166   20.3476 C.ar    1  UNL1        0.0000
     21 C           4.2091   -2.6653   20.9938 C.ar    1  UNL1        0.0002
     22 C           4.8414   -1.5195   20.2609 C.ar    1  UNL1        0.0061
     23 C           6.7384    1.9182   18.0621 C.3     1  UNL1        0.0886
     24 C           8.2284    2.0892   18.0801 C.3     1  UNL1        0.0246
     25 C           5.8805    2.8930   17.3112 C.3     1  UNL1        0.0246
     26 C           4.4744   -0.0068   26.1660 C.3     1  UNL1        0.1474
     27 C           4.3912   -1.3418   26.8450 C.2     1  UNL1        0.0732
     28 O           5.5285   -2.3132   26.7312 O.co2   1  UNL1       -0.5472
     29 O           3.1708   -1.7053   27.6377 O.co2   1  UNL1       -0.5472
@<TRIPOS>UNITY_ATOM_ATTR
28 1
charge -1
@<TRIPOS>BOND
     1     1     2    1
     2     2     3   ar
     3     3    12    1
     4    12    13   ar
     5    13    14   ar
     6    14    23    1
     7    23    24    1
     8    23    25    1
     9    14    15   ar
    10    15    16    2
    11    15    17   ar
    12    17    18   ar
    13    18    19   ar
    14    19    20   ar
    15    20    21   ar
    16    21    22   ar
    17     3     4   ar
    18     4     5   ar
    19     5     6   ar
    20     6     7    1
    21     6     8   ar
    22     8     9   ar
    23     9    10   ar
    24    10    11   ar
    25    11    26    1
    26    26    27    1
    27    27    28   ar
    28    27    29   ar
    29    11     2   ar
    30    22    12   ar
    31    10     4   ar
    32    22    17   ar
@<TRIPOS>MOLECULE
*****
 29 32 0 0 0
SMALL
GASTEIGER

@<TRIPOS>ATOM
      1 C           4.2845   -2.6557   32.9895 C.3     1  UNL1        0.0500
      2 C           5.1467   -2.0855   31.9026 C.ar    1  UNL1        0.0378
      3 C           4.8479   -0.8592   31.0922 C.ar    1  UNL1        0.0146
      4 C           5.9756   -0.6573   30.1240 C.ar    1  UNL1        0.0192
      5 C           6.2244    0.3872   29.0767 C.ar    1  UNL1        0.0311
      6 C           7.4691    0.3303   28.2414 C.ar    1  UNL1        0.1402
      7 F           7.7179    1.3748   27.1941 F       1  UNL1       -0.2042
      8 C           8.4649   -0.7713   28.4535 C.ar    1  UNL1        0.0311
      9 C           8.2160   -1.8159   29.5008 C.ar    1  UNL1        0.0195
     10 C           6.9714   -1.7589   30.3361 C.ar    1  UNL1        0.0601
     11 N           6.4591   -2.6416   31.4353 N.ar    1  UNL1       -0.3253
     12 C           3.6344    0.0123   31.2264 C.ar    1  UNL1        0.0186
     13 C           2.6138    0.0512   30.1278 C.ar    1  UNL1        0.0782
     14 N           1.4003    0.9226   30.2620 N.ar    1  UNL1       -0.2960
     15 C           1.2074    1.7552   31.4947 C.ar    1  UNL1        0.2608
     16 O          -0.0061    2.6266   31.6289 O.2     1  UNL1       -0.2670
     17 C           2.2280    1.7163   32.5933 C.ar    1  UNL1        0.0562
     18 C           2.0351    2.5488   33.8260 C.ar    1  UNL1        0.0047
     19 C           3.0558    2.5099   34.9246 C.ar    1  UNL1        0.0002
     20 C           4.2693    1.6385   34.7904 C.ar    1  UNL1        0.0000
     21 C           4.4621    0.8059   33.5577 C.ar    1  UNL1        0.0002
     22 C           3.4415    0.8448   32.4592 C.ar    1  UNL1        0.0061
     23 C           0.3796    0.9615   29.1634 C.3     1  UNL1        0.0886
     24 C           0.3538    2.1143   28.2041 C.3     1  UNL1        0.0246
     25 C          -0.6151   -0.1525   29.0242 C.3     1  UNL1        0.0246
     26 C           7.1397   -3.8654   31.9729 C.3     1  UNL1        0.1474
     27 C           6.8983   -5.2002   31.3325 C.2     1  UNL1        0.0732
     28 O           6.7707   -5.3048   29.8417 O.co2   1  UNL1       -0.5472
     29 O           6.7844   -6.4305   32.1831 O.co2   1  UNL1       -0.5472
@<TRIPOS>UNITY_ATOM_ATTR
28 1
charge -1
@<TRIPOS>BOND
     1     1     2    1
     2     2     3   ar
     3     3    12    1
     4    12    13   ar
     5    13    14   ar
     6    14    23    1
     7    23    24    1
     8    23    25    1
     9    14    15   ar
    10    15    16    2
    11    15    17   ar
    12    17    18   ar
    13    18    19   ar
    14    19    20   ar
    15    20    21   ar
    16    21    22   ar
    17     3     4   ar
    18     4     5   ar
    19     5     6   ar
    20     6     7    1
    21     6     8   ar
    22     8     9   ar
    23     9    10   ar
    24    10    11   ar
    25    11    26    1
    26    26    27    1
    27    27    28   ar
    28    27    29   ar
    29    11     2   ar
    30    22    12   ar
    31    10     4   ar
    32    22    17   ar
