@<TRIPOS>MOLECULE
*****
 34 39 0 0 0
SMALL
GASTEIGER

@<TRIPOS>ATOM
      1 C          -1.7227    3.0002   20.6088 C.ar    1  UNL1        0.2182
      2 N          -1.1519    4.3590   20.8881 N.ar    1  UNL1       -0.2122
      3 C           0.2975    4.5046   21.2454 C.ar    1  UNL1        0.1049
      4 C           1.1763    3.2915   21.3235 C.ar    1  UNL1        0.0582
      5 C           0.6056    1.9327   21.0441 C.ar    1  UNL1        0.1533
      6 N          -0.8439    1.7871   20.6868 N.ar    1  UNL1       -0.1960
      7 N           1.4844    0.7196   21.1222 N.ar    1  UNL1       -0.2739
      8 C           1.8766   -0.1604   19.9725 C.ar    1  UNL1        0.0974
      9 C           2.7599   -1.2504   20.5034 C.ar    1  UNL1        0.0778
     10 N           2.9135   -1.0441   21.9811 N.ar    1  UNL1       -0.2307
     11 C           2.1252    0.1735   22.3636 C.ar    1  UNL1        0.1484
     12 C           1.9998    0.7446   23.7449 C.ar    1  UNL1        0.0345
     13 C           3.2316    1.0870   24.5296 C.ar    1  UNL1        0.0030
     14 C           3.1062    1.6581   25.9110 C.ar    1  UNL1        0.0001
     15 C           1.7491    1.8868   26.5076 C.ar    1  UNL1        0.0000
     16 C           0.5174    1.5444   25.7230 C.ar    1  UNL1        0.0001
     17 C           0.6428    0.9733   24.3416 C.ar    1  UNL1        0.0030
     18 C           3.3805   -2.3531   19.6979 C.3     1  UNL1        0.0419
     19 C           4.3726   -2.8112   18.6703 C.3     1  UNL1        0.0064
     20 C           3.4633   -3.8050   19.3302 C.3     1  UNL1        0.0064
     21 N          -3.1722    2.8545   20.2514 N.pl3   1  UNL1       -0.3028
     22 H          -3.4350    2.3152   19.4708 H       1  UNL1        0.1496
     23 O          -5.4661    3.6277   25.5016 O.2     1  UNL1       -0.2677
     24 C          -6.1054    4.3763   24.3698 C.2     1  UNL1        0.2730
     25 N          -5.5696    4.2300   22.9764 N.am    1  UNL1       -0.2727
     26 C          -6.1022    4.9117   21.7509 C.3     1  UNL1        0.0956
     27 C          -5.2690    4.4794   20.5810 C.3     1  UNL1        0.0428
     28 C          -4.2214    3.5306   21.0834 C.3     1  UNL1        0.0932
     29 C          -4.4072    3.3764   22.5638 C.3     1  UNL1        0.1133
     30 C          -7.2805    5.2711   24.6315 C.ar    1  UNL1        0.1643
     31 N          -8.6784    5.0599   24.1303 N.ar    1  UNL1       -0.2322
     32 C          -9.5258    6.1925   24.6293 C.ar    1  UNL1        0.1066
     33 C          -8.6516    7.1037   25.4390 C.ar    1  UNL1        0.0577
     34 S          -7.2639    6.5342   25.4403 S.2     1  UNL1       -0.0614
@<TRIPOS>BOND
     1    23    24    2
     2    24    30    1
     3    30    31   ar
     4    31    32   ar
     5    32    33   ar
     6    33    34   ar
     7    24    25   am
     8    25    26    1
     9    26    27    1
    10    27    28    1
    11    28    21    1
    12    21     1    1
    13     1     2   ar
    14     2     3   ar
    15     3     4   ar
    16     4     5   ar
    17     5     7    1
    18     7     8   ar
    19     8     9   ar
    20     9    18    1
    21    18    19    1
    22    19    20    1
    23     9    10   ar
    24    10    11   ar
    25    11    12    1
    26    12    13   ar
    27    13    14   ar
    28    14    15   ar
    29    15    16   ar
    30    16    17   ar
    31     5     6   ar
    32    28    29    1
    33    34    30   ar
    34    29    25    1
    35     6     1   ar
    36    11     7   ar
    37    17    12   ar
    38    20    18    1
    39    21    22    1
@<TRIPOS>MOLECULE
*****
 34 39 0 0 0
SMALL
GASTEIGER

@<TRIPOS>ATOM
      1 C           6.2099   -2.4742   26.6412 C.ar    1  UNL1        0.2182
      2 N           7.4860   -1.9381   27.2194 N.ar    1  UNL1       -0.2122
      3 C           7.4440   -1.0095   28.3966 C.ar    1  UNL1        0.1049
      4 C           6.1260   -0.6170   28.9956 C.ar    1  UNL1        0.0582
      5 C           4.8500   -1.1531   28.4175 C.ar    1  UNL1        0.1533
      6 N           4.8920   -2.0817   27.2402 N.ar    1  UNL1       -0.1960
      7 N           3.5320   -0.7606   29.0165 N.ar    1  UNL1       -0.2739
      8 C           2.2516   -0.5446   28.2656 C.ar    1  UNL1        0.0974
      9 C           1.1913   -0.1657   29.2566 C.ar    1  UNL1        0.0778
     10 N           1.8164   -0.1475   30.6201 N.ar    1  UNL1       -0.2307
     11 C           3.2630   -0.5152   30.4716 C.ar    1  UNL1        0.1484
     12 C           4.2648   -0.6192   31.5832 C.ar    1  UNL1        0.0345
     13 C           4.8690    0.6235   32.1671 C.ar    1  UNL1        0.0030
     14 C           5.8708    0.5195   33.2787 C.ar    1  UNL1        0.0001
     15 C           6.2684   -0.8271   33.8064 C.ar    1  UNL1        0.0000
     16 C           5.6642   -2.0697   33.2226 C.ar    1  UNL1        0.0001
     17 C           4.6624   -1.9657   32.1110 C.ar    1  UNL1        0.0030
     18 C          -0.2424    0.1412   28.9398 C.3     1  UNL1        0.0419
     19 C          -1.2656    0.9739   28.2259 C.3     1  UNL1        0.0064
     20 C          -1.7025   -0.1601   29.1051 C.3     1  UNL1        0.0064
     21 N           6.2519   -3.4029   25.4639 N.pl3   1  UNL1       -0.3028
     22 H           6.5633   -4.3297   25.5789 H       1  UNL1        0.1496
     23 O           4.0782   -4.7548   20.2802 O.2     1  UNL1       -0.2677
     24 C           4.4010   -3.3097   20.5196 C.2     1  UNL1        0.2730
     25 N           4.9685   -2.8766   21.8389 N.am    1  UNL1       -0.2727
     26 C           5.3386   -1.4742   22.2218 C.3     1  UNL1        0.0956
     27 C           5.8644   -1.5007   23.6263 C.3     1  UNL1        0.0428
     28 C           5.8193   -2.9194   24.1115 C.3     1  UNL1        0.0932
     29 C           5.2656   -3.7697   23.0068 C.3     1  UNL1        0.1133
     30 C           4.1563   -2.2977   19.4399 C.ar    1  UNL1        0.1643
     31 N           3.0813   -1.2516   19.4391 N.ar    1  UNL1       -0.2322
     32 C           3.2043   -0.4615   18.1700 C.ar    1  UNL1        0.1066
     33 C           4.3553   -1.0193   17.3864 C.ar    1  UNL1        0.0577
     34 S           4.9437   -2.1541   18.1712 S.2     1  UNL1       -0.0614
@<TRIPOS>BOND
     1    23    24    2
     2    24    30    1
     3    30    31   ar
     4    31    32   ar
     5    32    33   ar
     6    33    34   ar
     7    24    25   am
     8    25    26    1
     9    26    27    1
    10    27    28    1
    11    28    21    1
    12    21     1    1
    13     1     2   ar
    14     2     3   ar
    15     3     4   ar
    16     4     5   ar
    17     5     7    1
    18     7     8   ar
    19     8     9   ar
    20     9    18    1
    21    18    19    1
    22    19    20    1
    23     9    10   ar
    24    10    11   ar
    25    11    12    1
    26    12    13   ar
    27    13    14   ar
    28    14    15   ar
    29    15    16   ar
    30    16    17   ar
    31     5     6   ar
    32    28    29    1
    33    34    30   ar
    34    29    25    1
    35     6     1   ar
    36    11     7   ar
    37    17    12   ar
    38    20    18    1
    39    21    22    1
@<TRIPOS>MOLECULE
*****
 34 39 0 0 0
SMALL
GASTEIGER

@<TRIPOS>ATOM
      1 C           6.8917   -2.5128   27.7177 C.ar    1  UNL1        0.2182
      2 N           8.0202   -1.5905   28.0722 N.ar    1  UNL1       -0.2122
      3 C           7.7507   -0.3458   28.8647 C.ar    1  UNL1        0.1049
      4 C           6.3527   -0.0234   29.3027 C.ar    1  UNL1        0.0582
      5 C           5.2242   -0.9458   28.9482 C.ar    1  UNL1        0.1533
      6 N           5.4937   -2.1905   28.1557 N.ar    1  UNL1       -0.1960
      7 N           3.8263   -0.6235   29.3861 N.ar    1  UNL1       -0.2739
      8 C           2.6134   -0.5826   28.5045 C.ar    1  UNL1        0.0974
      9 C           1.4333   -0.2193   29.3561 C.ar    1  UNL1        0.0778
     10 N           1.9168   -0.0356   30.7641 N.ar    1  UNL1       -0.2307
     11 C           3.3957   -0.2854   30.7827 C.ar    1  UNL1        0.1484
     12 C           4.2875   -0.2104   31.9864 C.ar    1  UNL1        0.0345
     13 C           4.6355   -1.4592   32.7411 C.ar    1  UNL1        0.0030
     14 C           5.5273   -1.3841   33.9449 C.ar    1  UNL1        0.0001
     15 C           6.0711   -0.0603   34.3941 C.ar    1  UNL1        0.0000
     16 C           5.7231    1.1885   33.6394 C.ar    1  UNL1        0.0001
     17 C           4.8313    1.1134   32.4356 C.ar    1  UNL1        0.0030
     18 C           0.0181   -0.0665   28.8828 C.3     1  UNL1        0.0419
     19 C          -1.0097    0.6714   28.0772 C.3     1  UNL1        0.0064
     20 C          -1.4052   -0.5399   28.8686 C.3     1  UNL1        0.0064
     21 N           7.1611   -3.7576   26.9252 N.pl3   1  UNL1       -0.3028
     22 H           7.5850   -4.5341   27.3572 H       1  UNL1        0.1496
     23 O           3.6143   -1.9383   22.7379 O.2     1  UNL1       -0.2677
     24 C           4.6858   -2.9092   22.3390 C.2     1  UNL1        0.2730
     25 N           5.6470   -3.4294   23.3665 N.am    1  UNL1       -0.2727
     26 C           6.7640   -4.3992   23.1179 C.3     1  UNL1        0.0956
     27 C           7.4672   -4.6402   24.4207 C.3     1  UNL1        0.0428
     28 C           6.7847   -3.8193   25.4746 C.3     1  UNL1        0.0932
     29 C           5.6598   -3.0710   24.8230 C.3     1  UNL1        0.1133
     30 C           4.7963   -3.3600   20.9126 C.ar    1  UNL1        0.1643
     31 N           4.3791   -4.6970   20.3757 N.ar    1  UNL1       -0.2322
     32 C           4.6683   -4.7162   18.9039 C.ar    1  UNL1        0.1066
     33 C           5.2641   -3.3911   18.5313 C.ar    1  UNL1        0.0577
     34 S           5.3432   -2.5529   19.7727 S.2     1  UNL1       -0.0614
@<TRIPOS>BOND
     1    23    24    2
     2    24    30    1
     3    30    31   ar
     4    31    32   ar
     5    32    33   ar
     6    33    34   ar
     7    24    25   am
     8    25    26    1
     9    26    27    1
    10    27    28    1
    11    28    21    1
    12    21     1    1
    13     1     2   ar
    14     2     3   ar
    15     3     4   ar
    16     4     5   ar
    17     5     7    1
    18     7     8   ar
    19     8     9   ar
    20     9    18    1
    21    18    19    1
    22    19    20    1
    23     9    10   ar
    24    10    11   ar
    25    11    12    1
    26    12    13   ar
    27    13    14   ar
    28    14    15   ar
    29    15    16   ar
    30    16    17   ar
    31     5     6   ar
    32    28    29    1
    33    34    30   ar
    34    29    25    1
    35     6     1   ar
    36    11     7   ar
    37    17    12   ar
    38    20    18    1
    39    21    22    1
@<TRIPOS>MOLECULE
*****
 34 39 0 0 0
SMALL
GASTEIGER

@<TRIPOS>ATOM
      1 C           3.8329   -0.4862   24.5065 C.ar    1  UNL1        0.2182
      2 N           5.0899    0.3314   24.4688 N.ar    1  UNL1       -0.2122
      3 C           5.2196    1.4629   23.4927 C.ar    1  UNL1        0.1049
      4 C           4.0922    1.7768   22.5542 C.ar    1  UNL1        0.0582
      5 C           2.8353    0.9592   22.5919 C.ar    1  UNL1        0.1533
      6 N           2.7056   -0.1723   23.5681 N.ar    1  UNL1       -0.1960
      7 N           1.7079    1.2731   21.6535 N.ar    1  UNL1       -0.2739
      8 C           0.5495    2.1820   21.9398 C.ar    1  UNL1        0.0974
      9 C          -0.3333    2.2038   20.7273 C.ar    1  UNL1        0.0778
     10 N           0.2796    1.3084   19.6916 N.ar    1  UNL1       -0.2307
     11 C           1.5411    0.7332   20.2641 C.ar    1  UNL1        0.1484
     12 C           2.4723   -0.2154   19.5690 C.ar    1  UNL1        0.0345
     13 C           3.1760    0.2089   18.3140 C.ar    1  UNL1        0.0030
     14 C           4.1072   -0.7397   17.6190 C.ar    1  UNL1        0.0001
     15 C           4.3346   -2.1125   18.1788 C.ar    1  UNL1        0.0000
     16 C           3.6310   -2.5368   19.4337 C.ar    1  UNL1        0.0001
     17 C           2.6998   -1.5882   20.1288 C.ar    1  UNL1        0.0030
     18 C          -1.6055    2.9841   20.5769 C.3     1  UNL1        0.0419
     19 C          -2.9878    3.3194   21.0532 C.3     1  UNL1        0.0064
     20 C          -2.4268    4.0003   19.8401 C.3     1  UNL1        0.0064
     21 N           3.7032   -1.6178   25.4826 N.pl3   1  UNL1       -0.3028
     22 H           3.4987   -2.5251   25.1600 H       1  UNL1        0.1496
     23 O           1.2986    0.0544   30.4671 O.2     1  UNL1       -0.2677
     24 C           2.7480   -0.3293   30.5133 C.2     1  UNL1        0.2730
     25 N           3.4461   -0.7746   29.2625 N.am    1  UNL1       -0.2727
     26 C           4.8844   -1.1868   29.1547 C.3     1  UNL1        0.0956
     27 C           5.1557   -1.5528   27.7256 C.3     1  UNL1        0.0428
     28 C           3.8852   -1.3668   26.9502 C.3     1  UNL1        0.0932
     29 C           2.8286   -0.8859   27.9001 C.3     1  UNL1        0.1133
     30 C           3.4991   -0.2677   31.8102 C.ar    1  UNL1        0.1643
     31 N           3.7002   -1.4048   32.7675 N.ar    1  UNL1       -0.2322
     32 C           4.5065   -0.8979   33.9264 C.ar    1  UNL1        0.1066
     33 C           4.8038    0.5524   33.6853 C.ar    1  UNL1        0.0577
     34 S           4.1812    0.9419   32.3774 S.2     1  UNL1       -0.0614
@<TRIPOS>BOND
     1    23    24    2
     2    24    30    1
     3    30    31   ar
     4    31    32   ar
     5    32    33   ar
     6    33    34   ar
     7    24    25   am
     8    25    26    1
     9    26    27    1
    10    27    28    1
    11    28    21    1
    12    21     1    1
    13     1     2   ar
    14     2     3   ar
    15     3     4   ar
    16     4     5   ar
    17     5     7    1
    18     7     8   ar
    19     8     9   ar
    20     9    18    1
    21    18    19    1
    22    19    20    1
    23     9    10   ar
    24    10    11   ar
    25    11    12    1
    26    12    13   ar
    27    13    14   ar
    28    14    15   ar
    29    15    16   ar
    30    16    17   ar
    31     5     6   ar
    32    28    29    1
    33    34    30   ar
    34    29    25    1
    35     6     1   ar
    36    11     7   ar
    37    17    12   ar
    38    20    18    1
    39    21    22    1
@<TRIPOS>MOLECULE
*****
 34 39 0 0 0
SMALL
GASTEIGER

@<TRIPOS>ATOM
      1 C           2.1420    1.1750   25.1030 C.ar    1  UNL1        0.2182
      2 N           2.9573    2.4335   25.0652 N.ar    1  UNL1       -0.2122
      3 C           3.7589    2.7713   23.8432 C.ar    1  UNL1        0.1049
      4 C           3.7451    1.8507   22.6590 C.ar    1  UNL1        0.0582
      5 C           2.9298    0.5922   22.6969 C.ar    1  UNL1        0.1533
      6 N           2.1283    0.2544   23.9189 N.ar    1  UNL1       -0.1960
      7 N           2.9161   -0.3285   21.5127 N.ar    1  UNL1       -0.2739
      8 C           3.5882   -1.6668   21.4286 C.ar    1  UNL1        0.0974
      9 C           3.3153   -2.2379   20.0686 C.ar    1  UNL1        0.0778
     10 N           2.4746   -1.2525   19.3123 N.ar    1  UNL1       -0.2307
     11 C           2.2278   -0.0724   20.2048 C.ar    1  UNL1        0.1484
     12 C           1.4325    1.1493   19.8513 C.ar    1  UNL1        0.0345
     13 C           1.9433    2.1018   18.8111 C.ar    1  UNL1        0.0030
     14 C           1.1480    3.3235   18.4577 C.ar    1  UNL1        0.0001
     15 C          -0.1581    3.5927   19.1443 C.ar    1  UNL1        0.0000
     16 C          -0.6690    2.6402   20.1844 C.ar    1  UNL1        0.0001
     17 C           0.1264    1.4185   20.5379 C.ar    1  UNL1        0.0030
     18 C           3.7984   -3.5619   19.5553 C.3     1  UNL1        0.0419
     19 C           3.6783   -5.0561   19.5002 C.3     1  UNL1        0.0064
     20 C           4.7552   -4.3611   18.7210 C.3     1  UNL1        0.0064
     21 N           1.3404    0.8371   26.3251 N.pl3   1  UNL1       -0.3028
     22 H           0.3583    0.9028   26.3032 H       1  UNL1        0.1496
     23 O           1.7075    1.2513   32.0798 O.2     1  UNL1       -0.2677
     24 C           2.6808    0.3294   31.4070 C.2     1  UNL1        0.2730
     25 N           2.6512    0.1659   29.9162 N.am    1  UNL1       -0.2727
     26 C           3.5569   -0.7151   29.1077 C.3     1  UNL1        0.0956
     27 C           3.1761   -0.5709   27.6640 C.3     1  UNL1        0.0428
     28 C           2.0350    0.3992   27.5803 C.3     1  UNL1        0.0932
     29 C           1.7107    0.8545   28.9722 C.3     1  UNL1        0.1133
     30 C           3.6838   -0.4289   32.2249 C.ar    1  UNL1        0.1643
     31 N           3.6919   -1.9107   32.4582 N.ar    1  UNL1       -0.2322
     32 C           4.8679   -2.2361   33.3306 C.ar    1  UNL1        0.1066
     33 C           5.5867   -0.9556   33.6365 C.ar    1  UNL1        0.0577
     34 S           4.8548    0.1613   32.9531 S.2     1  UNL1       -0.0614
@<TRIPOS>BOND
     1    23    24    2
     2    24    30    1
     3    30    31   ar
     4    31    32   ar
     5    32    33   ar
     6    33    34   ar
     7    24    25   am
     8    25    26    1
     9    26    27    1
    10    27    28    1
    11    28    21    1
    12    21     1    1
    13     1     2   ar
    14     2     3   ar
    15     3     4   ar
    16     4     5   ar
    17     5     7    1
    18     7     8   ar
    19     8     9   ar
    20     9    18    1
    21    18    19    1
    22    19    20    1
    23     9    10   ar
    24    10    11   ar
    25    11    12    1
    26    12    13   ar
    27    13    14   ar
    28    14    15   ar
    29    15    16   ar
    30    16    17   ar
    31     5     6   ar
    32    28    29    1
    33    34    30   ar
    34    29    25    1
    35     6     1   ar
    36    11     7   ar
    37    17    12   ar
    38    20    18    1
    39    21    22    1
@<TRIPOS>MOLECULE
*****
 34 39 0 0 0
SMALL
GASTEIGER

@<TRIPOS>ATOM
      1 C           3.6641   -0.2671   25.1797 C.ar    1  UNL1        0.2182
      2 N           4.2722    0.9673   24.5827 N.ar    1  UNL1       -0.2122
      3 C           5.5305    0.8669   23.7725 C.ar    1  UNL1        0.1049
      4 C           6.1808   -0.4679   23.5593 C.ar    1  UNL1        0.0582
      5 C           5.5728   -1.7023   24.1564 C.ar    1  UNL1        0.1533
      6 N           4.3144   -1.6019   24.9666 N.ar    1  UNL1       -0.1960
      7 N           6.2230   -3.0371   23.9432 N.ar    1  UNL1       -0.2739
      8 C           6.8893   -3.8716   24.9966 C.ar    1  UNL1        0.0974
      9 C           7.3993   -5.1220   24.3437 C.ar    1  UNL1        0.0778
     10 N           7.0482   -5.0604   22.8866 N.ar    1  UNL1       -0.2307
     11 C           6.3212   -3.7718   22.6392 C.ar    1  UNL1        0.1484
     12 C           5.7864   -3.3007   21.3193 C.ar    1  UNL1        0.0345
     13 C           4.3053   -3.2124   21.0986 C.ar    1  UNL1        0.0030
     14 C           3.7704   -2.7413   19.7788 C.ar    1  UNL1        0.0001
     15 C           4.7166   -2.3586   18.6796 C.ar    1  UNL1        0.0000
     16 C           6.1976   -2.4470   18.9002 C.ar    1  UNL1        0.0001
     17 C           6.7325   -2.9180   20.2201 C.ar    1  UNL1        0.0030
     18 C           8.1317   -6.2381   25.0277 C.3     1  UNL1        0.0419
     19 C           9.0642   -6.7136   26.1021 C.3     1  UNL1        0.0064
     20 C           8.4679   -7.6958   25.1379 C.3     1  UNL1        0.0064
     21 N           2.4057   -0.1667   25.9900 N.pl3   1  UNL1       -0.3028
     22 H           1.5457   -0.4453   25.6001 H       1  UNL1        0.1496
     23 O           3.0766   -1.3589   31.6071 O.2     1  UNL1       -0.2677
     24 C           2.8421    0.0781   31.2464 C.2     1  UNL1        0.2730
     25 N           2.6583    0.4705   29.8103 N.am    1  UNL1       -0.2727
     26 C           2.4170    1.8603   29.3000 C.3     1  UNL1        0.0956
     27 C           2.2931    1.7907   27.8068 C.3     1  UNL1        0.0428
     28 C           2.4577    0.3579   27.3942 C.3     1  UNL1        0.0932
     29 C           2.6834   -0.4580   28.6325 C.3     1  UNL1        0.1133
     30 C           2.7915    1.1226   32.3217 C.ar    1  UNL1        0.1643
     31 N           1.5745    1.8867   32.7521 N.ar    1  UNL1       -0.2322
     32 C           1.9799    2.8228   33.8519 C.ar    1  UNL1        0.1066
     33 C           3.4474    2.6373   34.1011 C.ar    1  UNL1        0.0577
     34 S           3.9489    1.5866   33.1554 S.2     1  UNL1       -0.0614
@<TRIPOS>BOND
     1    23    24    2
     2    24    30    1
     3    30    31   ar
     4    31    32   ar
     5    32    33   ar
     6    33    34   ar
     7    24    25   am
     8    25    26    1
     9    26    27    1
    10    27    28    1
    11    28    21    1
    12    21     1    1
    13     1     2   ar
    14     2     3   ar
    15     3     4   ar
    16     4     5   ar
    17     5     7    1
    18     7     8   ar
    19     8     9   ar
    20     9    18    1
    21    18    19    1
    22    19    20    1
    23     9    10   ar
    24    10    11   ar
    25    11    12    1
    26    12    13   ar
    27    13    14   ar
    28    14    15   ar
    29    15    16   ar
    30    16    17   ar
    31     5     6   ar
    32    28    29    1
    33    34    30   ar
    34    29    25    1
    35     6     1   ar
    36    11     7   ar
    37    17    12   ar
    38    20    18    1
    39    21    22    1
@<TRIPOS>MOLECULE
*****
 34 39 0 0 0
SMALL
GASTEIGER

@<TRIPOS>ATOM
      1 C           7.4289    0.1751   18.9557 C.ar    1  UNL1        0.2182
      2 N           7.6605    0.3056   17.4795 N.ar    1  UNL1       -0.2122
      3 C           6.5078    0.5860   16.5615 C.ar    1  UNL1        0.1049
      4 C           5.1236    0.7359   17.1197 C.ar    1  UNL1        0.0582
      5 C           4.8921    0.6054   18.5960 C.ar    1  UNL1        0.1533
      6 N           6.0448    0.3250   19.5140 N.ar    1  UNL1       -0.1960
      7 N           3.5080    0.7553   19.1542 N.ar    1  UNL1       -0.2739
      8 C           2.5564    1.8775   18.8626 C.ar    1  UNL1        0.0974
      9 C           1.2927    1.6251   19.6302 C.ar    1  UNL1        0.0778
     10 N           1.4632    0.3468   20.3963 N.ar    1  UNL1       -0.2307
     11 C           2.8324   -0.1907   20.1021 C.ar    1  UNL1        0.1484
     12 C           3.4223   -1.4528   20.6583 C.ar    1  UNL1        0.0345
     13 C           3.8053   -1.5269   22.1067 C.ar    1  UNL1        0.0030
     14 C           4.3952   -2.7889   22.6629 C.ar    1  UNL1        0.0001
     15 C           4.6021   -3.9768   21.7706 C.ar    1  UNL1        0.0000
     16 C           4.2191   -3.9027   20.3223 C.ar    1  UNL1        0.0001
     17 C           3.6291   -2.6406   19.7661 C.ar    1  UNL1        0.0030
     18 C           0.0726    2.4977   19.6315 C.3     1  UNL1        0.0419
     19 C          -1.1236    3.0571   20.3429 C.3     1  UNL1        0.0064
     20 C          -0.8443    3.4498   18.9224 C.3     1  UNL1        0.0064
     21 N           8.5816   -0.1053   19.8738 N.pl3   1  UNL1       -0.3028
     22 H           9.4516    0.3285   19.7182 H       1  UNL1        0.1496
     23 O           8.0375   -5.5806   21.6482 O.2     1  UNL1       -0.2677
     24 C           8.0115   -4.5220   22.7106 C.2     1  UNL1        0.2730
     25 N           8.1467   -3.0767   22.3327 N.am    1  UNL1       -0.2727
     26 C           8.1387   -1.9133   23.2797 C.3     1  UNL1        0.0956
     27 C           8.3007   -0.6586   22.4738 C.3     1  UNL1        0.0428
     28 C           8.4087   -1.0465   21.0288 C.3     1  UNL1        0.0932
     29 C           8.3136   -2.5409   20.9417 C.3     1  UNL1        0.1133
     30 C           7.8503   -4.9088   24.1509 C.ar    1  UNL1        0.1643
     31 N           6.6339   -4.6732   24.9963 N.ar    1  UNL1       -0.2322
     32 C           6.9091   -5.2179   26.3665 C.ar    1  UNL1        0.1066
     33 C           8.2956   -5.7901   26.3680 C.ar    1  UNL1        0.0577
     34 S           8.8773   -5.5991   24.9987 S.2     1  UNL1       -0.0614
@<TRIPOS>BOND
     1    23    24    2
     2    24    30    1
     3    30    31   ar
     4    31    32   ar
     5    32    33   ar
     6    33    34   ar
     7    24    25   am
     8    25    26    1
     9    26    27    1
    10    27    28    1
    11    28    21    1
    12    21     1    1
    13     1     2   ar
    14     2     3   ar
    15     3     4   ar
    16     4     5   ar
    17     5     7    1
    18     7     8   ar
    19     8     9   ar
    20     9    18    1
    21    18    19    1
    22    19    20    1
    23     9    10   ar
    24    10    11   ar
    25    11    12    1
    26    12    13   ar
    27    13    14   ar
    28    14    15   ar
    29    15    16   ar
    30    16    17   ar
    31     5     6   ar
    32    28    29    1
    33    34    30   ar
    34    29    25    1
    35     6     1   ar
    36    11     7   ar
    37    17    12   ar
    38    20    18    1
    39    21    22    1
@<TRIPOS>MOLECULE
*****
 34 39 0 0 0
SMALL
GASTEIGER

@<TRIPOS>ATOM
      1 C           0.8879    2.1179   26.7076 C.ar    1  UNL1        0.2182
      2 N          -0.5495    1.6911   26.6671 N.ar    1  UNL1       -0.2122
      3 C          -1.1334    0.9136   27.8092 C.ar    1  UNL1        0.1049
      4 C          -0.2799    0.5627   28.9918 C.ar    1  UNL1        0.0582
      5 C           1.1575    0.9895   29.0323 C.ar    1  UNL1        0.1533
      6 N           1.7414    1.7671   27.8902 N.ar    1  UNL1       -0.1960
      7 N           2.0110    0.6387   30.2148 N.ar    1  UNL1       -0.2739
      8 C           2.7002   -0.6733   30.4466 C.ar    1  UNL1        0.0974
      9 C           3.4403   -0.5846   31.7483 C.ar    1  UNL1        0.0778
     10 N           3.2085    0.7822   32.3210 N.ar    1  UNL1       -0.2307
     11 C           2.3251    1.5382   31.3733 C.ar    1  UNL1        0.1484
     12 C           1.8409    2.9465   31.5527 C.ar    1  UNL1        0.0345
     13 C           2.5473    4.0761   30.8631 C.ar    1  UNL1        0.0030
     14 C           2.0631    5.4844   31.0425 C.ar    1  UNL1        0.0001
     15 C           0.8726    5.7633   31.9113 C.ar    1  UNL1        0.0000
     16 C           0.1663    4.6338   32.6008 C.ar    1  UNL1        0.0001
     17 C           0.6505    3.2255   32.4215 C.ar    1  UNL1        0.0030
     18 C           4.2670   -1.6718   32.3683 C.3     1  UNL1        0.0419
     19 C           4.4711   -2.6934   33.4474 C.3     1  UNL1        0.0064
     20 C           5.4949   -2.5334   32.3629 C.3     1  UNL1        0.0064
     21 N           1.4718    2.8955   25.5655 N.pl3   1  UNL1       -0.3028
     22 H           1.5969    3.8688   25.6456 H       1  UNL1        0.1496
     23 O          -0.2615    0.3606   20.6672 O.2     1  UNL1       -0.2677
     24 C           1.2169    0.4052   20.9165 C.2     1  UNL1        0.2730
     25 N           1.7481    1.0456   22.1646 N.am    1  UNL1       -0.2727
     26 C           3.1935    1.1645   22.5481 C.3     1  UNL1        0.0956
     27 C           3.2658    1.8720   23.8688 C.3     1  UNL1        0.0428
     28 C           1.8653    2.1903   24.3015 C.3     1  UNL1        0.0932
     29 C           0.9274    1.6796   23.2483 C.3     1  UNL1        0.1133
     30 C           2.1642   -0.1907   19.9177 C.ar    1  UNL1        0.1643
     31 N           2.6025    0.4434   18.6309 N.ar    1  UNL1       -0.2322
     32 C           3.5487   -0.4994   17.9483 C.ar    1  UNL1        0.1066
     33 C           3.6951   -1.7162   18.8132 C.ar    1  UNL1        0.0577
     34 S           2.8395   -1.5254   20.0303 S.2     1  UNL1       -0.0614
@<TRIPOS>BOND
     1    23    24    2
     2    24    30    1
     3    30    31   ar
     4    31    32   ar
     5    32    33   ar
     6    33    34   ar
     7    24    25   am
     8    25    26    1
     9    26    27    1
    10    27    28    1
    11    28    21    1
    12    21     1    1
    13     1     2   ar
    14     2     3   ar
    15     3     4   ar
    16     4     5   ar
    17     5     7    1
    18     7     8   ar
    19     8     9   ar
    20     9    18    1
    21    18    19    1
    22    19    20    1
    23     9    10   ar
    24    10    11   ar
    25    11    12    1
    26    12    13   ar
    27    13    14   ar
    28    14    15   ar
    29    15    16   ar
    30    16    17   ar
    31     5     6   ar
    32    28    29    1
    33    34    30   ar
    34    29    25    1
    35     6     1   ar
    36    11     7   ar
    37    17    12   ar
    38    20    18    1
    39    21    22    1
@<TRIPOS>MOLECULE
*****
 34 39 0 0 0
SMALL
GASTEIGER

@<TRIPOS>ATOM
      1 C           6.8346    0.3331   22.7496 C.ar    1  UNL1        0.2182
      2 N           8.1501    0.5648   22.0672 N.ar    1  UNL1       -0.2122
      3 C           8.1846    0.9789   20.6259 C.ar    1  UNL1        0.1049
      4 C           6.9037    1.1611   19.8671 C.ar    1  UNL1        0.0582
      5 C           5.5882    0.9294   20.5495 C.ar    1  UNL1        0.1533
      6 N           5.5536    0.5154   21.9907 N.ar    1  UNL1       -0.1960
      7 N           4.3072    1.1117   19.7906 N.ar    1  UNL1       -0.2739
      8 C           3.5569    2.3998   19.6237 C.ar    1  UNL1        0.0974
      9 C           2.3376    2.1221   18.7953 C.ar    1  UNL1        0.0778
     10 N           2.3343    0.6623   18.4502 N.ar    1  UNL1       -0.2307
     11 C           3.5516    0.0379   19.0653 C.ar    1  UNL1        0.1484
     12 C           3.9443   -1.4068   18.9716 C.ar    1  UNL1        0.0345
     13 C           5.1758   -1.8015   18.2114 C.ar    1  UNL1        0.0030
     14 C           5.5685   -3.2461   18.1177 C.ar    1  UNL1        0.0001
     15 C           4.7298   -4.2961   18.7841 C.ar    1  UNL1        0.0000
     16 C           3.4984   -3.9014   19.5443 C.ar    1  UNL1        0.0001
     17 C           3.1057   -2.4567   19.6380 C.ar    1  UNL1        0.0030
     18 C           1.3032    3.1276   18.3842 C.3     1  UNL1        0.0419
     19 C           0.8987    4.5524   18.1471 C.3     1  UNL1        0.0064
     20 C          -0.0839    3.4443   17.9093 C.3     1  UNL1        0.0064
     21 N           6.8000   -0.0810   24.1910 N.pl3   1  UNL1       -0.3028
     22 H           7.6262   -0.3747   24.6387 H       1  UNL1        0.1496
     23 O           3.2660    2.9131   27.6508 O.2     1  UNL1       -0.2677
     24 C           2.8154    1.5386   27.2537 C.2     1  UNL1        0.2730
     25 N           3.6753    0.6970   26.3579 N.am    1  UNL1       -0.2727
     26 C           3.3581   -0.6886   25.8788 C.3     1  UNL1        0.0956
     27 C           4.4900   -1.1487   25.0088 C.3     1  UNL1        0.0428
     28 C           5.5068   -0.0474   24.9501 C.3     1  UNL1        0.0932
     29 C           5.0032    1.0933   25.7839 C.3     1  UNL1        0.1133
     30 C           1.5050    1.0057   27.7524 C.ar    1  UNL1        0.1643
     31 N           0.1470    1.3825   27.2385 N.ar    1  UNL1       -0.2322
     32 C          -0.8748    0.6121   28.0211 C.ar    1  UNL1        0.1066
     33 C          -0.1484   -0.2408   29.0186 C.ar    1  UNL1        0.0577
     34 S           1.3224    0.0025   28.8525 S.2     1  UNL1       -0.0614
@<TRIPOS>BOND
     1    23    24    2
     2    24    30    1
     3    30    31   ar
     4    31    32   ar
     5    32    33   ar
     6    33    34   ar
     7    24    25   am
     8    25    26    1
     9    26    27    1
    10    27    28    1
    11    28    21    1
    12    21     1    1
    13     1     2   ar
    14     2     3   ar
    15     3     4   ar
    16     4     5   ar
    17     5     7    1
    18     7     8   ar
    19     8     9   ar
    20     9    18    1
    21    18    19    1
    22    19    20    1
    23     9    10   ar
    24    10    11   ar
    25    11    12    1
    26    12    13   ar
    27    13    14   ar
    28    14    15   ar
    29    15    16   ar
    30    16    17   ar
    31     5     6   ar
    32    28    29    1
    33    34    30   ar
    34    29    25    1
    35     6     1   ar
    36    11     7   ar
    37    17    12   ar
    38    20    18    1
    39    21    22    1
