@<TRIPOS>MOLECULE
*****
 31 34 0 0 0
SMALL
GASTEIGER

@<TRIPOS>ATOM
      1 C          -5.3340  -19.0267   21.9863 C.3     1  UNL1        0.1020
      2 C          -4.1127  -18.1628   22.0964 C.3     1  UNL1        0.1697
      3 O          -3.1291  -18.1069   20.9653 O.3     1  UNL1       -0.3793
      4 H          -3.4307  -18.6833   20.2459 H       1  UNL1        0.2106
      5 C          -3.8750  -17.3548   23.3377 C.3     1  UNL1        0.2358
      6 O          -4.5493  -16.0257   23.5080 O.3     1  UNL1       -0.4728
      7 C          -5.6221  -15.8561   24.5425 C.ar    1  UNL1        0.1386
      8 C          -5.2512  -15.6672   25.9836 C.ar    1  UNL1        0.0369
      9 C          -6.3240  -15.4976   27.0181 C.ar    1  UNL1        0.0031
     10 C          -7.7678  -15.5169   26.6116 C.ar    1  UNL1        0.0002
     11 C          -8.1387  -15.7058   25.1705 C.ar    1  UNL1        0.0029
     12 C          -9.5824  -15.7251   24.7640 C.ar    1  UNL1        0.0001
     13 C          -9.9533  -15.9139   23.3229 C.ar    1  UNL1        0.0000
     14 C          -8.8805  -16.0836   22.2884 C.ar    1  UNL1        0.0001
     15 C          -7.4368  -16.0643   22.6949 C.ar    1  UNL1        0.0030
     16 C          -7.0659  -15.8754   24.1359 C.ar    1  UNL1        0.0340
     17 N          -6.2507  -18.8828   20.8078 N.3     1  UNL1       -0.2972
     18 H          -6.3763  -17.8825   20.6529 H       1  UNL1        0.1233
     19 C          -7.7138  -19.3744   19.3526 C.3     1  UNL1        0.0161
     20 C          -7.6215  -19.4906   20.8452 C.3     1  UNL1        0.0462
     21 C          -7.5292  -19.6069   22.3378 C.3     1  UNL1        0.0161
     22 C          -8.9923  -20.0985   20.8826 C.3     1  UNL1        0.0424
     23 C         -10.2046  -19.2151   20.8881 C.2     1  UNL1       -0.0006
     24 C         -10.7534  -18.4639   19.7114 C.2     1  UNL1        0.0942
     25 N         -11.9689  -17.7123   20.1672 N.2     1  UNL1       -0.2482
     26 C         -12.1713  -17.9991   21.6256 C.2     1  UNL1        0.0631
     27 C         -13.2076  -17.5345   22.6055 C.3     1  UNL1        0.0717
     28 C         -13.1535  -17.9986   24.0308 C.2     1  UNL1       -0.0198
     29 C         -12.0630  -18.9274   24.4764 C.2     1  UNL1       -0.0042
     30 C         -11.0268  -19.3920   23.4965 C.2     1  UNL1        0.0006
     31 C         -11.0809  -18.9278   22.0711 C.2     1  UNL1        0.0114
@<TRIPOS>BOND
     1    19    20    1
     2    20    21    1
     3    20    22    1
     4    22    23    1
     5    23    24    2
     6    24    25    1
     7    25    26    2
     8    26    27    1
     9    27    28    1
    10    28    29    2
    11    29    30    1
    12    30    31    2
    13    20    17    1
    14    17     1    1
    15     1     2    1
    16     2     3    1
    17     2     5    1
    18     5     6    1
    19     6     7    1
    20     7     8   ar
    21     8     9   ar
    22     9    10   ar
    23    10    11   ar
    24    11    12   ar
    25    12    13   ar
    26    13    14   ar
    27    14    15   ar
    28    15    16   ar
    29    31    23    1
    30    16     7   ar
    31    31    26    1
    32    16    11   ar
    33    17    18    1
    34     3     4    1
@<TRIPOS>MOLECULE
*****
 31 34 0 0 0
SMALL
GASTEIGER

@<TRIPOS>ATOM
      1 C         -10.5933  -19.8459   21.9089 C.3     1  UNL1        0.1020
      2 C          -9.6914  -19.4969   20.7622 C.3     1  UNL1        0.1697
      3 O         -10.1416  -19.7420   19.3525 O.3     1  UNL1       -0.3793
      4 H         -11.0320  -20.1267   19.3597 H       1  UNL1        0.2106
      5 C          -8.3394  -18.9029   21.0253 C.3     1  UNL1        0.2358
      6 O          -7.3395  -19.6523   21.8551 O.3     1  UNL1       -0.4728
      7 C          -5.9670  -19.9221   21.3135 C.ar    1  UNL1        0.1386
      8 C          -5.7779  -20.9277   20.2167 C.ar    1  UNL1        0.0369
      9 C          -4.4054  -21.1975   19.6750 C.ar    1  UNL1        0.0031
     10 C          -3.2220  -20.4617   20.2301 C.ar    1  UNL1        0.0002
     11 C          -3.4111  -19.4560   21.3269 C.ar    1  UNL1        0.0029
     12 C          -2.2277  -18.7202   21.8820 C.ar    1  UNL1        0.0001
     13 C          -2.4169  -17.7146   22.9788 C.ar    1  UNL1        0.0000
     14 C          -3.7894  -17.4448   23.5205 C.ar    1  UNL1        0.0001
     15 C          -4.9728  -18.1806   22.9654 C.ar    1  UNL1        0.0030
     16 C          -4.7836  -19.1862   21.8686 C.ar    1  UNL1        0.0340
     17 N         -11.5887  -18.8430   22.4123 N.3     1  UNL1       -0.2972
     18 H         -12.1556  -18.5635   21.6118 H       1  UNL1        0.1233
     19 C         -10.4286  -18.3899   24.1294 C.3     1  UNL1        0.0161
     20 C         -11.1148  -17.5806   23.0692 C.3     1  UNL1        0.0462
     21 C         -11.8010  -16.7713   22.0091 C.3     1  UNL1        0.0161
     22 C         -10.6409  -16.3182   23.7262 C.3     1  UNL1        0.0424
     23 C          -9.1861  -15.9541   23.6896 C.2     1  UNL1       -0.0006
     24 C          -8.3724  -15.6969   22.4561 C.2     1  UNL1        0.0942
     25 N          -6.9731  -15.3672   22.8842 N.2     1  UNL1       -0.2482
     26 C          -6.9221  -15.4207   24.3825 C.2     1  UNL1        0.0631
     27 C          -5.8069  -15.1859   25.3578 C.3     1  UNL1        0.0717
     28 C          -6.0594  -15.3140   26.8307 C.2     1  UNL1       -0.0198
     29 C          -7.4271  -15.6767   27.3285 C.2     1  UNL1       -0.0042
     30 C          -8.5423  -15.9115   26.3532 C.2     1  UNL1        0.0006
     31 C          -8.2898  -15.7834   24.8802 C.2     1  UNL1        0.0114
@<TRIPOS>BOND
     1    19    20    1
     2    20    21    1
     3    20    22    1
     4    22    23    1
     5    23    24    2
     6    24    25    1
     7    25    26    2
     8    26    27    1
     9    27    28    1
    10    28    29    2
    11    29    30    1
    12    30    31    2
    13    20    17    1
    14    17     1    1
    15     1     2    1
    16     2     3    1
    17     2     5    1
    18     5     6    1
    19     6     7    1
    20     7     8   ar
    21     8     9   ar
    22     9    10   ar
    23    10    11   ar
    24    11    12   ar
    25    12    13   ar
    26    13    14   ar
    27    14    15   ar
    28    15    16   ar
    29    31    23    1
    30    16     7   ar
    31    31    26    1
    32    16    11   ar
    33    17    18    1
    34     3     4    1
@<TRIPOS>MOLECULE
*****
 31 34 0 0 0
SMALL
GASTEIGER

@<TRIPOS>ATOM
      1 C         -11.4261  -19.1970   21.8291 C.3     1  UNL1        0.1020
      2 C         -11.7364  -17.7502   21.5829 C.3     1  UNL1        0.1697
      3 O         -12.0926  -17.2839   20.2025 O.3     1  UNL1       -0.3793
      4 H         -12.0763  -18.0377   19.5923 H       1  UNL1        0.2106
      5 C         -11.6905  -16.7697   22.7172 C.3     1  UNL1        0.2358
      6 O         -10.7039  -16.9574   23.8313 O.3     1  UNL1       -0.4728
      7 C          -9.3357  -16.3507   23.7317 C.ar    1  UNL1        0.1386
      8 C          -8.8145  -15.8902   22.4027 C.ar    1  UNL1        0.0369
      9 C          -7.4462  -15.2835   22.3031 C.ar    1  UNL1        0.0031
     10 C          -6.5993  -15.1374   23.5324 C.ar    1  UNL1        0.0002
     11 C          -7.1205  -15.5980   24.8614 C.ar    1  UNL1        0.0029
     12 C          -6.2735  -15.4518   26.0907 C.ar    1  UNL1        0.0001
     13 C          -6.7947  -15.9124   27.4197 C.ar    1  UNL1        0.0000
     14 C          -8.1629  -16.5191   27.5193 C.ar    1  UNL1        0.0001
     15 C          -9.0099  -16.6652   26.2900 C.ar    1  UNL1        0.0030
     16 C          -8.4887  -16.2046   24.9611 C.ar    1  UNL1        0.0340
     17 N         -10.1884  -19.8089   21.2429 N.3     1  UNL1       -0.2972
     18 H         -10.3087  -20.8206   21.2915 H       1  UNL1        0.1233
     19 C          -8.4126  -18.8826   20.5440 C.3     1  UNL1        0.0161
     20 C          -8.8462  -19.5033   21.8388 C.3     1  UNL1        0.0462
     21 C          -9.2798  -20.1240   23.1337 C.3     1  UNL1        0.0161
     22 C          -7.5040  -19.1978   22.4347 C.3     1  UNL1        0.0424
     23 C          -6.2538  -19.6369   21.7317 C.2     1  UNL1       -0.0006
     24 C          -6.1665  -20.6794   20.6567 C.2     1  UNL1        0.0942
     25 N          -4.7301  -20.7974   20.2409 N.2     1  UNL1       -0.2482
     26 C          -3.9297  -19.8276   21.0588 C.2     1  UNL1        0.0631
     27 C          -2.4650  -19.5051   21.0837 C.3     1  UNL1        0.0717
     28 C          -1.9420  -18.4654   22.0299 C.2     1  UNL1       -0.0198
     29 C          -2.8836  -17.7481   22.9513 C.2     1  UNL1       -0.0042
     30 C          -4.3483  -18.0707   22.9264 C.2     1  UNL1        0.0006
     31 C          -4.8713  -19.1105   21.9802 C.2     1  UNL1        0.0114
@<TRIPOS>BOND
     1    19    20    1
     2    20    21    1
     3    20    22    1
     4    22    23    1
     5    23    24    2
     6    24    25    1
     7    25    26    2
     8    26    27    1
     9    27    28    1
    10    28    29    2
    11    29    30    1
    12    30    31    2
    13    20    17    1
    14    17     1    1
    15     1     2    1
    16     2     3    1
    17     2     5    1
    18     5     6    1
    19     6     7    1
    20     7     8   ar
    21     8     9   ar
    22     9    10   ar
    23    10    11   ar
    24    11    12   ar
    25    12    13   ar
    26    13    14   ar
    27    14    15   ar
    28    15    16   ar
    29    31    23    1
    30    16     7   ar
    31    31    26    1
    32    16    11   ar
    33    17    18    1
    34     3     4    1
@<TRIPOS>MOLECULE
*****
 31 34 0 0 0
SMALL
GASTEIGER

@<TRIPOS>ATOM
      1 C          -6.5549  -15.1632   24.2223 C.3     1  UNL1        0.1020
      2 C          -7.1277  -15.3343   25.5981 C.3     1  UNL1        0.1697
      3 O          -6.3832  -14.8118   26.7908 O.3     1  UNL1       -0.3793
      4 H          -5.5574  -14.3947   26.4992 H       1  UNL1        0.2106
      5 C          -8.4451  -16.0280   25.7810 C.3     1  UNL1        0.2358
      6 O          -9.4236  -16.0910   24.6459 O.3     1  UNL1       -0.4728
      7 C          -9.8874  -17.4203   24.1284 C.ar    1  UNL1        0.1386
      8 C          -9.8502  -18.6264   25.0194 C.ar    1  UNL1        0.0369
      9 C         -10.3140  -19.9558   24.5019 C.ar    1  UNL1        0.0031
     10 C         -10.8150  -20.0789   23.0934 C.ar    1  UNL1        0.0002
     11 C         -10.8522  -18.8728   22.2024 C.ar    1  UNL1        0.0029
     12 C         -11.3532  -18.9960   20.7940 C.ar    1  UNL1        0.0001
     13 C         -11.3904  -17.7898   19.9030 C.ar    1  UNL1        0.0000
     14 C         -10.9266  -16.4605   20.4205 C.ar    1  UNL1        0.0001
     15 C         -10.4256  -16.3373   21.8289 C.ar    1  UNL1        0.0030
     16 C         -10.3884  -17.5435   22.7199 C.ar    1  UNL1        0.0340
     17 N          -6.7722  -16.2222   23.1824 N.3     1  UNL1       -0.2972
     18 H          -7.6976  -16.6161   23.3522 H       1  UNL1        0.1233
     19 C          -4.7731  -16.5797   23.7952 C.3     1  UNL1        0.0161
     20 C          -5.8218  -17.3780   23.0790 C.3     1  UNL1        0.0462
     21 C          -6.8705  -18.1763   22.3629 C.3     1  UNL1        0.0161
     22 C          -4.8714  -18.5338   22.9757 C.3     1  UNL1        0.0424
     23 C          -4.2374  -18.8680   21.6579 C.2     1  UNL1       -0.0006
     24 C          -4.7002  -19.9253   20.6997 C.2     1  UNL1        0.0942
     25 N          -3.7782  -19.9144   19.5166 N.2     1  UNL1       -0.2482
     26 C          -2.7455  -18.8503   19.7436 C.2     1  UNL1        0.0631
     27 C          -1.5834  -18.3867   18.9162 C.3     1  UNL1        0.0717
     28 C          -0.7052  -17.2766   19.4122 C.2     1  UNL1       -0.0198
     29 C          -0.9890  -16.6299   20.7356 C.2     1  UNL1       -0.0042
     30 C          -2.1511  -17.0935   21.5630 C.2     1  UNL1        0.0006
     31 C          -3.0293  -18.2037   21.0670 C.2     1  UNL1        0.0114
@<TRIPOS>BOND
     1    19    20    1
     2    20    21    1
     3    20    22    1
     4    22    23    1
     5    23    24    2
     6    24    25    1
     7    25    26    2
     8    26    27    1
     9    27    28    1
    10    28    29    2
    11    29    30    1
    12    30    31    2
    13    20    17    1
    14    17     1    1
    15     1     2    1
    16     2     3    1
    17     2     5    1
    18     5     6    1
    19     6     7    1
    20     7     8   ar
    21     8     9   ar
    22     9    10   ar
    23    10    11   ar
    24    11    12   ar
    25    12    13   ar
    26    13    14   ar
    27    14    15   ar
    28    15    16   ar
    29    31    23    1
    30    16     7   ar
    31    31    26    1
    32    16    11   ar
    33    17    18    1
    34     3     4    1
@<TRIPOS>MOLECULE
*****
 31 34 0 0 0
SMALL
GASTEIGER

@<TRIPOS>ATOM
      1 C          -7.7932  -19.4121   19.7176 C.3     1  UNL1        0.1020
      2 C          -9.1264  -19.7327   19.1093 C.3     1  UNL1        0.1697
      3 O          -9.2321  -20.7866   18.0472 O.3     1  UNL1       -0.3793
      4 H          -8.3536  -21.1590   17.8726 H       1  UNL1        0.2106
      5 C         -10.3537  -18.9995   19.5632 C.3     1  UNL1        0.2358
      6 O         -10.2250  -17.8081   20.4654 O.3     1  UNL1       -0.4728
      7 C         -10.2623  -17.9872   21.9542 C.ar    1  UNL1        0.1386
      8 C         -11.1670  -19.0169   22.5633 C.ar    1  UNL1        0.0369
      9 C         -11.2043  -19.1960   24.0521 C.ar    1  UNL1        0.0031
     10 C         -10.3369  -18.3453   24.9318 C.ar    1  UNL1        0.0002
     11 C          -9.4321  -17.3155   24.3227 C.ar    1  UNL1        0.0029
     12 C          -8.5647  -16.4648   25.2024 C.ar    1  UNL1        0.0001
     13 C          -7.6600  -15.4350   24.5932 C.ar    1  UNL1        0.0000
     14 C          -7.6227  -15.2560   23.1044 C.ar    1  UNL1        0.0001
     15 C          -8.4901  -16.1067   22.2247 C.ar    1  UNL1        0.0030
     16 C          -9.3948  -17.1364   22.8339 C.ar    1  UNL1        0.0340
     17 N          -6.8774  -20.5207   20.1443 N.3     1  UNL1       -0.2972
     18 H          -7.4693  -21.2703   20.5024 H       1  UNL1        0.1233
     19 C          -6.8714  -19.7237   22.1102 C.3     1  UNL1        0.0161
     20 C          -5.8251  -20.2666   21.1826 C.3     1  UNL1        0.0462
     21 C          -4.7787  -20.8094   20.2551 C.3     1  UNL1        0.0161
     22 C          -4.7728  -20.0124   22.2209 C.3     1  UNL1        0.0424
     23 C          -4.0849  -18.6808   22.2812 C.2     1  UNL1       -0.0006
     24 C          -4.4933  -17.5152   23.1325 C.2     1  UNL1        0.0942
     25 N          -3.5286  -16.3950   22.8784 N.2     1  UNL1       -0.2482
     26 C          -2.5240  -16.8683   21.8700 C.2     1  UNL1        0.0631
     27 C          -1.3406  -16.1954   21.2401 C.3     1  UNL1        0.0717
     28 C          -0.5010  -16.9351   20.2412 C.2     1  UNL1       -0.0198
     29 C          -0.8448  -18.3479   19.8722 C.2     1  UNL1       -0.0042
     30 C          -2.0282  -19.0207   20.5021 C.2     1  UNL1        0.0006
     31 C          -2.8678  -18.2809   21.5009 C.2     1  UNL1        0.0114
@<TRIPOS>BOND
     1    19    20    1
     2    20    21    1
     3    20    22    1
     4    22    23    1
     5    23    24    2
     6    24    25    1
     7    25    26    2
     8    26    27    1
     9    27    28    1
    10    28    29    2
    11    29    30    1
    12    30    31    2
    13    20    17    1
    14    17     1    1
    15     1     2    1
    16     2     3    1
    17     2     5    1
    18     5     6    1
    19     6     7    1
    20     7     8   ar
    21     8     9   ar
    22     9    10   ar
    23    10    11   ar
    24    11    12   ar
    25    12    13   ar
    26    13    14   ar
    27    14    15   ar
    28    15    16   ar
    29    31    23    1
    30    16     7   ar
    31    31    26    1
    32    16    11   ar
    33    17    18    1
    34     3     4    1
@<TRIPOS>MOLECULE
*****
 31 34 0 0 0
SMALL
GASTEIGER

@<TRIPOS>ATOM
      1 C          -7.2799  -14.8281   24.8502 C.3     1  UNL1        0.1020
      2 C          -5.9223  -15.4137   25.1034 C.3     1  UNL1        0.1697
      3 O          -5.5002  -15.7514   26.5026 O.3     1  UNL1       -0.3793
      4 H          -6.2164  -15.5309   27.1185 H       1  UNL1        0.2106
      5 C          -4.9868  -15.6615   23.9574 C.3     1  UNL1        0.2358
      6 O          -4.2752  -16.9768   23.8410 O.3     1  UNL1       -0.4728
      7 C          -3.5295  -17.3176   22.5849 C.ar    1  UNL1        0.1386
      8 C          -2.3587  -16.4829   22.1579 C.ar    1  UNL1        0.0369
      9 C          -1.6130  -16.8236   20.9017 C.ar    1  UNL1        0.0031
     10 C          -2.0381  -17.9991   20.0727 C.ar    1  UNL1        0.0002
     11 C          -3.2090  -18.8339   20.4997 C.ar    1  UNL1        0.0029
     12 C          -3.6341  -20.0094   19.6706 C.ar    1  UNL1        0.0001
     13 C          -4.8049  -20.8442   20.0977 C.ar    1  UNL1        0.0000
     14 C          -5.5506  -20.5034   21.3538 C.ar    1  UNL1        0.0001
     15 C          -5.1255  -19.3279   22.1828 C.ar    1  UNL1        0.0030
     16 C          -3.9547  -18.4932   21.7558 C.ar    1  UNL1        0.0340
     17 N          -8.4841  -15.4024   25.5358 N.3     1  UNL1       -0.2972
     18 H          -8.2488  -15.4842   26.5249 H       1  UNL1        0.1233
     19 C          -9.0804  -16.2557   23.6875 C.3     1  UNL1        0.0161
     20 C          -9.0268  -16.7338   25.1082 C.3     1  UNL1        0.0462
     21 C          -8.9732  -17.2119   26.5289 C.3     1  UNL1        0.0161
     22 C          -9.5694  -18.0652   24.6806 C.3     1  UNL1        0.0424
     23 C         -10.4885  -18.1560   23.4985 C.2     1  UNL1       -0.0006
     24 C         -11.9465  -17.8038   23.4862 C.2     1  UNL1        0.0942
     25 N         -12.4700  -18.0450   22.1014 N.2     1  UNL1       -0.2482
     26 C         -11.3354  -18.5463   21.2578 C.2     1  UNL1        0.0631
     27 C         -11.2592  -18.9492   19.8150 C.3     1  UNL1        0.0717
     28 C          -9.9585  -19.4206   19.2356 C.2     1  UNL1       -0.0198
     29 C          -8.7338  -19.4892   20.0991 C.2     1  UNL1       -0.0042
     30 C          -8.8100  -19.0863   21.5419 C.2     1  UNL1        0.0006
     31 C         -10.1108  -18.6149   22.1213 C.2     1  UNL1        0.0114
@<TRIPOS>BOND
     1    19    20    1
     2    20    21    1
     3    20    22    1
     4    22    23    1
     5    23    24    2
     6    24    25    1
     7    25    26    2
     8    26    27    1
     9    27    28    1
    10    28    29    2
    11    29    30    1
    12    30    31    2
    13    20    17    1
    14    17     1    1
    15     1     2    1
    16     2     3    1
    17     2     5    1
    18     5     6    1
    19     6     7    1
    20     7     8   ar
    21     8     9   ar
    22     9    10   ar
    23    10    11   ar
    24    11    12   ar
    25    12    13   ar
    26    13    14   ar
    27    14    15   ar
    28    15    16   ar
    29    31    23    1
    30    16     7   ar
    31    31    26    1
    32    16    11   ar
    33    17    18    1
    34     3     4    1
@<TRIPOS>MOLECULE
*****
 31 34 0 0 0
SMALL
GASTEIGER

@<TRIPOS>ATOM
      1 C          -6.8665  -14.7900   24.6328 C.3     1  UNL1        0.1020
      2 C          -5.6027  -15.5408   24.9315 C.3     1  UNL1        0.1697
      3 O          -5.2134  -15.8182   26.3533 O.3     1  UNL1       -0.3793
      4 H          -5.8822  -15.4472   26.9499 H       1  UNL1        0.2106
      5 C          -4.7282  -16.0140   23.8085 C.3     1  UNL1        0.2358
      6 O          -4.1783  -17.4095   23.8230 O.3     1  UNL1       -0.4728
      7 C          -4.1712  -18.2260   22.5647 C.ar    1  UNL1        0.1386
      8 C          -5.2069  -19.2906   22.3555 C.ar    1  UNL1        0.0369
      9 C          -5.1998  -20.1070   21.0972 C.ar    1  UNL1        0.0031
     10 C          -4.1569  -19.8589   20.0481 C.ar    1  UNL1        0.0002
     11 C          -3.1210  -18.7943   20.2572 C.ar    1  UNL1        0.0029
     12 C          -2.0781  -18.5461   19.2081 C.ar    1  UNL1        0.0001
     13 C          -1.0424  -17.4816   19.4173 C.ar    1  UNL1        0.0000
     14 C          -1.0495  -16.6651   20.6756 C.ar    1  UNL1        0.0001
     15 C          -2.0924  -16.9132   21.7247 C.ar    1  UNL1        0.0030
     16 C          -3.1282  -17.9778   21.5155 C.ar    1  UNL1        0.0340
     17 N          -8.1459  -15.1736   25.3153 N.3     1  UNL1       -0.2972
     18 H          -7.9554  -15.1776   26.3173 H       1  UNL1        0.1233
     19 C          -8.7692  -16.1425   23.5341 C.3     1  UNL1        0.0161
     20 C          -8.8037  -16.4829   24.9945 C.3     1  UNL1        0.0462
     21 C          -8.8383  -16.8234   26.4549 C.3     1  UNL1        0.0161
     22 C          -9.4616  -17.7922   24.6737 C.3     1  UNL1        0.0424
     23 C         -10.3764  -17.9018   23.4899 C.2     1  UNL1       -0.0006
     24 C         -11.7985  -17.4287   23.4279 C.2     1  UNL1        0.0942
     25 N         -12.3308  -17.7382   22.0601 N.2     1  UNL1       -0.2482
     26 C         -11.2376  -18.4025   21.2767 C.2     1  UNL1        0.0631
     27 C         -11.1859  -18.9285   19.8729 C.3     1  UNL1        0.0717
     28 C          -9.9265  -19.5555   19.3528 C.2     1  UNL1       -0.0198
     29 C          -8.7186  -19.6566   20.2365 C.2     1  UNL1       -0.0042
     30 C          -8.7702  -19.1307   21.6403 C.2     1  UNL1        0.0006
     31 C         -10.0297  -18.5036   22.1604 C.2     1  UNL1        0.0114
@<TRIPOS>BOND
     1    19    20    1
     2    20    21    1
     3    20    22    1
     4    22    23    1
     5    23    24    2
     6    24    25    1
     7    25    26    2
     8    26    27    1
     9    27    28    1
    10    28    29    2
    11    29    30    1
    12    30    31    2
    13    20    17    1
    14    17     1    1
    15     1     2    1
    16     2     3    1
    17     2     5    1
    18     5     6    1
    19     6     7    1
    20     7     8   ar
    21     8     9   ar
    22     9    10   ar
    23    10    11   ar
    24    11    12   ar
    25    12    13   ar
    26    13    14   ar
    27    14    15   ar
    28    15    16   ar
    29    31    23    1
    30    16     7   ar
    31    31    26    1
    32    16    11   ar
    33    17    18    1
    34     3     4    1
@<TRIPOS>MOLECULE
*****
 31 34 0 0 0
SMALL
GASTEIGER

@<TRIPOS>ATOM
      1 C          -5.9422  -15.1139   25.0435 C.3     1  UNL1        0.1020
      2 C          -7.4234  -15.2396   25.2447 C.3     1  UNL1        0.1697
      3 O          -8.0068  -15.1119   26.6207 O.3     1  UNL1       -0.3793
      4 H          -7.2952  -14.9510   27.2599 H       1  UNL1        0.2106
      5 C          -8.3210  -15.4929   24.0700 C.3     1  UNL1        0.2358
      6 O          -9.6931  -16.0603   24.2832 O.3     1  UNL1       -0.4728
      7 C          -9.9545  -17.5124   24.0132 C.ar    1  UNL1        0.1386
      8 C          -9.8656  -18.5106   25.1293 C.ar    1  UNL1        0.0369
      9 C         -10.1270  -19.9628   24.8594 C.ar    1  UNL1        0.0031
     10 C         -10.4774  -20.4168   23.4734 C.ar    1  UNL1        0.0002
     11 C         -10.5663  -19.4186   22.3572 C.ar    1  UNL1        0.0029
     12 C         -10.9167  -19.8726   20.9712 C.ar    1  UNL1        0.0001
     13 C         -11.0056  -18.8744   19.8551 C.ar    1  UNL1        0.0000
     14 C         -10.7442  -17.4223   20.1250 C.ar    1  UNL1        0.0001
     15 C         -10.3939  -16.9683   21.5110 C.ar    1  UNL1        0.0030
     16 C         -10.3049  -17.9664   22.6271 C.ar    1  UNL1        0.0340
     17 N          -5.0732  -16.3357   25.0861 N.3     1  UNL1       -0.2972
     18 H          -4.4978  -16.2587   25.9248 H       1  UNL1        0.1233
     19 C          -4.6340  -15.4148   23.2263 C.3     1  UNL1        0.0161
     20 C          -4.1424  -16.6341   23.9484 C.3     1  UNL1        0.0462
     21 C          -3.6507  -17.8535   24.6705 C.3     1  UNL1        0.0161
     22 C          -3.2115  -16.9326   22.8107 C.3     1  UNL1        0.0424
     23 C          -3.3511  -18.2142   22.0438 C.2     1  UNL1       -0.0006
     24 C          -2.2272  -19.1029   21.5999 C.2     1  UNL1        0.0942
     25 N          -2.8205  -20.2701   20.8680 N.2     1  UNL1       -0.2482
     26 C          -4.3111  -20.1027   20.8595 C.2     1  UNL1        0.0631
     27 C          -5.4123  -20.9431   20.2840 C.3     1  UNL1        0.0717
     28 C          -6.8412  -20.5129   20.4351 C.2     1  UNL1       -0.0198
     29 C          -7.1692  -19.2423   21.1618 C.2     1  UNL1       -0.0042
     30 C          -6.0681  -18.4019   21.7374 C.2     1  UNL1        0.0006
     31 C          -4.6390  -18.8321   21.5862 C.2     1  UNL1        0.0114
@<TRIPOS>BOND
     1    19    20    1
     2    20    21    1
     3    20    22    1
     4    22    23    1
     5    23    24    2
     6    24    25    1
     7    25    26    2
     8    26    27    1
     9    27    28    1
    10    28    29    2
    11    29    30    1
    12    30    31    2
    13    20    17    1
    14    17     1    1
    15     1     2    1
    16     2     3    1
    17     2     5    1
    18     5     6    1
    19     6     7    1
    20     7     8   ar
    21     8     9   ar
    22     9    10   ar
    23    10    11   ar
    24    11    12   ar
    25    12    13   ar
    26    13    14   ar
    27    14    15   ar
    28    15    16   ar
    29    31    23    1
    30    16     7   ar
    31    31    26    1
    32    16    11   ar
    33    17    18    1
    34     3     4    1
@<TRIPOS>MOLECULE
*****
 31 34 0 0 0
SMALL
GASTEIGER

@<TRIPOS>ATOM
      1 C          -5.7936  -15.2514   24.1070 C.3     1  UNL1        0.1020
      2 C          -4.7550  -16.1743   24.6726 C.3     1  UNL1        0.1697
      3 O          -4.6684  -16.3875   26.1548 O.3     1  UNL1       -0.3793
      4 H          -5.3504  -15.8588   26.5979 H       1  UNL1        0.2106
      5 C          -3.8031  -16.8839   23.7559 C.3     1  UNL1        0.2358
      6 O          -3.7948  -18.3827   23.6975 O.3     1  UNL1       -0.4728
      7 C          -3.8512  -19.0820   22.3717 C.ar    1  UNL1        0.1386
      8 C          -2.6006  -19.6514   21.7703 C.ar    1  UNL1        0.0369
      9 C          -2.6570  -20.3507   20.4445 C.ar    1  UNL1        0.0031
     10 C          -3.9639  -20.4805   19.7200 C.ar    1  UNL1        0.0002
     11 C          -5.2146  -19.9110   20.3214 C.ar    1  UNL1        0.0029
     12 C          -6.5216  -20.0409   19.5969 C.ar    1  UNL1        0.0001
     13 C          -7.7722  -19.4714   20.1982 C.ar    1  UNL1        0.0000
     14 C          -7.7158  -18.7721   21.5241 C.ar    1  UNL1        0.0001
     15 C          -6.4089  -18.6423   22.2485 C.ar    1  UNL1        0.0030
     16 C          -5.1583  -19.2118   21.6472 C.ar    1  UNL1        0.0340
     17 N          -6.9153  -14.7628   24.9748 N.3     1  UNL1       -0.2972
     18 H          -6.6553  -14.9734   25.9384 H       1  UNL1        0.1233
     19 C          -8.0626  -15.3687   23.2966 C.3     1  UNL1        0.0161
     20 C          -8.3039  -15.2935   24.7751 C.3     1  UNL1        0.0462
     21 C          -8.5452  -15.2183   26.2536 C.3     1  UNL1        0.0161
     22 C          -9.6926  -15.8242   24.5754 C.3     1  UNL1        0.0424
     23 C          -9.9070  -17.2865   24.3190 C.2     1  UNL1       -0.0006
     24 C          -9.6095  -18.4024   25.2763 C.2     1  UNL1        0.0942
     25 N          -9.9751  -19.6952   24.6092 N.2     1  UNL1       -0.2482
     26 C         -10.4986  -19.3783   23.2396 C.2     1  UNL1        0.0631
     27 C         -11.0081  -20.2529   22.1327 C.3     1  UNL1        0.0717
     28 C         -11.4755  -19.6390   20.8465 C.2     1  UNL1       -0.0198
     29 C         -11.4334  -18.1503   20.6671 C.2     1  UNL1       -0.0042
     30 C         -10.9238  -17.2757   21.7740 C.2     1  UNL1        0.0006
     31 C         -10.4564  -17.8897   23.0603 C.2     1  UNL1        0.0114
@<TRIPOS>BOND
     1    19    20    1
     2    20    21    1
     3    20    22    1
     4    22    23    1
     5    23    24    2
     6    24    25    1
     7    25    26    2
     8    26    27    1
     9    27    28    1
    10    28    29    2
    11    29    30    1
    12    30    31    2
    13    20    17    1
    14    17     1    1
    15     1     2    1
    16     2     3    1
    17     2     5    1
    18     5     6    1
    19     6     7    1
    20     7     8   ar
    21     8     9   ar
    22     9    10   ar
    23    10    11   ar
    24    11    12   ar
    25    12    13   ar
    26    13    14   ar
    27    14    15   ar
    28    15    16   ar
    29    31    23    1
    30    16     7   ar
    31    31    26    1
    32    16    11   ar
    33    17    18    1
    34     3     4    1
