@<TRIPOS>MOLECULE
*****
 27 30 0 0 0
SMALL
GASTEIGER

@<TRIPOS>ATOM
      1 C         -13.4528   -4.7536   18.4746 C.ar    1  UNL1        0.2035
      2 N         -13.6483   -3.2901   18.2100 N.ar    1  UNL1       -0.2133
      3 C         -12.4896   -2.3451   18.3290 C.ar    1  UNL1        0.1065
      4 C         -11.1353   -2.8635   18.7127 C.ar    1  UNL1        0.0815
      5 C         -10.9398   -4.3270   18.9773 C.ar    1  UNL1        0.2646
      6 O          -9.5855   -4.8454   19.3609 O.2     1  UNL1       -0.2668
      7 N         -12.0986   -5.2720   18.8582 N.ar    1  UNL1       -0.2667
      8 C         -11.9031   -6.7355   19.1228 C.3     1  UNL1        0.1363
      9 C         -13.8081   -6.3849   15.9821 C.3     1  UNL1        0.0233
     10 C         -14.7893   -6.5143   17.1093 C.3     1  UNL1        0.0953
     11 C         -15.9480   -7.4593   16.9903 C.3     1  UNL1        0.1119
     12 N         -16.9292   -7.5886   18.1175 N.pl3   1  UNL1       -0.2898
     13 C         -16.7515   -6.7730   19.3637 C.3     1  UNL1        0.1137
     14 C         -15.5928   -5.8280   19.4828 C.3     1  UNL1        0.1150
     15 N         -14.6116   -5.6986   18.3555 N.pl3   1  UNL1       -0.2777
     16 C         -18.0880   -8.5337   17.9985 C.ar    1  UNL1        0.1318
     17 C         -18.8383   -8.9586   19.2258 C.ar    1  UNL1        0.0343
     18 C         -19.9971   -9.9036   19.1068 C.ar    1  UNL1        0.0045
     19 C         -20.4055  -10.4237   17.7604 C.ar    1  UNL1        0.0208
     20 C         -19.6552   -9.9988   16.5331 C.ar    1  UNL1        0.1003
     21 N         -18.4964   -9.0537   16.6521 N.ar    1  UNL1       -0.2292
     22 C         -12.6851   -0.8816   18.0644 C.ar    1  UNL1        0.1024
     23 C         -13.9042   -0.1812   18.5872 C.ar    1  UNL1        0.0414
     24 C         -14.0997    1.2822   18.3226 C.ar    1  UNL1        0.1023
     25 N         -13.0762    2.0454   17.5353 N.ar    1  UNL1       -0.2224
     26 C         -11.8570    1.3450   17.0125 C.ar    1  UNL1        0.1989
     27 N         -11.6615   -0.1185   17.2771 N.ar    1  UNL1       -0.2224
@<TRIPOS>BOND
     1    10     9    1
     2    10    11    1
     3    11    12    1
     4    12    16    1
     5    16    17   ar
     6    17    18   ar
     7    18    19   ar
     8    19    20   ar
     9    20    21   ar
    10    12    13    1
    11    13    14    1
    12    14    15    1
    13    15     1    1
    14     1     2   ar
    15     2     3   ar
    16     3    22    1
    17    22    23   ar
    18    23    24   ar
    19    24    25   ar
    20    25    26   ar
    21    26    27   ar
    22     3     4   ar
    23     4     5   ar
    24     5     6    2
    25     5     7   ar
    26     7     8    1
    27    15    10    1
    28     7     1   ar
    29    21    16   ar
    30    27    22   ar
@<TRIPOS>MOLECULE
*****
 27 30 0 0 0
SMALL
GASTEIGER

@<TRIPOS>ATOM
      1 C         -12.6693   -4.0852   17.2207 C.ar    1  UNL1        0.2035
      2 N         -13.1625   -2.6753   17.3582 N.ar    1  UNL1       -0.2133
      3 C         -12.2061   -1.5288   17.2142 C.ar    1  UNL1        0.1065
      4 C         -10.7564   -1.7922   16.9326 C.ar    1  UNL1        0.0815
      5 C         -10.2632   -3.2021   16.7951 C.ar    1  UNL1        0.2646
      6 O          -8.8137   -3.4655   16.5135 O.2     1  UNL1       -0.2668
      7 N         -11.2197   -4.3486   16.9391 N.ar    1  UNL1       -0.2667
      8 C         -10.7265   -5.7586   16.8016 C.3     1  UNL1        0.1363
      9 C         -13.2280   -5.2411   19.9321 C.3     1  UNL1        0.0233
     10 C         -13.9051   -5.8097   18.7204 C.3     1  UNL1        0.0953
     11 C         -14.8615   -6.9562   18.8644 C.3     1  UNL1        0.1119
     12 N         -15.5386   -7.5248   17.6527 N.pl3   1  UNL1       -0.2898
     13 C         -15.2593   -6.9469   16.2970 C.3     1  UNL1        0.1137
     14 C         -14.3028   -5.8004   16.1530 C.3     1  UNL1        0.1150
     15 N         -13.6257   -5.2318   17.3647 N.pl3   1  UNL1       -0.2777
     16 C         -16.4951   -8.6713   17.7968 C.ar    1  UNL1        0.1318
     17 C         -17.8842   -8.5635   17.2411 C.ar    1  UNL1        0.0343
     18 C         -18.8406   -9.7100   17.3851 C.ar    1  UNL1        0.0045
     19 C         -18.4080  -10.9643   18.0848 C.ar    1  UNL1        0.0208
     20 C         -17.0189  -11.0721   18.6405 C.ar    1  UNL1        0.1003
     21 N         -16.0624   -9.9256   18.4964 N.ar    1  UNL1       -0.2292
     22 C         -12.6993   -0.1189   17.3517 C.ar    1  UNL1        0.1024
     23 C         -13.8432    0.1891   18.2717 C.ar    1  UNL1        0.0414
     24 C         -14.3364    1.5990   18.4093 C.ar    1  UNL1        0.1023
     25 N         -13.6856    2.7009   17.6268 N.ar    1  UNL1       -0.2224
     26 C         -12.5416    2.3929   16.7068 C.ar    1  UNL1        0.1989
     27 N         -12.0484    0.9830   16.5692 N.ar    1  UNL1       -0.2224
@<TRIPOS>BOND
     1    10     9    1
     2    10    11    1
     3    11    12    1
     4    12    16    1
     5    16    17   ar
     6    17    18   ar
     7    18    19   ar
     8    19    20   ar
     9    20    21   ar
    10    12    13    1
    11    13    14    1
    12    14    15    1
    13    15     1    1
    14     1     2   ar
    15     2     3   ar
    16     3    22    1
    17    22    23   ar
    18    23    24   ar
    19    24    25   ar
    20    25    26   ar
    21    26    27   ar
    22     3     4   ar
    23     4     5   ar
    24     5     6    2
    25     5     7   ar
    26     7     8    1
    27    15    10    1
    28     7     1   ar
    29    21    16   ar
    30    27    22   ar
@<TRIPOS>MOLECULE
*****
 27 30 0 0 0
SMALL
GASTEIGER

@<TRIPOS>ATOM
      1 C          -2.0049    3.2427   26.3696 C.ar    1  UNL1        0.2035
      2 N          -3.2816    3.9147   26.7800 N.ar    1  UNL1       -0.2133
      3 C          -4.2068    4.4681   25.7370 C.ar    1  UNL1        0.1065
      4 C          -3.8552    4.3495   24.2836 C.ar    1  UNL1        0.0815
      5 C          -2.5785    3.6775   23.8732 C.ar    1  UNL1        0.2646
      6 O          -2.2268    3.5589   22.4199 O.2     1  UNL1       -0.2668
      7 N          -1.6533    3.1241   24.9163 N.ar    1  UNL1       -0.2667
      8 C          -0.3766    2.4521   24.5059 C.3     1  UNL1        0.1363
      9 C           0.1482    4.9754   27.5365 C.3     1  UNL1        0.0233
     10 C          -0.0033    3.5556   27.9961 C.3     1  UNL1        0.0953
     11 C           0.9218    3.0022   29.0391 C.3     1  UNL1        0.1119
     12 N           0.7703    1.5824   29.4988 N.pl3   1  UNL1       -0.2898
     13 C          -0.3062    0.7160   28.9153 C.3     1  UNL1        0.1137
     14 C          -1.2313    1.2695   27.8723 C.3     1  UNL1        0.1150
     15 N          -1.0798    2.6893   27.4127 N.pl3   1  UNL1       -0.2777
     16 C           1.6955    1.0290   30.5418 C.ar    1  UNL1        0.1318
     17 C           2.4166   -0.2630   30.2953 C.ar    1  UNL1        0.0343
     18 C           3.3416   -0.8164   31.3383 C.ar    1  UNL1        0.0045
     19 C           3.5457   -0.0778   32.6279 C.ar    1  UNL1        0.0208
     20 C           2.8246    1.2142   32.8744 C.ar    1  UNL1        0.1003
     21 N           1.8995    1.7676   31.8313 N.ar    1  UNL1       -0.2292
     22 C          -5.4835    5.1401   26.1474 C.ar    1  UNL1        0.1024
     23 C          -6.5443    5.4229   25.1253 C.ar    1  UNL1        0.0414
     24 C          -7.8210    6.0949   25.5357 C.ar    1  UNL1        0.1023
     25 N          -8.0369    6.4841   26.9681 N.ar    1  UNL1       -0.2224
     26 C          -6.9761    6.2013   27.9902 C.ar    1  UNL1        0.1989
     27 N          -5.6994    5.5293   27.5799 N.ar    1  UNL1       -0.2224
@<TRIPOS>BOND
     1    10     9    1
     2    10    11    1
     3    11    12    1
     4    12    16    1
     5    16    17   ar
     6    17    18   ar
     7    18    19   ar
     8    19    20   ar
     9    20    21   ar
    10    12    13    1
    11    13    14    1
    12    14    15    1
    13    15     1    1
    14     1     2   ar
    15     2     3   ar
    16     3    22    1
    17    22    23   ar
    18    23    24   ar
    19    24    25   ar
    20    25    26   ar
    21    26    27   ar
    22     3     4   ar
    23     4     5   ar
    24     5     6    2
    25     5     7   ar
    26     7     8    1
    27    15    10    1
    28     7     1   ar
    29    21    16   ar
    30    27    22   ar
@<TRIPOS>MOLECULE
*****
 27 30 0 0 0
SMALL
GASTEIGER

@<TRIPOS>ATOM
      1 C         -12.5380   -4.3946   18.2318 C.ar    1  UNL1        0.2035
      2 N         -13.6876   -5.3575   18.2700 N.ar    1  UNL1       -0.2133
      3 C         -13.4486   -6.7976   18.6146 C.ar    1  UNL1        0.1065
      4 C         -12.0599   -7.2750   18.9211 C.ar    1  UNL1        0.0815
      5 C         -10.9104   -6.3122   18.8829 C.ar    1  UNL1        0.2646
      6 O          -9.5218   -6.7895   19.1893 O.2     1  UNL1       -0.2668
      7 N         -11.1494   -4.8719   18.5382 N.ar    1  UNL1       -0.2667
      8 C          -9.9999   -3.9091   18.5000 C.3     1  UNL1        0.1363
      9 C         -13.7008   -2.5353   20.2790 C.3     1  UNL1        0.0233
     10 C         -13.3585   -2.0248   18.9107 C.3     1  UNL1        0.0953
     11 C         -13.5975   -0.5847   18.5661 C.3     1  UNL1        0.1119
     12 N         -13.2552   -0.0742   17.1978 N.pl3   1  UNL1       -0.2898
     13 C         -12.6738   -1.0038   16.1742 C.3     1  UNL1        0.1137
     14 C         -12.4348   -2.4439   16.5189 C.3     1  UNL1        0.1150
     15 N         -12.7771   -2.9544   17.8871 N.pl3   1  UNL1       -0.2777
     16 C         -13.4943    1.3660   16.8531 C.ar    1  UNL1        0.1318
     17 C         -14.8380    1.8038   16.3503 C.ar    1  UNL1        0.0343
     18 C         -15.0771    3.2439   16.0056 C.ar    1  UNL1        0.0045
     19 C         -13.9725    4.2464   16.1638 C.ar    1  UNL1        0.0208
     20 C         -12.6288    3.8086   16.6667 C.ar    1  UNL1        0.1003
     21 N         -12.3897    2.3684   17.0114 N.ar    1  UNL1       -0.2292
     22 C         -14.5981   -7.7604   18.6528 C.ar    1  UNL1        0.1024
     23 C         -15.8588   -7.3949   19.3788 C.ar    1  UNL1        0.0414
     24 C         -17.0084   -8.3577   19.4170 C.ar    1  UNL1        0.1023
     25 N         -16.8973   -9.6861   18.7292 N.ar    1  UNL1       -0.2224
     26 C         -15.6366  -10.0517   18.0031 C.ar    1  UNL1        0.1989
     27 N         -14.4870   -9.0888   17.9649 N.ar    1  UNL1       -0.2224
@<TRIPOS>BOND
     1    10     9    1
     2    10    11    1
     3    11    12    1
     4    12    16    1
     5    16    17   ar
     6    17    18   ar
     7    18    19   ar
     8    19    20   ar
     9    20    21   ar
    10    12    13    1
    11    13    14    1
    12    14    15    1
    13    15     1    1
    14     1     2   ar
    15     2     3   ar
    16     3    22    1
    17    22    23   ar
    18    23    24   ar
    19    24    25   ar
    20    25    26   ar
    21    26    27   ar
    22     3     4   ar
    23     4     5   ar
    24     5     6    2
    25     5     7   ar
    26     7     8    1
    27    15    10    1
    28     7     1   ar
    29    21    16   ar
    30    27    22   ar
@<TRIPOS>MOLECULE
*****
 27 30 0 0 0
SMALL
GASTEIGER

@<TRIPOS>ATOM
      1 C         -13.7228   -2.1114   18.2296 C.ar    1  UNL1        0.2035
      2 N         -14.5710   -0.9211   18.5667 N.ar    1  UNL1       -0.2133
      3 C         -14.0072    0.4628   18.4360 C.ar    1  UNL1        0.1065
      4 C         -12.5952    0.6563   17.9682 C.ar    1  UNL1        0.0815
      5 C         -11.7470   -0.5340   17.6311 C.ar    1  UNL1        0.2646
      6 O         -10.3351   -0.3406   17.1633 O.2     1  UNL1       -0.2668
      7 N         -12.3109   -1.9179   17.7618 N.ar    1  UNL1       -0.2667
      8 C         -11.4627   -3.1083   17.4246 C.3     1  UNL1        0.1363
      9 C         -13.6509   -3.5165   20.8792 C.3     1  UNL1        0.0233
     10 C         -14.2507   -4.1978   19.6850 C.3     1  UNL1        0.0953
     11 C         -14.8145   -5.5816   19.8156 C.3     1  UNL1        0.1119
     12 N         -15.4144   -6.2629   18.6215 N.pl3   1  UNL1       -0.2898
     13 C         -15.4503   -5.5604   17.2967 C.3     1  UNL1        0.1137
     14 C         -14.8865   -4.1766   17.1661 C.3     1  UNL1        0.1150
     15 N         -14.2867   -3.4953   18.3602 N.pl3   1  UNL1       -0.2777
     16 C         -15.9782   -7.6468   18.7521 C.ar    1  UNL1        0.1318
     17 C         -17.1560   -7.8953   19.6471 C.ar    1  UNL1        0.0343
     18 C         -17.7199   -9.2791   19.7778 C.ar    1  UNL1        0.0045
     19 C         -17.1059  -10.4145   19.0135 C.ar    1  UNL1        0.0208
     20 C         -15.9281  -10.1660   18.1186 C.ar    1  UNL1        0.1003
     21 N         -15.3642   -8.7821   17.9879 N.ar    1  UNL1       -0.2292
     22 C         -14.8554    1.6531   18.7732 C.ar    1  UNL1        0.1024
     23 C         -16.0952    1.4807   19.5997 C.ar    1  UNL1        0.0414
     24 C         -16.9434    2.6710   19.9368 C.ar    1  UNL1        0.1023
     25 N         -16.5518    4.0338   19.4475 N.ar    1  UNL1       -0.2224
     26 C         -15.3119    4.2063   18.6209 C.ar    1  UNL1        0.1989
     27 N         -14.4638    3.0159   18.2838 N.ar    1  UNL1       -0.2224
@<TRIPOS>BOND
     1    10     9    1
     2    10    11    1
     3    11    12    1
     4    12    16    1
     5    16    17   ar
     6    17    18   ar
     7    18    19   ar
     8    19    20   ar
     9    20    21   ar
    10    12    13    1
    11    13    14    1
    12    14    15    1
    13    15     1    1
    14     1     2   ar
    15     2     3   ar
    16     3    22    1
    17    22    23   ar
    18    23    24   ar
    19    24    25   ar
    20    25    26   ar
    21    26    27   ar
    22     3     4   ar
    23     4     5   ar
    24     5     6    2
    25     5     7   ar
    26     7     8    1
    27    15    10    1
    28     7     1   ar
    29    21    16   ar
    30    27    22   ar
@<TRIPOS>MOLECULE
*****
 27 30 0 0 0
SMALL
GASTEIGER

@<TRIPOS>ATOM
      1 C         -13.9139   -5.1498   18.2496 C.ar    1  UNL1        0.2035
      2 N         -15.0538   -6.1234   18.1971 N.ar    1  UNL1       -0.2133
      3 C         -14.7795   -7.5961   18.1208 C.ar    1  UNL1        0.1065
      4 C         -13.3651   -8.0953   18.0970 C.ar    1  UNL1        0.0815
      5 C         -12.2252   -7.1217   18.1495 C.ar    1  UNL1        0.2646
      6 O         -10.8109   -7.6209   18.1257 O.2     1  UNL1       -0.2668
      7 N         -12.4996   -5.6490   18.2258 N.ar    1  UNL1       -0.2667
      8 C         -11.3597   -4.6754   18.2782 C.3     1  UNL1        0.1363
      9 C         -14.2448   -3.8219   20.9193 C.3     1  UNL1        0.0233
     10 C         -14.3538   -3.0132   19.6607 C.3     1  UNL1        0.0953
     11 C         -14.6282   -1.5405   19.7369 C.3     1  UNL1        0.1119
     12 N         -14.7371   -0.7317   18.4783 N.pl3   1  UNL1       -0.2898
     13 C         -14.5717   -1.3956   17.1435 C.3     1  UNL1        0.1137
     14 C         -14.2973   -2.8683   17.0673 C.3     1  UNL1        0.1150
     15 N         -14.1883   -3.6771   18.3259 N.pl3   1  UNL1       -0.2777
     16 C         -15.0115    0.7411   18.5546 C.ar    1  UNL1        0.1318
     17 C         -15.9185    1.2807   19.6206 C.ar    1  UNL1        0.0343
     18 C         -16.1930    2.7534   19.6969 C.ar    1  UNL1        0.0045
     19 C         -15.5604    3.6865   18.7073 C.ar    1  UNL1        0.0208
     20 C         -14.6534    3.1468   17.6413 C.ar    1  UNL1        0.1003
     21 N         -14.3790    1.6741   17.5650 N.ar    1  UNL1       -0.2292
     22 C         -15.9194   -8.5696   18.0683 C.ar    1  UNL1        0.1024
     23 C         -17.2563   -8.1317   17.5480 C.ar    1  UNL1        0.0414
     24 C         -18.3962   -9.1053   17.4955 C.ar    1  UNL1        0.1023
     25 N         -18.1992  -10.5168   17.9634 N.ar    1  UNL1       -0.2224
     26 C         -16.8622  -10.9547   18.4837 C.ar    1  UNL1        0.1989
     27 N         -15.7223   -9.9812   18.5362 N.ar    1  UNL1       -0.2224
@<TRIPOS>BOND
     1    10     9    1
     2    10    11    1
     3    11    12    1
     4    12    16    1
     5    16    17   ar
     6    17    18   ar
     7    18    19   ar
     8    19    20   ar
     9    20    21   ar
    10    12    13    1
    11    13    14    1
    12    14    15    1
    13    15     1    1
    14     1     2   ar
    15     2     3   ar
    16     3    22    1
    17    22    23   ar
    18    23    24   ar
    19    24    25   ar
    20    25    26   ar
    21    26    27   ar
    22     3     4   ar
    23     4     5   ar
    24     5     6    2
    25     5     7   ar
    26     7     8    1
    27    15    10    1
    28     7     1   ar
    29    21    16   ar
    30    27    22   ar
@<TRIPOS>MOLECULE
*****
 27 30 0 0 0
SMALL
GASTEIGER

@<TRIPOS>ATOM
      1 C          -0.5713    2.3264   21.1526 C.ar    1  UNL1        0.2035
      2 N          -1.7476    2.6207   20.2697 N.ar    1  UNL1       -0.2133
      3 C          -2.8927    3.4362   20.7930 C.ar    1  UNL1        0.1065
      4 C          -2.8614    3.9574   22.1993 C.ar    1  UNL1        0.0815
      5 C          -1.6850    3.6630   23.0822 C.ar    1  UNL1        0.2646
      6 O          -1.6537    4.1841   24.4884 O.2     1  UNL1       -0.2668
      7 N          -0.5399    2.8475   22.5588 N.ar    1  UNL1       -0.2667
      8 C           0.6364    2.5532   23.4417 C.3     1  UNL1        0.1363
      9 C           1.8510    3.6914   20.0258 C.3     1  UNL1        0.0233
     10 C           1.7849    2.1934   20.0659 C.3     1  UNL1        0.0953
     11 C           2.9299    1.3779   19.5426 C.3     1  UNL1        0.1119
     12 N           2.8638   -0.1201   19.5826 N.pl3   1  UNL1       -0.2898
     13 C           1.6527   -0.8026   20.1460 C.3     1  UNL1        0.1137
     14 C           0.5077    0.0129   20.6693 C.3     1  UNL1        0.1150
     15 N           0.5738    1.5109   20.6293 N.pl3   1  UNL1       -0.2777
     16 C           4.0089   -0.9356   19.0593 C.ar    1  UNL1        0.1318
     17 C           3.9297   -2.4335   19.0705 C.ar    1  UNL1        0.0343
     18 C           5.0747   -3.2490   18.5472 C.ar    1  UNL1        0.0045
     19 C           6.2990   -2.5666   18.0126 C.ar    1  UNL1        0.0208
     20 C           6.3781   -1.0687   18.0014 C.ar    1  UNL1        0.1003
     21 N           5.2330   -0.2532   18.5247 N.ar    1  UNL1       -0.2292
     22 C          -4.0690    3.7305   19.9101 C.ar    1  UNL1        0.1024
     23 C          -5.4577    3.7017   20.4765 C.ar    1  UNL1        0.0414
     24 C          -6.6340    3.9961   19.5936 C.ar    1  UNL1        0.1023
     25 N          -6.4218    4.3192   18.1443 N.ar    1  UNL1       -0.2224
     26 C          -5.0331    4.3480   17.5778 C.ar    1  UNL1        0.1989
     27 N          -3.8567    4.0537   18.4607 N.ar    1  UNL1       -0.2224
@<TRIPOS>BOND
     1    10     9    1
     2    10    11    1
     3    11    12    1
     4    12    16    1
     5    16    17   ar
     6    17    18   ar
     7    18    19   ar
     8    19    20   ar
     9    20    21   ar
    10    12    13    1
    11    13    14    1
    12    14    15    1
    13    15     1    1
    14     1     2   ar
    15     2     3   ar
    16     3    22    1
    17    22    23   ar
    18    23    24   ar
    19    24    25   ar
    20    25    26   ar
    21    26    27   ar
    22     3     4   ar
    23     4     5   ar
    24     5     6    2
    25     5     7   ar
    26     7     8    1
    27    15    10    1
    28     7     1   ar
    29    21    16   ar
    30    27    22   ar
@<TRIPOS>MOLECULE
*****
 27 30 0 0 0
SMALL
GASTEIGER

@<TRIPOS>ATOM
      1 C           4.2189   -1.0611   20.0601 C.ar    1  UNL1        0.2035
      2 N           4.6943   -1.7883   21.2829 N.ar    1  UNL1       -0.2133
      3 C           5.8746   -2.7098   21.1960 C.ar    1  UNL1        0.1065
      4 C           6.5796   -2.9042   19.8863 C.ar    1  UNL1        0.0815
      5 C           6.1042   -2.1769   18.6635 C.ar    1  UNL1        0.2646
      6 O           6.8091   -2.3712   17.3538 O.2     1  UNL1       -0.2668
      7 N           4.9238   -1.2554   18.7505 N.ar    1  UNL1       -0.2667
      8 C           4.4484   -0.5282   17.5277 C.3     1  UNL1        0.1363
      9 C           4.6385    1.8766   20.5009 C.3     1  UNL1        0.0233
     10 C           3.2483    1.3293   20.3675 C.3     1  UNL1        0.0953
     11 C           2.0680    2.2507   20.4544 C.3     1  UNL1        0.1119
     12 N           0.6778    1.7034   20.3209 N.pl3   1  UNL1       -0.2898
     13 C           0.4679    0.2347   20.1005 C.3     1  UNL1        0.1137
     14 C           1.6483   -0.6868   20.0136 C.3     1  UNL1        0.1150
     15 N           3.0385   -0.1395   20.1471 N.pl3   1  UNL1       -0.2777
     16 C          -0.5026    2.6250   20.4079 C.ar    1  UNL1        0.1318
     17 C          -0.8905    3.4606   19.2241 C.ar    1  UNL1        0.0343
     18 C          -2.0708    4.3821   19.3110 C.ar    1  UNL1        0.0045
     19 C          -2.8633    4.4681   20.5817 C.ar    1  UNL1        0.0208
     20 C          -2.4755    3.6325   21.7654 C.ar    1  UNL1        0.1003
     21 N          -1.2951    2.7109   21.6785 N.ar    1  UNL1       -0.2292
     22 C           6.3500   -3.4370   22.4188 C.ar    1  UNL1        0.1024
     23 C           5.9025   -2.9897   23.7788 C.ar    1  UNL1        0.0414
     24 C           6.3779   -3.7170   25.0015 C.ar    1  UNL1        0.1023
     25 N           7.3007   -4.8915   24.8643 N.ar    1  UNL1       -0.2224
     26 C           7.7482   -5.3388   23.5042 C.ar    1  UNL1        0.1989
     27 N           7.2728   -4.6116   22.2815 N.ar    1  UNL1       -0.2224
@<TRIPOS>BOND
     1    10     9    1
     2    10    11    1
     3    11    12    1
     4    12    16    1
     5    16    17   ar
     6    17    18   ar
     7    18    19   ar
     8    19    20   ar
     9    20    21   ar
    10    12    13    1
    11    13    14    1
    12    14    15    1
    13    15     1    1
    14     1     2   ar
    15     2     3   ar
    16     3    22    1
    17    22    23   ar
    18    23    24   ar
    19    24    25   ar
    20    25    26   ar
    21    26    27   ar
    22     3     4   ar
    23     4     5   ar
    24     5     6    2
    25     5     7   ar
    26     7     8    1
    27    15    10    1
    28     7     1   ar
    29    21    16   ar
    30    27    22   ar
@<TRIPOS>MOLECULE
*****
 27 30 0 0 0
SMALL
GASTEIGER

@<TRIPOS>ATOM
      1 C          -0.4877    2.5129   20.1397 C.ar    1  UNL1        0.2035
      2 N          -1.7998    2.6494   20.8538 N.ar    1  UNL1       -0.2133
      3 C          -2.7923    3.6820   20.4083 C.ar    1  UNL1        0.1065
      4 C          -2.4728    4.5782   19.2485 C.ar    1  UNL1        0.0815
      5 C          -1.1608    4.4417   18.5344 C.ar    1  UNL1        0.2646
      6 O          -0.8413    5.3378   17.3747 O.2     1  UNL1       -0.2668
      7 N          -0.1682    3.4090   18.9800 N.ar    1  UNL1       -0.2667
      8 C           1.1438    3.2725   18.2659 C.3     1  UNL1        0.1363
      9 C           1.3618    3.0990   22.4279 C.3     1  UNL1        0.0233
     10 C           1.4295    1.7733   21.7294 C.3     1  UNL1        0.0953
     11 C           2.4220    0.7406   22.1749 C.3     1  UNL1        0.1119
     12 N           2.4898   -0.5851   21.4764 N.pl3   1  UNL1       -0.2898
     13 C           1.5651   -0.8781   20.3323 C.3     1  UNL1        0.1137
     14 C           0.5726    0.1545   19.8868 C.3     1  UNL1        0.1150
     15 N           0.5048    1.4802   20.5853 N.pl3   1  UNL1       -0.2777
     16 C           3.4824   -1.6177   21.9220 C.ar    1  UNL1        0.1318
     17 C           3.9209   -1.6670   23.3556 C.ar    1  UNL1        0.0343
     18 C           4.9134   -2.6996   23.8013 C.ar    1  UNL1        0.0045
     19 C           5.4674   -3.6830   22.8133 C.ar    1  UNL1        0.0208
     20 C           5.0289   -3.6337   21.3797 C.ar    1  UNL1        0.1003
     21 N           4.0364   -2.6010   20.9340 N.ar    1  UNL1       -0.2292
     22 C          -4.1043    3.8185   21.1224 C.ar    1  UNL1        0.1024
     23 C          -4.1948    3.5177   22.5891 C.ar    1  UNL1        0.0414
     24 C          -5.5068    3.6541   23.3032 C.ar    1  UNL1        0.1023
     25 N          -6.7284    4.0915   22.5506 N.ar    1  UNL1       -0.2224
     26 C          -6.6380    4.3923   21.0838 C.ar    1  UNL1        0.1989
     27 N          -5.3259    4.2558   20.3697 N.ar    1  UNL1       -0.2224
@<TRIPOS>BOND
     1    10     9    1
     2    10    11    1
     3    11    12    1
     4    12    16    1
     5    16    17   ar
     6    17    18   ar
     7    18    19   ar
     8    19    20   ar
     9    20    21   ar
    10    12    13    1
    11    13    14    1
    12    14    15    1
    13    15     1    1
    14     1     2   ar
    15     2     3   ar
    16     3    22    1
    17    22    23   ar
    18    23    24   ar
    19    24    25   ar
    20    25    26   ar
    21    26    27   ar
    22     3     4   ar
    23     4     5   ar
    24     5     6    2
    25     5     7   ar
    26     7     8    1
    27    15    10    1
    28     7     1   ar
    29    21    16   ar
    30    27    22   ar
