@<TRIPOS>MOLECULE
*****
 24 26 0 0 0
SMALL
GASTEIGER

@<TRIPOS>ATOM
      1 C          -6.4792  -18.9369   21.5364 C.3     1  UNL1        0.1471
      2 O          -7.3924  -19.6304   20.5695 O.3     1  UNL1       -0.3812
      3 C          -5.3611  -18.4649   22.4179 C.3     1  UNL1        0.0584
      4 C          -5.8408  -17.2586   23.1693 C.ar    1  UNL1       -0.0202
      5 C          -5.1723  -16.3739   24.1794 C.ar    1  UNL1       -0.0044
      6 C          -5.9185  -15.2156   24.7724 C.ar    1  UNL1       -0.0003
      7 C          -7.3331  -14.9420   24.3552 C.ar    1  UNL1       -0.0002
      8 C          -8.0016  -15.8267   23.3451 C.ar    1  UNL1       -0.0011
      9 C          -7.2555  -16.9850   22.7522 C.ar    1  UNL1        0.0157
     10 C          -7.6499  -18.0223   21.7430 C.3     1  UNL1        0.2136
     11 H          -6.9301  -20.3851   20.1724 H       1  UNL1        0.2105
     12 C          -5.4993  -19.9965   21.1277 C.3     1  UNL1        0.1001
     13 C          -3.4852  -19.5687   19.5433 C.3     1  UNL1        0.0859
     14 N          -4.0545  -19.6456   20.9289 N.3     1  UNL1       -0.2942
     15 H          -3.9122  -18.7307   21.3569 H       1  UNL1        0.1234
     16 O          -8.9815  -18.1266   21.0603 O.3     1  UNL1       -0.4726
     17 C         -10.2432  -18.1168   21.8716 C.ar    1  UNL1        0.1349
     18 C         -10.2930  -18.8316   23.1894 C.ar    1  UNL1        0.0363
     19 C         -11.5545  -18.8219   24.0008 C.ar    1  UNL1       -0.0012
     20 C         -12.7664  -18.0974   23.4942 C.ar    1  UNL1       -0.0220
     21 C         -14.0280  -18.0876   24.3055 C.3     1  UNL1        0.0310
     22 C         -12.7166  -17.3826   22.1764 C.ar    1  UNL1       -0.0055
     23 C         -11.4550  -17.3923   21.3651 C.ar    1  UNL1        0.0118
     24 C         -11.4052  -16.6776   20.0473 C.3     1  UNL1        0.0342
@<TRIPOS>BOND
     1    13    14    1
     2    14    12    1
     3    12     1    1
     4     1     2    1
     5     1     3    1
     6     3     4    1
     7     4     5   ar
     8     5     6   ar
     9     6     7   ar
    10     7     8   ar
    11     8     9   ar
    12     9    10    1
    13    10    16    1
    14    16    17    1
    15    17    18   ar
    16    18    19   ar
    17    19    20   ar
    18    20    21    1
    19    20    22   ar
    20    22    23   ar
    21    23    24    1
    22    10     1    1
    23    23    17   ar
    24     9     4   ar
    25    14    15    1
    26     2    11    1
@<TRIPOS>MOLECULE
*****
 24 26 0 0 0
SMALL
GASTEIGER

@<TRIPOS>ATOM
      1 C          -7.4895  -15.9890   23.2863 C.3     1  UNL1        0.1471
      2 O          -8.8638  -15.4532   23.0134 O.3     1  UNL1       -0.3812
      3 C          -6.0935  -16.2786   23.7523 C.3     1  UNL1        0.0584
      4 C          -5.6222  -17.5228   23.0594 C.ar    1  UNL1       -0.0202
      5 C          -4.3299  -18.2811   23.1273 C.ar    1  UNL1       -0.0044
      6 C          -4.1423  -19.5188   22.3009 C.ar    1  UNL1       -0.0003
      7 C          -5.2472  -19.9981   21.4067 C.ar    1  UNL1       -0.0002
      8 C          -6.5395  -19.2397   21.3388 C.ar    1  UNL1       -0.0011
      9 C          -6.7271  -18.0020   22.1652 C.ar    1  UNL1        0.0157
     10 C          -7.8811  -17.0541   22.3054 C.3     1  UNL1        0.2136
     11 H          -9.0080  -14.6505   23.5384 H       1  UNL1        0.2105
     12 C          -7.3852  -14.8118   24.2101 C.3     1  UNL1        0.1001
     13 C          -8.2297  -15.4198   26.5907 C.3     1  UNL1        0.0859
     14 N          -7.1133  -15.0257   25.6697 N.3     1  UNL1       -0.2942
     15 H          -6.4066  -15.7584   25.7333 H       1  UNL1        0.1234
     16 O          -9.1959  -17.1538   21.5903 O.3     1  UNL1       -0.4726
     17 C         -10.4443  -17.4758   22.3571 C.ar    1  UNL1        0.1349
     18 C         -10.3633  -18.2906   23.6140 C.ar    1  UNL1        0.0363
     19 C         -11.6116  -18.6125   24.3808 C.ar    1  UNL1       -0.0012
     20 C         -12.9409  -18.1197   23.8908 C.ar    1  UNL1       -0.0220
     21 C         -14.1892  -18.4416   24.6576 C.3     1  UNL1        0.0310
     22 C         -13.0218  -17.3049   22.6340 C.ar    1  UNL1       -0.0055
     23 C         -11.7736  -16.9829   21.8672 C.ar    1  UNL1        0.0118
     24 C         -11.8545  -16.1682   20.6103 C.3     1  UNL1        0.0342
@<TRIPOS>BOND
     1    13    14    1
     2    14    12    1
     3    12     1    1
     4     1     2    1
     5     1     3    1
     6     3     4    1
     7     4     5   ar
     8     5     6   ar
     9     6     7   ar
    10     7     8   ar
    11     8     9   ar
    12     9    10    1
    13    10    16    1
    14    16    17    1
    15    17    18   ar
    16    18    19   ar
    17    19    20   ar
    18    20    21    1
    19    20    22   ar
    20    22    23   ar
    21    23    24    1
    22    10     1    1
    23    23    17   ar
    24     9     4   ar
    25    14    15    1
    26     2    11    1
@<TRIPOS>MOLECULE
*****
 24 26 0 0 0
SMALL
GASTEIGER

@<TRIPOS>ATOM
      1 C          -7.5142  -18.7777   21.6530 C.3     1  UNL1        0.1471
      2 O          -6.7813  -19.9821   21.1410 O.3     1  UNL1       -0.3812
      3 C          -8.4816  -17.6809   21.9868 C.3     1  UNL1        0.0584
      4 C          -7.8050  -16.7399   22.9390 C.ar    1  UNL1       -0.0202
      5 C          -8.2715  -15.4806   23.6070 C.ar    1  UNL1       -0.0044
      6 C          -7.3526  -14.7364   24.5298 C.ar    1  UNL1       -0.0003
      7 C          -5.9671  -15.2516   24.7846 C.ar    1  UNL1       -0.0002
      8 C          -5.5005  -16.5110   24.1166 C.ar    1  UNL1       -0.0011
      9 C          -6.4195  -17.2551   23.1938 C.ar    1  UNL1        0.0157
     10 C          -6.2398  -18.5145   22.3990 C.3     1  UNL1        0.2136
     11 H          -7.3576  -20.4802   20.5404 H       1  UNL1        0.2105
     12 C          -8.6355  -19.2926   20.8000 C.3     1  UNL1        0.1001
     13 C         -10.8887  -18.7910   19.6078 C.3     1  UNL1        0.0859
     14 N          -9.5493  -18.3300   20.1013 N.3     1  UNL1       -0.2942
     15 H          -9.7230  -17.5638   20.7518 H       1  UNL1        0.1234
     16 O          -5.0028  -19.3619   22.3576 O.3     1  UNL1       -0.4726
     17 C          -3.7442  -18.8224   21.7451 C.ar    1  UNL1        0.1349
     18 C          -3.0351  -17.6656   22.3844 C.ar    1  UNL1        0.0363
     19 C          -1.7766  -17.1260   21.7720 C.ar    1  UNL1       -0.0012
     20 C          -1.2273  -17.7434   20.5202 C.ar    1  UNL1       -0.0220
     21 C           0.0312  -17.2040   19.9077 C.3     1  UNL1        0.0310
     22 C          -1.9364  -18.9003   19.8808 C.ar    1  UNL1       -0.0055
     23 C          -3.1949  -19.4398   20.4932 C.ar    1  UNL1        0.0118
     24 C          -3.9041  -20.5967   19.8539 C.3     1  UNL1        0.0342
@<TRIPOS>BOND
     1    13    14    1
     2    14    12    1
     3    12     1    1
     4     1     2    1
     5     1     3    1
     6     3     4    1
     7     4     5   ar
     8     5     6   ar
     9     6     7   ar
    10     7     8   ar
    11     8     9   ar
    12     9    10    1
    13    10    16    1
    14    16    17    1
    15    17    18   ar
    16    18    19   ar
    17    19    20   ar
    18    20    21    1
    19    20    22   ar
    20    22    23   ar
    21    23    24    1
    22    10     1    1
    23    23    17   ar
    24     9     4   ar
    25    14    15    1
    26     2    11    1
@<TRIPOS>MOLECULE
*****
 24 26 0 0 0
SMALL
GASTEIGER

@<TRIPOS>ATOM
      1 C          -8.7127  -18.6884   20.5420 C.3     1  UNL1        0.1471
      2 O          -9.6595  -17.5508   20.7859 O.3     1  UNL1       -0.3812
      3 C          -8.0119  -19.9566   20.1539 C.3     1  UNL1        0.0584
      4 C          -6.6001  -19.8779   20.6546 C.ar    1  UNL1       -0.0202
      5 C          -5.4487  -20.8352   20.5655 C.ar    1  UNL1       -0.0044
      6 C          -4.1257  -20.4756   21.1738 C.ar    1  UNL1       -0.0003
      7 C          -3.9539  -19.1588   21.8713 C.ar    1  UNL1       -0.0002
      8 C          -5.1053  -18.2015   21.9605 C.ar    1  UNL1       -0.0011
      9 C          -6.4284  -18.5611   21.3521 C.ar    1  UNL1        0.0157
     10 C          -7.7340  -17.8260   21.2825 C.3     1  UNL1        0.2136
     11 H         -10.5242  -17.7615   20.4002 H       1  UNL1        0.2105
     12 C          -9.8893  -19.3131   19.8525 C.3     1  UNL1        0.1001
     13 C         -11.0421  -20.1762   22.0149 C.3     1  UNL1        0.0859
     14 N         -11.1378  -19.6167   20.6264 N.3     1  UNL1       -0.2942
     15 H         -11.6607  -18.7437   20.6961 H       1  UNL1        0.1234
     16 O          -8.0122  -16.4669   21.8532 O.3     1  UNL1       -0.4726
     17 C          -7.7136  -16.1838   23.2958 C.ar    1  UNL1        0.1349
     18 C          -6.3940  -15.5863   23.6853 C.ar    1  UNL1        0.0363
     19 C          -6.0953  -15.3032   25.1277 C.ar    1  UNL1       -0.0012
     20 C          -7.1164  -15.6175   26.1806 C.ar    1  UNL1       -0.0220
     21 C          -6.8178  -15.3344   27.6231 C.3     1  UNL1        0.0310
     22 C          -8.4359  -16.2150   25.7911 C.ar    1  UNL1       -0.0055
     23 C          -8.7346  -16.4981   24.3487 C.ar    1  UNL1        0.0118
     24 C         -10.0542  -17.0956   23.9592 C.3     1  UNL1        0.0342
@<TRIPOS>BOND
     1    13    14    1
     2    14    12    1
     3    12     1    1
     4     1     2    1
     5     1     3    1
     6     3     4    1
     7     4     5   ar
     8     5     6   ar
     9     6     7   ar
    10     7     8   ar
    11     8     9   ar
    12     9    10    1
    13    10    16    1
    14    16    17    1
    15    17    18   ar
    16    18    19   ar
    17    19    20   ar
    18    20    21    1
    19    20    22   ar
    20    22    23   ar
    21    23    24    1
    22    10     1    1
    23    23    17   ar
    24     9     4   ar
    25    14    15    1
    26     2    11    1
@<TRIPOS>MOLECULE
*****
 24 26 0 0 0
SMALL
GASTEIGER

@<TRIPOS>ATOM
      1 C          -5.8532  -17.2045   23.3119 C.3     1  UNL1        0.1471
      2 O          -7.0057  -16.5860   24.0462 O.3     1  UNL1       -0.3812
      3 C          -4.5322  -17.6024   22.7231 C.3     1  UNL1        0.0584
      4 C          -4.7631  -18.7746   21.8161 C.ar    1  UNL1       -0.0202
      5 C          -3.8297  -19.5867   20.9682 C.ar    1  UNL1       -0.0044
      6 C          -4.3599  -20.7255   20.1485 C.ar    1  UNL1       -0.0003
      7 C          -5.8237  -21.0521   20.1766 C.ar    1  UNL1       -0.0002
      8 C          -6.7572  -20.2399   21.0245 C.ar    1  UNL1       -0.0011
      9 C          -6.2269  -19.1012   21.8443 C.ar    1  UNL1        0.0157
     10 C          -6.9006  -18.1308   22.7687 C.3     1  UNL1        0.2136
     11 H          -6.6859  -15.8452   24.5846 H       1  UNL1        0.2105
     12 C          -5.0468  -16.1489   24.0085 C.3     1  UNL1        0.1001
     13 C          -5.4553  -14.9461   26.2749 C.3     1  UNL1        0.0859
     14 N          -5.7368  -15.0836   24.8080 N.3     1  UNL1       -0.2942
     15 H          -5.4973  -14.1906   24.3772 H       1  UNL1        0.1234
     16 O          -8.3646  -18.0933   23.0930 O.3     1  UNL1       -0.4726
     17 C          -9.3358  -17.5090   22.1103 C.ar    1  UNL1        0.1349
     18 C          -9.2662  -16.0513   21.7635 C.ar    1  UNL1        0.0363
     19 C         -10.2373  -15.4669   20.7810 C.ar    1  UNL1       -0.0012
     20 C         -11.2780  -16.3403   20.1452 C.ar    1  UNL1       -0.0220
     21 C         -12.2491  -15.7560   19.1626 C.3     1  UNL1        0.0310
     22 C         -11.3475  -17.7980   20.4920 C.ar    1  UNL1       -0.0055
     23 C         -10.3765  -18.3824   21.4745 C.ar    1  UNL1        0.0118
     24 C         -10.4460  -19.8401   21.8213 C.3     1  UNL1        0.0342
@<TRIPOS>BOND
     1    13    14    1
     2    14    12    1
     3    12     1    1
     4     1     2    1
     5     1     3    1
     6     3     4    1
     7     4     5   ar
     8     5     6   ar
     9     6     7   ar
    10     7     8   ar
    11     8     9   ar
    12     9    10    1
    13    10    16    1
    14    16    17    1
    15    17    18   ar
    16    18    19   ar
    17    19    20   ar
    18    20    21    1
    19    20    22   ar
    20    22    23   ar
    21    23    24    1
    22    10     1    1
    23    23    17   ar
    24     9     4   ar
    25    14    15    1
    26     2    11    1
@<TRIPOS>MOLECULE
*****
 24 26 0 0 0
SMALL
GASTEIGER

@<TRIPOS>ATOM
      1 C          -9.6444  -17.2258   21.1534 C.3     1  UNL1        0.1471
      2 O          -9.9961  -15.8318   21.5813 O.3     1  UNL1       -0.3812
      3 C          -9.5869  -18.6256   20.6175 C.3     1  UNL1        0.0584
      4 C          -8.2170  -19.1714   20.8924 C.ar    1  UNL1       -0.0202
      5 C          -7.5863  -20.4985   20.5912 C.ar    1  UNL1       -0.0044
      6 C          -6.1664  -20.7632   20.9959 C.ar    1  UNL1       -0.0003
      7 C          -5.3772  -19.7006   21.7017 C.ar    1  UNL1       -0.0002
      8 C          -6.0079  -18.3735   22.0029 C.ar    1  UNL1       -0.0011
      9 C          -7.4278  -18.1088   21.5982 C.ar    1  UNL1        0.0157
     10 C          -8.3100  -16.9064   21.7595 C.3     1  UNL1        0.2136
     11 H         -10.9125  -15.6378   21.3293 H       1  UNL1        0.2105
     12 C         -11.0523  -17.2538   20.6367 C.3     1  UNL1        0.1001
     13 C         -12.7743  -17.7638   22.5140 C.3     1  UNL1        0.0859
     14 N         -12.0615  -18.1725   21.2591 N.3     1  UNL1       -0.2942
     15 H         -12.7794  -18.3420   20.5546 H       1  UNL1        0.1234
     16 O          -7.9252  -15.6119   22.4123 O.3     1  UNL1       -0.4726
     17 C          -7.6503  -15.5678   23.8863 C.ar    1  UNL1        0.1349
     18 C          -8.7782  -15.7138   24.8643 C.ar    1  UNL1        0.0363
     19 C          -8.5034  -15.6698   26.3382 C.ar    1  UNL1       -0.0012
     20 C          -7.1006  -15.4798   26.8342 C.ar    1  UNL1       -0.0220
     21 C          -6.8256  -15.4358   28.3081 C.3     1  UNL1        0.0310
     22 C          -5.9726  -15.3338   25.8562 C.ar    1  UNL1       -0.0055
     23 C          -6.2475  -15.3779   24.3823 C.ar    1  UNL1        0.0118
     24 C          -5.1196  -15.2319   23.4043 C.3     1  UNL1        0.0342
@<TRIPOS>BOND
     1    13    14    1
     2    14    12    1
     3    12     1    1
     4     1     2    1
     5     1     3    1
     6     3     4    1
     7     4     5   ar
     8     5     6   ar
     9     6     7   ar
    10     7     8   ar
    11     8     9   ar
    12     9    10    1
    13    10    16    1
    14    16    17    1
    15    17    18   ar
    16    18    19   ar
    17    19    20   ar
    18    20    21    1
    19    20    22   ar
    20    22    23   ar
    21    23    24    1
    22    10     1    1
    23    23    17   ar
    24     9     4   ar
    25    14    15    1
    26     2    11    1
@<TRIPOS>MOLECULE
*****
 24 26 0 0 0
SMALL
GASTEIGER

@<TRIPOS>ATOM
      1 C         -14.2819   -6.0107   19.3498 C.3     1  UNL1        0.1471
      2 O         -15.2187   -5.0148   19.9666 O.3     1  UNL1       -0.3812
      3 C         -13.6037   -7.1810   18.7012 C.3     1  UNL1        0.0584
      4 C         -12.1429   -6.8622   18.5814 C.ar    1  UNL1       -0.0202
      5 C         -10.9883   -7.6402   18.0234 C.ar    1  UNL1       -0.0044
      6 C          -9.6090   -7.0510   18.0399 C.ar    1  UNL1       -0.0003
      7 C          -9.3843   -5.6837   18.6144 C.ar    1  UNL1       -0.0002
      8 C         -10.5389   -4.9057   19.1724 C.ar    1  UNL1       -0.0011
      9 C         -11.9182   -5.4949   19.1559 C.ar    1  UNL1        0.0157
     10 C         -13.2402   -4.9687   19.6308 C.3     1  UNL1        0.2136
     11 H         -16.1193   -5.3752   19.9668 H       1  UNL1        0.2105
     12 C         -15.5194   -6.8446   19.1977 C.3     1  UNL1        0.1001
     13 C         -16.7589   -8.9385   20.1085 C.3     1  UNL1        0.0859
     14 N         -15.5051   -8.2889   19.6025 N.3     1  UNL1       -0.2942
     15 H         -15.2071   -8.8209   18.7848 H       1  UNL1        0.1234
     16 O         -13.4785   -3.6346   20.2738 O.3     1  UNL1       -0.4726
     17 C         -13.2340   -2.3739   19.4985 C.ar    1  UNL1        0.1349
     18 C         -11.8482   -2.0353   19.0352 C.ar    1  UNL1        0.0363
     19 C         -11.6036   -0.7747   18.2599 C.ar    1  UNL1       -0.0012
     20 C         -12.7450    0.1473   17.9480 C.ar    1  UNL1       -0.0220
     21 C         -12.5005    1.4079   17.1728 C.3     1  UNL1        0.0310
     22 C         -14.1308   -0.1914   18.4114 C.ar    1  UNL1       -0.0055
     23 C         -14.3754   -1.4520   19.1866 C.ar    1  UNL1        0.0118
     24 C         -15.7612   -1.7906   19.6500 C.3     1  UNL1        0.0342
@<TRIPOS>BOND
     1    13    14    1
     2    14    12    1
     3    12     1    1
     4     1     2    1
     5     1     3    1
     6     3     4    1
     7     4     5   ar
     8     5     6   ar
     9     6     7   ar
    10     7     8   ar
    11     8     9   ar
    12     9    10    1
    13    10    16    1
    14    16    17    1
    15    17    18   ar
    16    18    19   ar
    17    19    20   ar
    18    20    21    1
    19    20    22   ar
    20    22    23   ar
    21    23    24    1
    22    10     1    1
    23    23    17   ar
    24     9     4   ar
    25    14    15    1
    26     2    11    1
@<TRIPOS>MOLECULE
*****
 24 26 0 0 0
SMALL
GASTEIGER

@<TRIPOS>ATOM
      1 C          -7.2084  -17.8425   22.0706 C.3     1  UNL1        0.1471
      2 O          -7.9772  -16.6712   22.6060 O.3     1  UNL1       -0.3812
      3 C          -6.2239  -18.9266   21.7454 C.3     1  UNL1        0.0584
      4 C          -6.8073  -19.7693   20.6502 C.ar    1  UNL1       -0.0202
      5 C          -6.2876  -20.9767   19.9277 C.ar    1  UNL1       -0.0044
      6 C          -7.1129  -21.6209   18.8536 C.ar    1  UNL1       -0.0003
      7 C          -8.4579  -21.0577   18.5018 C.ar    1  UNL1       -0.0002
      8 C          -8.9776  -19.8502   19.2243 C.ar    1  UNL1       -0.0011
      9 C          -8.1523  -19.2060   20.2984 C.ar    1  UNL1        0.0157
     10 C          -8.4002  -18.0153   21.1763 C.3     1  UNL1        0.2136
     11 H          -7.4616  -16.2378   23.3040 H       1  UNL1        0.2105
     12 C          -6.1773  -17.4250   23.0768 C.3     1  UNL1        0.1001
     13 C          -3.7224  -16.5775   23.0034 C.3     1  UNL1        0.0859
     14 N          -4.7231  -17.6779   22.8097 N.3     1  UNL1       -0.2942
     15 H          -4.4403  -18.4440   23.4209 H       1  UNL1        0.1234
     16 O          -9.6248  -17.1492   21.1623 O.3     1  UNL1       -0.4726
     17 C         -10.7705  -17.4554   22.0810 C.ar    1  UNL1        0.1349
     18 C         -10.5252  -18.1850   23.3684 C.ar    1  UNL1        0.0363
     19 C         -11.6707  -18.4911   24.2871 C.ar    1  UNL1       -0.0012
     20 C         -13.0616  -18.0677   23.9182 C.ar    1  UNL1       -0.0220
     21 C         -14.2072  -18.3738   24.8368 C.3     1  UNL1        0.0310
     22 C         -13.3069  -17.3381   22.6308 C.ar    1  UNL1       -0.0055
     23 C         -12.1614  -17.0319   21.7121 C.ar    1  UNL1        0.0118
     24 C         -12.4067  -16.3024   20.4247 C.3     1  UNL1        0.0342
@<TRIPOS>BOND
     1    13    14    1
     2    14    12    1
     3    12     1    1
     4     1     2    1
     5     1     3    1
     6     3     4    1
     7     4     5   ar
     8     5     6   ar
     9     6     7   ar
    10     7     8   ar
    11     8     9   ar
    12     9    10    1
    13    10    16    1
    14    16    17    1
    15    17    18   ar
    16    18    19   ar
    17    19    20   ar
    18    20    21    1
    19    20    22   ar
    20    22    23   ar
    21    23    24    1
    22    10     1    1
    23    23    17   ar
    24     9     4   ar
    25    14    15    1
    26     2    11    1
@<TRIPOS>MOLECULE
*****
 24 26 0 0 0
SMALL
GASTEIGER

@<TRIPOS>ATOM
      1 C         -12.9198   -3.4932   18.5122 C.3     1  UNL1        0.1471
      2 O         -14.3192   -3.2249   18.0436 O.3     1  UNL1       -0.3812
      3 C         -11.5258   -3.4597   19.0651 C.3     1  UNL1        0.0584
      4 C         -10.9308   -4.8274   18.9056 C.ar    1  UNL1       -0.0202
      5 C          -9.5871   -5.3860   19.2694 C.ar    1  UNL1       -0.0044
      6 C          -9.2697   -6.8235   18.9817 C.ar    1  UNL1       -0.0003
      7 C         -10.2959   -7.7024   18.3303 C.ar    1  UNL1       -0.0002
      8 C         -11.6396   -7.1437   17.9665 C.ar    1  UNL1       -0.0011
      9 C         -11.9570   -5.7062   18.2541 C.ar    1  UNL1        0.0157
     10 C         -13.1863   -4.8817   18.0110 C.3     1  UNL1        0.2136
     11 H         -14.5471   -2.2986   18.2199 H       1  UNL1        0.2105
     12 C         -12.9458   -2.0487   18.9155 C.3     1  UNL1        0.1001
     13 C         -13.0223    0.4420   18.1803 C.3     1  UNL1        0.0859
     14 N         -12.6411   -0.9824   17.9054 N.3     1  UNL1       -0.2942
     15 H         -11.6316   -0.9943   17.7602 H       1  UNL1        0.1234
     16 O         -14.4587   -5.3614   17.3779 O.3     1  UNL1       -0.4726
     17 C         -15.1163   -6.6156   17.8727 C.ar    1  UNL1        0.1349
     18 C         -14.8453   -7.9238   17.1908 C.ar    1  UNL1        0.0363
     19 C         -15.5028   -9.1779   17.6856 C.ar    1  UNL1       -0.0012
     20 C         -16.4314   -9.1237   18.8624 C.ar    1  UNL1       -0.0220
     21 C         -17.0890  -10.3778   19.3572 C.3     1  UNL1        0.0310
     22 C         -16.7024   -7.8155   19.5443 C.ar    1  UNL1       -0.0055
     23 C         -16.0449   -6.5614   19.0495 C.ar    1  UNL1        0.0118
     24 C         -16.3159   -5.2531   19.7314 C.3     1  UNL1        0.0342
@<TRIPOS>BOND
     1    13    14    1
     2    14    12    1
     3    12     1    1
     4     1     2    1
     5     1     3    1
     6     3     4    1
     7     4     5   ar
     8     5     6   ar
     9     6     7   ar
    10     7     8   ar
    11     8     9   ar
    12     9    10    1
    13    10    16    1
    14    16    17    1
    15    17    18   ar
    16    18    19   ar
    17    19    20   ar
    18    20    21    1
    19    20    22   ar
    20    22    23   ar
    21    23    24    1
    22    10     1    1
    23    23    17   ar
    24     9     4   ar
    25    14    15    1
    26     2    11    1
