@<TRIPOS>MOLECULE
*****
 21 24 0 0 0
SMALL
GASTEIGER

@<TRIPOS>ATOM
      1 N          -1.8090  -20.2093   21.3508 N.pl3   1  UNL1       -0.3570
      2 C          -3.1189  -19.5481   21.6623 C.ar    1  UNL1        0.0416
      3 C          -3.1999  -18.5203   22.7518 C.ar    1  UNL1        0.0179
      4 C          -4.5097  -17.8591   23.0634 C.ar    1  UNL1        0.0476
      5 C          -5.7387  -18.2257   22.2854 C.ar    1  UNL1        0.1932
      6 C          -5.6578  -19.2536   21.1958 C.ar    1  UNL1        0.0690
      7 C          -4.3479  -19.9148   20.8843 C.ar    1  UNL1        0.0175
      8 C          -6.8867  -19.6202   20.4179 C.3     1  UNL1        0.2412
      9 N          -8.1966  -18.9590   20.7294 N.am    1  UNL1       -0.1325
     10 C          -9.5656  -19.1148   20.1366 C.2     1  UNL1        0.3374
     11 O          -9.9417  -20.0398   19.0172 O.2     1  UNL1       -0.2416
     12 C         -10.4927  -18.1833   20.8597 C.ar    1  UNL1        0.0855
     13 C         -11.9589  -17.9068   20.7058 C.ar    1  UNL1        0.0071
     14 C         -12.6290  -16.8987   21.5916 C.ar    1  UNL1        0.0002
     15 C         -11.8329  -16.1671   22.6313 C.ar    1  UNL1        0.0002
     16 C         -10.3667  -16.4437   22.7852 C.ar    1  UNL1        0.0076
     17 C          -9.6966  -17.4518   21.8995 C.ar    1  UNL1        0.0893
     18 C          -8.2775  -17.9312   21.8189 C.2     1  UNL1        0.3309
     19 N          -7.0486  -17.5645   22.5969 N.2     1  UNL1       -0.0399
     20 H          -1.0024  -19.9687   21.8614 H       1  UNL1        0.1424
     21 H          -1.7559  -20.8839   20.6357 H       1  UNL1        0.1424
@<TRIPOS>BOND
     1     1     2    1
     2     2     3   ar
     3     3     4   ar
     4     4     5   ar
     5     5     6   ar
     6     6     7   ar
     7     6     8    1
     8     8     9    1
     9     9    10   am
    10    10    11    2
    11    10    12    1
    12    12    13   ar
    13    13    14   ar
    14    14    15   ar
    15    15    16   ar
    16    16    17   ar
    17    17    18    1
    18    18    19    2
    19     7     2   ar
    20    18     9    1
    21    19     5    1
    22    17    12   ar
    23     1    20    1
    24     1    21    1
@<TRIPOS>MOLECULE
*****
 21 24 0 0 0
SMALL
GASTEIGER

@<TRIPOS>ATOM
      1 N          -2.0898  -20.1923   21.2384 N.pl3   1  UNL1       -0.3570
      2 C          -3.5716  -19.9882   21.1253 C.ar    1  UNL1        0.0416
      3 C          -4.3665  -20.7930   20.1402 C.ar    1  UNL1        0.0179
      4 C          -5.8482  -20.5890   20.0270 C.ar    1  UNL1        0.0476
      5 C          -6.5351  -19.5801   20.8991 C.ar    1  UNL1        0.1932
      6 C          -5.7402  -18.7753   21.8842 C.ar    1  UNL1        0.0690
      7 C          -4.2584  -18.9793   21.9973 C.ar    1  UNL1        0.0175
      8 C          -6.4271  -17.7664   22.7561 C.3     1  UNL1        0.2412
      9 N          -7.9088  -17.5623   22.6430 N.am    1  UNL1       -0.1325
     10 C          -8.8540  -16.6476   23.3641 C.2     1  UNL1        0.3374
     11 O          -8.4849  -15.6658   24.4364 O.2     1  UNL1       -0.2416
     12 C         -10.2330  -16.8871   22.8247 C.ar    1  UNL1        0.0855
     13 C         -11.5612  -16.2748   23.1574 C.ar    1  UNL1        0.0071
     14 C         -12.7966  -16.7252   22.4357 C.ar    1  UNL1        0.0002
     15 C         -12.7037  -17.7879   21.3812 C.ar    1  UNL1        0.0002
     16 C         -11.3755  -18.4003   21.0485 C.ar    1  UNL1        0.0076
     17 C         -10.1401  -17.9499   21.7702 C.ar    1  UNL1        0.0893
     18 C          -8.7037  -18.3672   21.6579 C.2     1  UNL1        0.3309
     19 N          -8.0169  -19.3760   20.7860 N.2     1  UNL1       -0.0399
     20 H          -1.6390  -20.8545   20.6661 H       1  UNL1        0.1424
     21 H          -1.5681  -19.6641   21.8850 H       1  UNL1        0.1424
@<TRIPOS>BOND
     1     1     2    1
     2     2     3   ar
     3     3     4   ar
     4     4     5   ar
     5     5     6   ar
     6     6     7   ar
     7     6     8    1
     8     8     9    1
     9     9    10   am
    10    10    11    2
    11    10    12    1
    12    12    13   ar
    13    13    14   ar
    14    14    15   ar
    15    15    16   ar
    16    16    17   ar
    17    17    18    1
    18    18    19    2
    19     7     2   ar
    20    18     9    1
    21    19     5    1
    22    17    12   ar
    23     1    20    1
    24     1    21    1
@<TRIPOS>MOLECULE
*****
 21 24 0 0 0
SMALL
GASTEIGER

@<TRIPOS>ATOM
      1 N         -13.2855  -17.7900   21.5970 N.pl3   1  UNL1       -0.3570
      2 C         -11.8215  -17.6468   21.8906 C.ar    1  UNL1        0.0416
      3 C         -11.3392  -16.5363   22.7761 C.ar    1  UNL1        0.0179
      4 C          -9.8752  -16.3931   23.0697 C.ar    1  UNL1        0.0476
      5 C          -8.8934  -17.3605   22.4777 C.ar    1  UNL1        0.1932
      6 C          -9.3757  -18.4710   21.5922 C.ar    1  UNL1        0.0690
      7 C         -10.8397  -18.6142   21.2986 C.ar    1  UNL1        0.0175
      8 C          -8.3939  -19.4383   21.0002 C.3     1  UNL1        0.2412
      9 N          -6.9299  -19.2951   21.2938 N.am    1  UNL1       -0.1325
     10 C          -5.7360  -20.0908   20.8563 C.2     1  UNL1        0.3374
     11 O          -5.7582  -21.2940   19.9609 O.2     1  UNL1       -0.2416
     12 C          -4.5158  -19.4720   21.4715 C.ar    1  UNL1        0.0855
     13 C          -3.0611  -19.8292   21.3927 C.ar    1  UNL1        0.0071
     14 C          -2.0463  -19.0082   22.1316 C.ar    1  UNL1        0.0002
     15 C          -2.4861  -17.8301   22.9493 C.ar    1  UNL1        0.0002
     16 C          -3.9408  -17.4729   23.0280 C.ar    1  UNL1        0.0076
     17 C          -4.9557  -18.2939   22.2891 C.ar    1  UNL1        0.0893
     18 C          -6.4476  -18.1846   22.1793 C.2     1  UNL1        0.3309
     19 N          -7.4294  -17.2173   22.7713 N.2     1  UNL1       -0.0399
     20 H         -13.9298  -17.1551   21.9855 H       1  UNL1        0.1424
     21 H         -13.6020  -18.5189   21.0158 H       1  UNL1        0.1424
@<TRIPOS>BOND
     1     1     2    1
     2     2     3   ar
     3     3     4   ar
     4     4     5   ar
     5     5     6   ar
     6     6     7   ar
     7     6     8    1
     8     8     9    1
     9     9    10   am
    10    10    11    2
    11    10    12    1
    12    12    13   ar
    13    13    14   ar
    14    14    15   ar
    15    15    16   ar
    16    16    17   ar
    17    17    18    1
    18    18    19    2
    19     7     2   ar
    20    18     9    1
    21    19     5    1
    22    17    12   ar
    23     1    20    1
    24     1    21    1
@<TRIPOS>MOLECULE
*****
 21 24 0 0 0
SMALL
GASTEIGER

@<TRIPOS>ATOM
      1 N         -19.5268   -9.9148   19.6685 N.pl3   1  UNL1       -0.3570
      2 C         -18.1183   -9.5305   19.3241 C.ar    1  UNL1        0.0416
      3 C         -17.2367  -10.4946   18.5871 C.ar    1  UNL1        0.0179
      4 C         -15.8282  -10.1104   18.2427 C.ar    1  UNL1        0.0476
      5 C         -15.3014   -8.7619   18.6353 C.ar    1  UNL1        0.1932
      6 C         -16.1831   -7.7977   19.3722 C.ar    1  UNL1        0.0690
      7 C         -17.5915   -8.1820   19.7166 C.ar    1  UNL1        0.0175
      8 C         -15.6563   -6.4492   19.7647 C.3     1  UNL1        0.2412
      9 N         -14.2478   -6.0649   19.4203 N.am    1  UNL1       -0.1325
     10 C         -13.4576   -4.8155   19.6745 C.2     1  UNL1        0.3374
     11 O         -13.9508   -3.5894   20.3839 O.2     1  UNL1       -0.2416
     12 C         -12.0876   -5.0075   19.0946 C.ar    1  UNL1        0.0855
     13 C         -10.8843   -4.1134   19.0453 C.ar    1  UNL1        0.0071
     14 C          -9.6245   -4.5873   18.3833 C.ar    1  UNL1        0.0002
     15 C          -9.5679   -5.9554   17.7708 C.ar    1  UNL1        0.0002
     16 C         -10.7713   -6.8495   17.8202 C.ar    1  UNL1        0.0076
     17 C         -12.0311   -6.3756   18.4821 C.ar    1  UNL1        0.0893
     18 C         -13.3662   -7.0291   18.6834 C.2     1  UNL1        0.3309
     19 N         -13.8930   -8.3775   18.2909 N.2     1  UNL1       -0.0399
     20 H         -19.8725  -10.7998   19.4109 H       1  UNL1        0.1424
     21 H         -20.1054   -9.2820   20.1522 H       1  UNL1        0.1424
@<TRIPOS>BOND
     1     1     2    1
     2     2     3   ar
     3     3     4   ar
     4     4     5   ar
     5     5     6   ar
     6     6     7   ar
     7     6     8    1
     8     8     9    1
     9     9    10   am
    10    10    11    2
    11    10    12    1
    12    12    13   ar
    13    13    14   ar
    14    14    15   ar
    15    15    16   ar
    16    16    17   ar
    17    17    18    1
    18    18    19    2
    19     7     2   ar
    20    18     9    1
    21    19     5    1
    22    17    12   ar
    23     1    20    1
    24     1    21    1
@<TRIPOS>MOLECULE
*****
 21 24 0 0 0
SMALL
GASTEIGER

@<TRIPOS>ATOM
      1 N          -9.5891   -3.5611   19.1425 N.pl3   1  UNL1       -0.3570
      2 C         -10.5922   -4.6649   18.9826 C.ar    1  UNL1        0.0416
      3 C         -10.1402   -6.0361   18.5760 C.ar    1  UNL1        0.0179
      4 C         -11.1432   -7.1399   18.4160 C.ar    1  UNL1        0.0476
      5 C         -12.5985   -6.8723   18.6627 C.ar    1  UNL1        0.1932
      6 C         -13.0505   -5.5011   19.0693 C.ar    1  UNL1        0.0690
      7 C         -12.0474   -4.3973   19.2293 C.ar    1  UNL1        0.0175
      8 C         -14.5057   -5.2335   19.3160 C.3     1  UNL1        0.2412
      9 N         -15.5088   -6.3373   19.1561 N.am    1  UNL1       -0.1325
     10 C         -16.9984   -6.3727   19.3293 C.2     1  UNL1        0.3374
     11 O         -17.8669   -5.2178   19.7315 O.2     1  UNL1       -0.2416
     12 C         -17.4669   -7.7658   19.0298 C.ar    1  UNL1        0.0855
     13 C         -18.8312   -8.3892   19.0371 C.ar    1  UNL1        0.0071
     14 C         -18.9954   -9.8383   18.6860 C.ar    1  UNL1        0.0002
     15 C         -17.7955  -10.6638   18.3276 C.ar    1  UNL1        0.0002
     16 C         -16.4312  -10.0404   18.3203 C.ar    1  UNL1        0.0076
     17 C         -16.2669   -8.5914   18.6714 C.ar    1  UNL1        0.0893
     18 C         -15.0568   -7.7085   18.7495 C.2     1  UNL1        0.3309
     19 N         -13.6016   -7.9760   18.5028 N.2     1  UNL1       -0.0399
     20 H          -8.6340   -3.7367   18.9806 H       1  UNL1        0.1424
     21 H          -9.8858   -2.6612   19.4094 H       1  UNL1        0.1424
@<TRIPOS>BOND
     1     1     2    1
     2     2     3   ar
     3     3     4   ar
     4     4     5   ar
     5     5     6   ar
     6     6     7   ar
     7     6     8    1
     8     8     9    1
     9     9    10   am
    10    10    11    2
    11    10    12    1
    12    12    13   ar
    13    13    14   ar
    14    14    15   ar
    15    15    16   ar
    16    16    17   ar
    17    17    18    1
    18    18    19    2
    19     7     2   ar
    20    18     9    1
    21    19     5    1
    22    17    12   ar
    23     1    20    1
    24     1    21    1
@<TRIPOS>MOLECULE
*****
 21 24 0 0 0
SMALL
GASTEIGER

@<TRIPOS>ATOM
      1 N         -17.6448  -11.4301   18.6443 N.pl3   1  UNL1       -0.3570
      2 C         -17.0638  -10.0592   18.8261 C.ar    1  UNL1        0.0416
      3 C         -17.8586   -8.9938   19.5211 C.ar    1  UNL1        0.0179
      4 C         -17.2777   -7.6229   19.7029 C.ar    1  UNL1        0.0476
      5 C         -15.9016   -7.3174   19.1896 C.ar    1  UNL1        0.1932
      6 C         -15.1068   -8.3828   18.4946 C.ar    1  UNL1        0.0690
      7 C         -15.6878   -9.7537   18.3129 C.ar    1  UNL1        0.0175
      8 C         -13.7308   -8.0774   17.9814 C.3     1  UNL1        0.2412
      9 N         -13.1497   -6.7065   18.1632 N.am    1  UNL1       -0.1325
     10 C         -11.8295   -6.1152   17.7664 C.2     1  UNL1        0.3374
     11 O         -10.7244   -6.8294   17.0463 O.2     1  UNL1       -0.2416
     12 C         -11.8085   -4.6844   18.2162 C.ar    1  UNL1        0.0855
     13 C         -10.7679   -3.6105   18.0985 C.ar    1  UNL1        0.0071
     14 C         -11.0345   -2.2436   18.6556 C.ar    1  UNL1        0.0002
     15 C         -12.3417   -1.9505   19.3303 C.ar    1  UNL1        0.0002
     16 C         -13.3823   -3.0244   19.4480 C.ar    1  UNL1        0.0076
     17 C         -13.1157   -4.3913   18.8909 C.ar    1  UNL1        0.0893
     18 C         -13.9446   -5.6410   18.8581 C.2     1  UNL1        0.3309
     19 N         -15.3206   -5.9465   19.3714 N.2     1  UNL1       -0.0399
     20 H         -18.5479  -11.6306   18.9812 H       1  UNL1        0.1424
     21 H         -17.1231  -12.1294   18.1882 H       1  UNL1        0.1424
@<TRIPOS>BOND
     1     1     2    1
     2     2     3   ar
     3     3     4   ar
     4     4     5   ar
     5     5     6   ar
     6     6     7   ar
     7     6     8    1
     8     8     9    1
     9     9    10   am
    10    10    11    2
    11    10    12    1
    12    12    13   ar
    13    13    14   ar
    14    14    15   ar
    15    15    16   ar
    16    16    17   ar
    17    17    18    1
    18    18    19    2
    19     7     2   ar
    20    18     9    1
    21    19     5    1
    22    17    12   ar
    23     1    20    1
    24     1    21    1
@<TRIPOS>MOLECULE
*****
 21 24 0 0 0
SMALL
GASTEIGER

@<TRIPOS>ATOM
      1 N         -11.3193  -19.4148   23.6761 N.pl3   1  UNL1       -0.3570
      2 C          -9.9412  -18.8717   23.4393 C.ar    1  UNL1        0.0416
      3 C          -9.5398  -17.5570   24.0397 C.ar    1  UNL1        0.0179
      4 C          -8.1618  -17.0139   23.8029 C.ar    1  UNL1        0.0476
      5 C          -7.1851  -17.7855   22.9657 C.ar    1  UNL1        0.1932
      6 C          -7.5866  -19.1002   22.3653 C.ar    1  UNL1        0.0690
      7 C          -8.9647  -19.6433   22.6021 C.ar    1  UNL1        0.0175
      8 C          -6.6100  -19.8718   21.5281 C.3     1  UNL1        0.2412
      9 N          -5.2320  -19.3287   21.2913 N.am    1  UNL1       -0.1325
     10 C          -4.0631  -19.8604   20.5160 C.2     1  UNL1        0.3374
     11 O          -4.0248  -21.1515   19.7534 O.2     1  UNL1       -0.2416
     12 C          -2.9393  -18.8743   20.6372 C.ar    1  UNL1        0.0855
     13 C          -1.5453  -18.8681   20.0833 C.ar    1  UNL1        0.0071
     14 C          -0.6257  -17.7208   20.3796 C.ar    1  UNL1        0.0002
     15 C          -1.1000  -16.5796   21.2298 C.ar    1  UNL1        0.0002
     16 C          -2.4939  -16.5858   21.7837 C.ar    1  UNL1        0.0076
     17 C          -3.4136  -17.7332   21.4875 C.ar    1  UNL1        0.0893
     18 C          -4.8305  -18.0140   21.8916 C.2     1  UNL1        0.3309
     19 N          -5.8071  -17.2424   22.7288 N.2     1  UNL1       -0.0399
     20 H         -11.9603  -18.9084   24.2256 H       1  UNL1        0.1424
     21 H         -11.5828  -20.2777   23.2821 H       1  UNL1        0.1424
@<TRIPOS>BOND
     1     1     2    1
     2     2     3   ar
     3     3     4   ar
     4     4     5   ar
     5     5     6   ar
     6     6     7   ar
     7     6     8    1
     8     8     9    1
     9     9    10   am
    10    10    11    2
    11    10    12    1
    12    12    13   ar
    13    13    14   ar
    14    14    15   ar
    15    15    16   ar
    16    16    17   ar
    17    17    18    1
    18    18    19    2
    19     7     2   ar
    20    18     9    1
    21    19     5    1
    22    17    12   ar
    23     1    20    1
    24     1    21    1
@<TRIPOS>MOLECULE
*****
 21 24 0 0 0
SMALL
GASTEIGER

@<TRIPOS>ATOM
      1 N         -14.0465  -18.1686   23.8071 N.pl3   1  UNL1       -0.3570
      2 C         -12.5613  -18.3574   23.7147 C.ar    1  UNL1        0.0416
      3 C         -11.7280  -18.3715   24.9618 C.ar    1  UNL1        0.0179
      4 C         -10.2428  -18.5604   24.8695 C.ar    1  UNL1        0.0476
      5 C          -9.5909  -18.7351   23.5299 C.ar    1  UNL1        0.1932
      6 C         -10.4242  -18.7211   22.2827 C.ar    1  UNL1        0.0690
      7 C         -11.9094  -18.5322   22.3751 C.ar    1  UNL1        0.0175
      8 C          -9.7723  -18.8958   20.9432 C.3     1  UNL1        0.2412
      9 N          -8.2870  -19.0847   20.8508 N.am    1  UNL1       -0.1325
     10 C          -7.3710  -19.2800   19.6791 C.2     1  UNL1        0.3374
     11 O          -7.7822  -19.3315   18.2375 O.2     1  UNL1       -0.2416
     12 C          -5.9716  -19.4147   20.2021 C.ar    1  UNL1        0.0855
     13 C          -4.6575  -19.6250   19.5103 C.ar    1  UNL1        0.0071
     14 C          -3.3944  -19.7232   20.3133 C.ar    1  UNL1        0.0002
     15 C          -3.4455  -19.6112   21.8083 C.ar    1  UNL1        0.0002
     16 C          -4.7597  -19.4010   22.5001 C.ar    1  UNL1        0.0076
     17 C          -6.0228  -19.3027   21.6970 C.ar    1  UNL1        0.0893
     18 C          -7.4537  -19.0987   22.0979 C.2     1  UNL1        0.3309
     19 N          -8.1057  -18.9240   23.4375 N.2     1  UNL1       -0.0399
     20 H         -14.4744  -18.0539   24.6863 H       1  UNL1        0.1424
     21 H         -14.5934  -18.1594   22.9885 H       1  UNL1        0.1424
@<TRIPOS>BOND
     1     1     2    1
     2     2     3   ar
     3     3     4   ar
     4     4     5   ar
     5     5     6   ar
     6     6     7   ar
     7     6     8    1
     8     8     9    1
     9     9    10   am
    10    10    11    2
    11    10    12    1
    12    12    13   ar
    13    13    14   ar
    14    14    15   ar
    15    15    16   ar
    16    16    17   ar
    17    17    18    1
    18    18    19    2
    19     7     2   ar
    20    18     9    1
    21    19     5    1
    22    17    12   ar
    23     1    20    1
    24     1    21    1
@<TRIPOS>MOLECULE
*****
 21 24 0 0 0
SMALL
GASTEIGER

@<TRIPOS>ATOM
      1 N           0.0145  -18.7908   19.8714 N.pl3   1  UNL1       -0.3570
      2 C          -1.4144  -18.6619   20.3092 C.ar    1  UNL1        0.0416
      3 C          -2.4839  -19.4593   19.6233 C.ar    1  UNL1        0.0179
      4 C          -3.9128  -19.3304   20.0611 C.ar    1  UNL1        0.0476
      5 C          -4.2722  -18.4041   21.1848 C.ar    1  UNL1        0.1932
      6 C          -3.2028  -17.6067   21.8707 C.ar    1  UNL1        0.0690
      7 C          -1.7739  -17.7356   21.4329 C.ar    1  UNL1        0.0175
      8 C          -3.5623  -16.6804   22.9944 C.3     1  UNL1        0.2412
      9 N          -4.9912  -16.5515   23.4322 N.am    1  UNL1       -0.1325
     10 C          -5.6427  -15.7257   24.5016 C.2     1  UNL1        0.3374
     11 O          -4.9447  -14.7790   25.4326 O.2     1  UNL1       -0.2416
     12 C          -7.1148  -16.0127   24.4766 C.ar    1  UNL1        0.0855
     13 C          -8.2534  -15.4902   25.3015 C.ar    1  UNL1        0.0071
     14 C          -9.6503  -15.9708   25.0415 C.ar    1  UNL1        0.0002
     15 C          -9.9086  -16.9740   23.9567 C.ar    1  UNL1        0.0002
     16 C          -8.7700  -17.4966   23.1318 C.ar    1  UNL1        0.0076
     17 C          -7.3731  -17.0159   23.3918 C.ar    1  UNL1        0.0893
     18 C          -6.0606  -17.3489   22.7463 C.2     1  UNL1        0.3309
     19 N          -5.7011  -18.2752   21.6226 N.2     1  UNL1       -0.0399
     20 H           0.2504  -19.3988   19.1339 H       1  UNL1        0.1424
     21 H           0.7164  -18.2674   20.3216 H       1  UNL1        0.1424
@<TRIPOS>BOND
     1     1     2    1
     2     2     3   ar
     3     3     4   ar
     4     4     5   ar
     5     5     6   ar
     6     6     7   ar
     7     6     8    1
     8     8     9    1
     9     9    10   am
    10    10    11    2
    11    10    12    1
    12    12    13   ar
    13    13    14   ar
    14    14    15   ar
    15    15    16   ar
    16    16    17   ar
    17    17    18    1
    18    18    19    2
    19     7     2   ar
    20    18     9    1
    21    19     5    1
    22    17    12   ar
    23     1    20    1
    24     1    21    1
