@<TRIPOS>MOLECULE
*****
 31 35 0 0 0
SMALL
GASTEIGER

@<TRIPOS>ATOM
      1 C          -8.9664  -19.2100   19.3238 C.3     1  UNL1        0.0730
      2 N          -9.9301  -18.4075   20.1469 N.3     1  UNL1       -0.2726
      3 C         -11.3923  -18.2265   19.8652 C.3     1  UNL1        0.0721
      4 C         -11.9666  -17.3522   20.9403 C.3     1  UNL1        0.0190
      5 C         -10.8594  -16.9929   21.8864 C.3     1  UNL1        0.0202
      6 C         -11.7020  -16.1573   22.8038 C.3     1  UNL1        0.0062
      7 C         -10.2399  -16.3383   23.0854 C.3     1  UNL1        0.0259
      8 C          -9.6008  -17.6451   21.3960 C.3     1  UNL1        0.0724
      9 C          -9.0380  -16.0648   23.9402 C.ar    1  UNL1        0.0051
     10 C          -9.0246  -16.4985   25.3762 C.ar    1  UNL1        0.0002
     11 C          -7.8227  -16.2251   26.2310 C.ar    1  UNL1        0.0295
     12 C          -6.6343  -15.5180   25.6499 C.ar    1  UNL1        0.1424
     13 F          -5.4325  -15.2445   26.5047 F       1  UNL1       -0.2041
     14 C          -6.6477  -15.0843   24.2140 C.ar    1  UNL1        0.0589
     15 C          -7.8496  -15.3577   23.3592 C.ar    1  UNL1        0.1384
     16 F          -7.8630  -14.9241   21.9234 F       1  UNL1       -0.2044
     17 C          -7.5736  -19.4530   19.8247 C.3     1  UNL1        0.0294
     18 C          -7.3301  -20.4691   20.9010 C.3     1  UNL1        0.0666
     19 S          -6.5383  -20.0963   22.1192 S.3     1  UNL1       -0.0756
     20 C          -3.1863  -18.3409   21.2543 C.ar    1  UNL1        0.2029
     21 N          -3.7278  -17.4263   22.3129 N.ar    1  UNL1       -0.1250
     22 N          -5.0494  -17.9726   22.7657 N.ar    1  UNL1       -0.1220
     23 C          -5.3247  -19.2248   21.9870 C.ar    1  UNL1        0.1933
     24 N          -4.1733  -19.4524   21.0529 N.ar    1  UNL1       -0.2860
     25 C          -4.0333  -20.5915   20.0871 C.3     1  UNL1        0.1341
     26 C          -2.8247  -17.2244   18.2093 C.3     1  UNL1        0.0556
     27 C          -1.7199  -17.6601   19.1256 C.ar    1  UNL1        0.1001
     28 N          -0.2550  -17.6592   18.8032 N.ar    1  UNL1       -0.2085
     29 C           0.4842  -18.1718   20.0035 C.ar    1  UNL1        0.2849
     30 O          -0.5239  -18.4895   21.0679 O.2     1  UNL1       -0.4283
     31 C          -1.8861  -18.1733   20.5252 C.ar    1  UNL1        0.1964
@<TRIPOS>BOND
     1    26    27    1
     2    27    28   ar
     3    28    29   ar
     4    29    30   ar
     5    30    31   ar
     6    31    20    1
     7    20    21   ar
     8    21    22   ar
     9    22    23   ar
    10    23    19    1
    11    19    18    1
    12    18    17    1
    13    17     1    1
    14     1     2    1
    15     2     3    1
    16     3     4    1
    17     5     4    1
    18     5     6    1
    19     6     7    1
    20     7     9    1
    21     9    10   ar
    22    10    11   ar
    23    11    12   ar
    24    12    13    1
    25    12    14   ar
    26    14    15   ar
    27    15    16    1
    28     5     8    1
    29    23    24   ar
    30    24    25    1
    31    31    27   ar
    32    24    20   ar
    33     8     2    1
    34     7     5    1
    35    15     9   ar
@<TRIPOS>MOLECULE
*****
 31 35 0 0 0
SMALL
GASTEIGER

@<TRIPOS>ATOM
      1 C          -3.3410  -16.6690   23.0745 C.3     1  UNL1        0.0730
      2 N          -3.5273  -17.8224   22.1339 N.3     1  UNL1       -0.2726
      3 C          -2.4501  -18.4860   21.3281 C.3     1  UNL1        0.0721
      4 C          -3.0807  -19.5884   20.5301 C.3     1  UNL1        0.0190
      5 C          -4.5477  -19.6062   20.8426 C.3     1  UNL1        0.0202
      6 C          -4.8864  -20.7552   19.9397 C.3     1  UNL1        0.0062
      7 C          -5.9637  -20.0916   20.7454 C.3     1  UNL1        0.0259
      8 C          -4.8237  -18.5147   21.8338 C.3     1  UNL1        0.0724
      9 C          -7.4031  -19.9887   21.1545 C.ar    1  UNL1        0.0051
     10 C          -7.7968  -20.2337   22.5811 C.ar    1  UNL1        0.0002
     11 C          -9.2362  -20.1308   22.9902 C.ar    1  UNL1        0.0295
     12 C         -10.2820  -19.7829   21.9727 C.ar    1  UNL1        0.1424
     13 F         -11.7214  -19.6800   22.3818 F       1  UNL1       -0.2041
     14 C          -9.8884  -19.5379   20.5462 C.ar    1  UNL1        0.0589
     15 C          -8.4489  -19.6408   20.1371 C.ar    1  UNL1        0.1384
     16 F          -8.0553  -19.3958   18.7106 F       1  UNL1       -0.2044
     17 C          -4.5199  -15.8365   23.4833 C.3     1  UNL1        0.0294
     18 C          -5.2856  -16.1798   24.7266 C.3     1  UNL1        0.0666
     19 S          -6.5487  -15.4415   25.0574 S.3     1  UNL1       -0.0756
     20 C          -9.7507  -16.3111   23.0432 C.ar    1  UNL1        0.2029
     21 N         -10.0185  -17.0241   24.3355 N.ar    1  UNL1       -0.1250
     22 N          -8.8517  -16.7851   25.2473 N.ar    1  UNL1       -0.1220
     23 C          -7.8627  -15.9244   24.5185 C.ar    1  UNL1        0.1933
     24 N          -8.4182  -15.6315   23.1563 N.ar    1  UNL1       -0.2860
     25 C          -7.7574  -14.8042   22.0938 C.3     1  UNL1        0.1341
     26 C         -12.9697  -16.8472   23.0620 C.3     1  UNL1        0.0556
     27 C         -12.1359  -16.5291   21.8564 C.ar    1  UNL1        0.1001
     28 N         -12.6352  -16.4017   20.4477 N.ar    1  UNL1       -0.2085
     29 C         -11.4642  -16.0765   19.5684 C.ar    1  UNL1        0.2849
     30 O         -10.2412  -16.0030   20.4337 O.2     1  UNL1       -0.4283
     31 C         -10.6563  -16.2827   21.8477 C.ar    1  UNL1        0.1964
@<TRIPOS>BOND
     1    26    27    1
     2    27    28   ar
     3    28    29   ar
     4    29    30   ar
     5    30    31   ar
     6    31    20    1
     7    20    21   ar
     8    21    22   ar
     9    22    23   ar
    10    23    19    1
    11    19    18    1
    12    18    17    1
    13    17     1    1
    14     1     2    1
    15     2     3    1
    16     3     4    1
    17     5     4    1
    18     5     6    1
    19     6     7    1
    20     7     9    1
    21     9    10   ar
    22    10    11   ar
    23    11    12   ar
    24    12    13    1
    25    12    14   ar
    26    14    15   ar
    27    15    16    1
    28     5     8    1
    29    23    24   ar
    30    24    25    1
    31    31    27   ar
    32    24    20   ar
    33     8     2    1
    34     7     5    1
    35    15     9   ar
@<TRIPOS>MOLECULE
*****
 31 35 0 0 0
SMALL
GASTEIGER

@<TRIPOS>ATOM
      1 C          -3.7382  -16.6907   23.2916 C.3     1  UNL1        0.0730
      2 N          -3.7421  -17.8698   22.3644 N.3     1  UNL1       -0.2726
      3 C          -2.5324  -18.6028   21.8652 C.3     1  UNL1        0.0721
      4 C          -2.9990  -19.7089   20.9659 C.3     1  UNL1        0.0190
      5 C          -4.4972  -19.6594   20.9092 C.3     1  UNL1        0.0202
      6 C          -4.6576  -20.8268   19.9811 C.3     1  UNL1        0.0062
      7 C          -5.8673  -20.0937   20.4802 C.3     1  UNL1        0.0259
      8 C          -4.9564  -18.5227   21.7735 C.3     1  UNL1        0.0724
      9 C          -7.3568  -19.9212   20.5207 C.ar    1  UNL1        0.0051
     10 C          -8.1060  -19.5740   19.2685 C.ar    1  UNL1        0.0002
     11 C          -9.5955  -19.4015   19.3090 C.ar    1  UNL1        0.0295
     12 C         -10.3358  -19.5762   20.6018 C.ar    1  UNL1        0.1424
     13 F         -11.8253  -19.4037   20.6424 F       1  UNL1       -0.2041
     14 C          -9.5866  -19.9235   21.8541 C.ar    1  UNL1        0.0589
     15 C          -8.0971  -20.0960   21.8136 C.ar    1  UNL1        0.1384
     16 F          -7.3480  -20.4432   23.0658 F       1  UNL1       -0.2044
     17 C          -4.3275  -16.8150   24.6654 C.3     1  UNL1        0.0294
     18 C          -5.4617  -15.9245   25.0785 C.3     1  UNL1        0.0666
     19 S          -6.1945  -15.1168   24.0487 S.3     1  UNL1       -0.0756
     20 C          -9.6309  -16.6433   23.0860 C.ar    1  UNL1        0.2029
     21 N          -9.0348  -16.3942   21.7322 N.ar    1  UNL1       -0.1250
     22 N          -7.6750  -15.7921   21.9281 N.ar    1  UNL1       -0.1220
     23 C          -7.4307  -15.6690   23.4029 C.ar    1  UNL1        0.1933
     24 N          -8.6394  -16.1950   24.1186 N.ar    1  UNL1       -0.2860
     25 C          -8.8243  -16.2613   25.6057 C.3     1  UNL1        0.1341
     26 C         -12.3522  -16.0881   21.3726 C.3     1  UNL1        0.0556
     27 C         -12.2321  -16.9812   22.5717 C.ar    1  UNL1        0.1001
     28 N         -13.3418  -17.7760   23.1938 N.ar    1  UNL1       -0.2085
     29 C         -12.7768  -18.5224   24.3658 C.ar    1  UNL1        0.2849
     30 O         -11.3179  -18.1889   24.4681 O.2     1  UNL1       -0.4283
     31 C         -10.9813  -17.2364   23.3593 C.ar    1  UNL1        0.1964
@<TRIPOS>BOND
     1    26    27    1
     2    27    28   ar
     3    28    29   ar
     4    29    30   ar
     5    30    31   ar
     6    31    20    1
     7    20    21   ar
     8    21    22   ar
     9    22    23   ar
    10    23    19    1
    11    19    18    1
    12    18    17    1
    13    17     1    1
    14     1     2    1
    15     2     3    1
    16     3     4    1
    17     5     4    1
    18     5     6    1
    19     6     7    1
    20     7     9    1
    21     9    10   ar
    22    10    11   ar
    23    11    12   ar
    24    12    13    1
    25    12    14   ar
    26    14    15   ar
    27    15    16    1
    28     5     8    1
    29    23    24   ar
    30    24    25    1
    31    31    27   ar
    32    24    20   ar
    33     8     2    1
    34     7     5    1
    35    15     9   ar
@<TRIPOS>MOLECULE
*****
 31 35 0 0 0
SMALL
GASTEIGER

@<TRIPOS>ATOM
      1 C          -3.3284  -19.8130   22.0061 C.3     1  UNL1        0.0730
      2 N          -3.3215  -18.3177   22.1244 N.3     1  UNL1       -0.2726
      3 C          -2.4454  -17.3762   21.3524 C.3     1  UNL1        0.0721
      4 C          -2.7719  -15.9780   21.7865 C.3     1  UNL1        0.0190
      5 C          -3.8497  -16.0554   22.8268 C.3     1  UNL1        0.0202
      6 C          -3.9555  -14.5764   23.0533 C.3     1  UNL1        0.0062
      7 C          -4.8316  -15.5179   23.8254 C.3     1  UNL1        0.0259
      8 C          -4.1894  -17.5014   23.0357 C.3     1  UNL1        0.0724
      9 C          -5.9043  -15.7511   24.8476 C.ar    1  UNL1        0.0051
     10 C          -5.5785  -15.6663   26.3093 C.ar    1  UNL1        0.0002
     11 C          -6.6511  -15.8996   27.3316 C.ar    1  UNL1        0.0295
     12 C          -8.0496  -16.2177   26.8920 C.ar    1  UNL1        0.1424
     13 F          -9.1222  -16.4509   27.9143 F       1  UNL1       -0.2041
     14 C          -8.3753  -16.3025   25.4303 C.ar    1  UNL1        0.0589
     15 C          -7.3027  -16.0693   24.4081 C.ar    1  UNL1        0.1384
     16 F          -7.6284  -16.1541   22.9464 F       1  UNL1       -0.2044
     17 C          -3.6887  -20.4604   20.7018 C.3     1  UNL1        0.0294
     18 C          -5.0738  -20.3087   20.1464 C.3     1  UNL1        0.0666
     19 S          -6.2628  -20.4330   21.0523 S.3     1  UNL1       -0.0756
     20 C          -9.7036  -18.6425   20.9083 C.ar    1  UNL1        0.2029
     21 N          -9.3233  -18.6568   19.4573 N.ar    1  UNL1       -0.1250
     22 N          -7.9881  -19.3293   19.3347 N.ar    1  UNL1       -0.1220
     23 C          -7.5432  -19.7306   20.7099 C.ar    1  UNL1        0.1933
     24 N          -8.6034  -19.3061   21.6824 N.ar    1  UNL1       -0.2860
     25 C          -8.5694  -19.5096   23.1681 C.3     1  UNL1        0.1341
     26 C         -11.1741  -15.8955   19.9378 C.3     1  UNL1        0.0556
     27 C         -11.6389  -16.8032   21.0379 C.ar    1  UNL1        0.1001
     28 N         -12.8611  -16.6075   21.8851 N.ar    1  UNL1       -0.2085
     29 C         -12.9407  -17.7492   22.8548 C.ar    1  UNL1        0.2849
     30 O         -11.7675  -18.6505   22.6069 O.2     1  UNL1       -0.4283
     31 C         -10.9630  -18.0658   21.4840 C.ar    1  UNL1        0.1964
@<TRIPOS>BOND
     1    26    27    1
     2    27    28   ar
     3    28    29   ar
     4    29    30   ar
     5    30    31   ar
     6    31    20    1
     7    20    21   ar
     8    21    22   ar
     9    22    23   ar
    10    23    19    1
    11    19    18    1
    12    18    17    1
    13    17     1    1
    14     1     2    1
    15     2     3    1
    16     3     4    1
    17     5     4    1
    18     5     6    1
    19     6     7    1
    20     7     9    1
    21     9    10   ar
    22    10    11   ar
    23    11    12   ar
    24    12    13    1
    25    12    14   ar
    26    14    15   ar
    27    15    16    1
    28     5     8    1
    29    23    24   ar
    30    24    25    1
    31    31    27   ar
    32    24    20   ar
    33     8     2    1
    34     7     5    1
    35    15     9   ar
@<TRIPOS>MOLECULE
*****
 31 35 0 0 0
SMALL
GASTEIGER

@<TRIPOS>ATOM
      1 C          -3.9876  -20.3933   19.6818 C.3     1  UNL1        0.0730
      2 N          -3.1786  -19.1900   20.0659 N.3     1  UNL1       -0.2726
      3 C          -1.9132  -18.7304   19.4043 C.3     1  UNL1        0.0721
      4 C          -1.4456  -17.4914   20.1086 C.3     1  UNL1        0.0190
      5 C          -2.4219  -17.1851   21.2054 C.3     1  UNL1        0.0202
      6 C          -1.7194  -15.9564   21.7021 C.3     1  UNL1        0.0062
      7 C          -2.9848  -16.4159   22.3636 C.3     1  UNL1        0.0259
      8 C          -3.4930  -18.2349   21.1790 C.3     1  UNL1        0.0724
      9 C          -4.0404  -16.2371   23.4143 C.ar    1  UNL1        0.0051
     10 C          -5.1000  -15.1894   23.2422 C.ar    1  UNL1        0.0002
     11 C          -6.1555  -15.0106   24.2928 C.ar    1  UNL1        0.0295
     12 C          -6.1514  -15.8795   25.5155 C.ar    1  UNL1        0.1424
     13 F          -7.2070  -15.7007   26.5661 F       1  UNL1       -0.2041
     14 C          -5.0918  -16.9272   25.6876 C.ar    1  UNL1        0.0589
     15 C          -4.0363  -17.1060   24.6370 C.ar    1  UNL1        0.1384
     16 F          -2.9767  -18.1536   24.8090 F       1  UNL1       -0.2044
     17 C          -5.0750  -20.8868   20.5894 C.3     1  UNL1        0.0294
     18 C          -6.5132  -20.6511   20.2342 C.3     1  UNL1        0.0666
     19 S          -7.0545  -19.2530   20.1865 S.3     1  UNL1       -0.0756
     20 C          -9.8038  -18.2343   22.7300 C.ar    1  UNL1        0.2029
     21 N          -8.5823  -17.6469   23.3727 N.ar    1  UNL1       -0.1250
     22 N          -7.4038  -17.9570   22.4981 N.ar    1  UNL1       -0.1220
     23 C          -7.8968  -18.7361   21.3149 C.ar    1  UNL1        0.1933
     24 N          -9.3801  -18.9075   21.4582 N.ar    1  UNL1       -0.2860
     25 C         -10.2815  -19.6258   20.4982 C.3     1  UNL1        0.1341
     26 C         -12.2534  -16.4897   21.4630 C.3     1  UNL1        0.0556
     27 C         -12.3292  -17.3594   22.6828 C.ar    1  UNL1        0.1001
     28 N         -13.5441  -17.5800   23.5343 N.ar    1  UNL1       -0.2085
     29 C         -13.1691  -18.5182   24.6430 C.ar    1  UNL1        0.2849
     30 O         -11.7223  -18.8775   24.4766 O.2     1  UNL1       -0.4283
     31 C         -11.2032  -18.1613   23.2651 C.ar    1  UNL1        0.1964
@<TRIPOS>BOND
     1    26    27    1
     2    27    28   ar
     3    28    29   ar
     4    29    30   ar
     5    30    31   ar
     6    31    20    1
     7    20    21   ar
     8    21    22   ar
     9    22    23   ar
    10    23    19    1
    11    19    18    1
    12    18    17    1
    13    17     1    1
    14     1     2    1
    15     2     3    1
    16     3     4    1
    17     5     4    1
    18     5     6    1
    19     6     7    1
    20     7     9    1
    21     9    10   ar
    22    10    11   ar
    23    11    12   ar
    24    12    13    1
    25    12    14   ar
    26    14    15   ar
    27    15    16    1
    28     5     8    1
    29    23    24   ar
    30    24    25    1
    31    31    27   ar
    32    24    20   ar
    33     8     2    1
    34     7     5    1
    35    15     9   ar
@<TRIPOS>MOLECULE
*****
 31 35 0 0 0
SMALL
GASTEIGER

@<TRIPOS>ATOM
      1 C          -6.1323  -20.5430   19.7724 C.3     1  UNL1        0.0730
      2 N          -7.5720  -20.1224   19.7884 N.3     1  UNL1       -0.2726
      3 C          -8.5603  -20.3185   18.6772 C.3     1  UNL1        0.0721
      4 C          -9.8752  -19.7490   19.1205 C.3     1  UNL1        0.0190
      5 C          -9.6996  -19.2009   20.5057 C.3     1  UNL1        0.0202
      6 C         -11.1131  -18.7252   20.6665 C.3     1  UNL1        0.0062
      7 C         -10.1248  -18.5291   21.7777 C.3     1  UNL1        0.0259
      8 C          -8.2761  -19.4316   20.9185 C.3     1  UNL1        0.0724
      9 C          -9.7996  -18.0279   23.1536 C.ar    1  UNL1        0.0051
     10 C          -9.9550  -18.9348   24.3383 C.ar    1  UNL1        0.0002
     11 C          -9.6298  -18.4337   25.7142 C.ar    1  UNL1        0.0295
     12 C          -9.1493  -17.0257   25.9054 C.ar    1  UNL1        0.1424
     13 F          -8.8242  -16.5246   27.2813 F       1  UNL1       -0.2041
     14 C          -8.9940  -16.1188   24.7207 C.ar    1  UNL1        0.0589
     15 C          -9.3192  -16.6199   23.3448 C.ar    1  UNL1        0.1384
     16 F          -9.1638  -15.7131   22.1602 F       1  UNL1       -0.2044
     17 C          -5.0483  -19.5115   19.8765 C.3     1  UNL1        0.0294
     18 C          -3.6140  -19.9090   19.6893 C.3     1  UNL1        0.0666
     19 S          -2.5342  -19.2034   20.4547 S.3     1  UNL1       -0.0756
     20 C          -3.8314  -16.5239   22.9454 C.ar    1  UNL1        0.2029
     21 N          -2.9105  -15.7040   22.0911 N.ar    1  UNL1       -0.1250
     22 N          -2.3124  -16.6079   21.0542 N.ar    1  UNL1       -0.1220
     23 C          -2.8638  -17.9865   21.2675 C.ar    1  UNL1        0.1933
     24 N          -3.8026  -17.9346   22.4363 N.ar    1  UNL1       -0.2860
     25 C          -4.5766  -19.0905   22.9975 C.3     1  UNL1        0.1341
     26 C          -3.5808  -17.5331   26.0386 C.3     1  UNL1        0.0556
     27 C          -4.5242  -16.4852   25.5268 C.ar    1  UNL1        0.1001
     28 N          -5.5180  -15.7172   26.3468 N.ar    1  UNL1       -0.2085
     29 C          -6.2474  -14.7787   25.4318 C.ar    1  UNL1        0.2849
     30 O          -5.7044  -14.9666   24.0463 O.2     1  UNL1       -0.4283
     31 C          -4.6394  -16.0213   24.1050 C.ar    1  UNL1        0.1964
@<TRIPOS>BOND
     1    26    27    1
     2    27    28   ar
     3    28    29   ar
     4    29    30   ar
     5    30    31   ar
     6    31    20    1
     7    20    21   ar
     8    21    22   ar
     9    22    23   ar
    10    23    19    1
    11    19    18    1
    12    18    17    1
    13    17     1    1
    14     1     2    1
    15     2     3    1
    16     3     4    1
    17     5     4    1
    18     5     6    1
    19     6     7    1
    20     7     9    1
    21     9    10   ar
    22    10    11   ar
    23    11    12   ar
    24    12    13    1
    25    12    14   ar
    26    14    15   ar
    27    15    16    1
    28     5     8    1
    29    23    24   ar
    30    24    25    1
    31    31    27   ar
    32    24    20   ar
    33     8     2    1
    34     7     5    1
    35    15     9   ar
@<TRIPOS>MOLECULE
*****
 31 35 0 0 0
SMALL
GASTEIGER

@<TRIPOS>ATOM
      1 C          -7.0401  -14.9958   24.3095 C.3     1  UNL1        0.0730
      2 N          -7.9921  -16.1182   24.5989 N.3     1  UNL1       -0.2726
      3 C          -8.6584  -16.3921   25.9146 C.3     1  UNL1        0.0721
      4 C          -9.5230  -17.6070   25.7522 C.3     1  UNL1        0.0190
      5 C          -9.3911  -18.0840   24.3362 C.3     1  UNL1        0.0202
      6 C         -10.3240  -19.2502   24.4760 C.3     1  UNL1        0.0062
      7 C          -9.6577  -18.9764   23.1603 C.3     1  UNL1        0.0259
      8 C          -8.4449  -17.1639   23.6234 C.3     1  UNL1        0.0724
      9 C          -9.4270  -19.3334   21.7218 C.ar    1  UNL1        0.0051
     10 C          -8.0433  -19.6586   21.2424 C.ar    1  UNL1        0.0002
     11 C          -7.8125  -20.0156   19.8039 C.ar    1  UNL1        0.0295
     12 C          -8.9654  -20.0475   18.8449 C.ar    1  UNL1        0.1424
     13 F          -8.7347  -20.4045   17.4064 F       1  UNL1       -0.2041
     14 C         -10.3491  -19.7223   19.3243 C.ar    1  UNL1        0.0589
     15 C         -10.5799  -19.3653   20.7628 C.ar    1  UNL1        0.1384
     16 F         -11.9634  -19.0402   21.2422 F       1  UNL1       -0.2044
     17 C          -5.6508  -15.2955   23.8298 C.3     1  UNL1        0.0294
     18 C          -4.6542  -15.9200   24.7608 C.3     1  UNL1        0.0666
     19 S          -4.1996  -17.3315   24.5356 S.3     1  UNL1       -0.0756
     20 C          -3.3514  -18.1102   20.8288 C.ar    1  UNL1        0.2029
     21 N          -4.2999  -19.2271   21.1500 N.ar    1  UNL1       -0.1250
     22 N          -4.7330  -19.0713   22.5776 N.ar    1  UNL1       -0.1220
     23 C          -4.0523  -17.8582   23.1388 C.ar    1  UNL1        0.1933
     24 N          -3.1984  -17.2642   22.0581 N.ar    1  UNL1       -0.2860
     25 C          -2.3419  -16.0392   22.1843 C.3     1  UNL1        0.1341
     26 C          -0.1975  -18.6331   20.1738 C.3     1  UNL1        0.0556
     27 C          -1.2251  -18.1202   19.2090 C.ar    1  UNL1        0.1001
     28 N          -0.9835  -17.7575   17.7737 N.ar    1  UNL1       -0.2085
     29 C          -2.2839  -17.2931   17.1877 C.ar    1  UNL1        0.2849
     30 O          -3.3292  -17.3687   18.2608 O.2     1  UNL1       -0.4283
     31 C          -2.6748  -17.8798   19.5101 C.ar    1  UNL1        0.1964
@<TRIPOS>BOND
     1    26    27    1
     2    27    28   ar
     3    28    29   ar
     4    29    30   ar
     5    30    31   ar
     6    31    20    1
     7    20    21   ar
     8    21    22   ar
     9    22    23   ar
    10    23    19    1
    11    19    18    1
    12    18    17    1
    13    17     1    1
    14     1     2    1
    15     2     3    1
    16     3     4    1
    17     5     4    1
    18     5     6    1
    19     6     7    1
    20     7     9    1
    21     9    10   ar
    22    10    11   ar
    23    11    12   ar
    24    12    13    1
    25    12    14   ar
    26    14    15   ar
    27    15    16    1
    28     5     8    1
    29    23    24   ar
    30    24    25    1
    31    31    27   ar
    32    24    20   ar
    33     8     2    1
    34     7     5    1
    35    15     9   ar
@<TRIPOS>MOLECULE
*****
 31 35 0 0 0
SMALL
GASTEIGER

@<TRIPOS>ATOM
      1 C          -9.1041  -15.5366   25.0342 C.3     1  UNL1        0.0730
      2 N          -9.8836  -16.1971   23.9359 N.3     1  UNL1       -0.2726
      3 C         -11.3186  -15.9305   23.5899 C.3     1  UNL1        0.0721
      4 C         -11.6867  -16.8087   22.4310 C.3     1  UNL1        0.0190
      5 C         -10.4793  -17.6180   22.0607 C.3     1  UNL1        0.0202
      6 C         -11.1283  -18.3595   20.9297 C.3     1  UNL1        0.0062
      7 C          -9.6933  -18.6260   21.2757 C.3     1  UNL1        0.0259
      8 C          -9.3649  -17.2400   22.9908 C.3     1  UNL1        0.0724
      9 C          -8.4110  -19.3619   21.0223 C.ar    1  UNL1        0.0051
     10 C          -7.5422  -19.7733   22.1738 C.ar    1  UNL1        0.0002
     11 C          -6.2599  -20.5092   21.9204 C.ar    1  UNL1        0.0295
     12 C          -5.8464  -20.8336   20.5155 C.ar    1  UNL1        0.1424
     13 F          -4.5641  -21.5694   20.2621 F       1  UNL1       -0.2041
     14 C          -6.7152  -20.4221   19.3640 C.ar    1  UNL1        0.0589
     15 C          -7.9975  -19.6863   19.6174 C.ar    1  UNL1        0.1384
     16 F          -8.8663  -19.2749   18.4660 F       1  UNL1       -0.2044
     17 C          -8.3706  -16.3727   26.0407 C.3     1  UNL1        0.0294
     18 C          -7.4541  -15.7201   27.0328 C.3     1  UNL1        0.0666
     19 S          -6.1266  -15.1827   26.5868 S.3     1  UNL1       -0.0756
     20 C          -4.3466  -16.6874   23.4831 C.ar    1  UNL1        0.2029
     21 N          -5.1322  -15.5743   22.8555 N.ar    1  UNL1       -0.1250
     22 N          -5.8946  -14.8751   23.9417 N.ar    1  UNL1       -0.1220
     23 C          -5.5802  -15.5561   25.2407 C.ar    1  UNL1        0.1933
     24 N          -4.6235  -16.6762   24.9573 N.ar    1  UNL1       -0.2860
     25 C          -4.0453  -17.6193   25.9703 C.3     1  UNL1        0.1341
     26 C          -1.7437  -15.8834   21.6864 C.3     1  UNL1        0.0556
     27 C          -2.2465  -17.2742   21.9371 C.ar    1  UNL1        0.1001
     28 N          -1.6411  -18.5397   21.4061 N.ar    1  UNL1       -0.2085
     29 C          -2.4633  -19.6914   21.9037 C.ar    1  UNL1        0.2849
     30 O          -3.5769  -19.1377   22.7423 O.2     1  UNL1       -0.4283
     31 C          -3.4429  -17.6438   22.7630 C.ar    1  UNL1        0.1964
@<TRIPOS>BOND
     1    26    27    1
     2    27    28   ar
     3    28    29   ar
     4    29    30   ar
     5    30    31   ar
     6    31    20    1
     7    20    21   ar
     8    21    22   ar
     9    22    23   ar
    10    23    19    1
    11    19    18    1
    12    18    17    1
    13    17     1    1
    14     1     2    1
    15     2     3    1
    16     3     4    1
    17     5     4    1
    18     5     6    1
    19     6     7    1
    20     7     9    1
    21     9    10   ar
    22    10    11   ar
    23    11    12   ar
    24    12    13    1
    25    12    14   ar
    26    14    15   ar
    27    15    16    1
    28     5     8    1
    29    23    24   ar
    30    24    25    1
    31    31    27   ar
    32    24    20   ar
    33     8     2    1
    34     7     5    1
    35    15     9   ar
@<TRIPOS>MOLECULE
*****
 31 35 0 0 0
SMALL
GASTEIGER

@<TRIPOS>ATOM
      1 C          -1.1091    4.2735   18.5853 C.3     1  UNL1        0.0730
      2 N          -2.5849    4.0473   18.4401 N.3     1  UNL1       -0.2726
      3 C          -3.3188    3.8148   17.1528 C.3     1  UNL1        0.0721
      4 C          -4.7733    3.6378   17.4739 C.3     1  UNL1        0.0190
      5 C          -4.9383    3.7610   18.9597 C.3     1  UNL1        0.0202
      6 C          -6.4232    3.5490   18.9707 C.3     1  UNL1        0.0062
      7 C          -5.6892    3.7815   20.2581 C.3     1  UNL1        0.0259
      8 C          -3.5857    4.0141   19.5569 C.3     1  UNL1        0.0724
      9 C          -5.6991    3.9277   21.7509 C.ar    1  UNL1        0.0051
     10 C          -4.7641    3.1089   22.5908 C.ar    1  UNL1        0.0002
     11 C          -4.7739    3.2551   24.0836 C.ar    1  UNL1        0.0295
     12 C          -5.7187    4.2200   24.7365 C.ar    1  UNL1        0.1424
     13 F          -5.7285    4.3662   26.2293 F       1  UNL1       -0.2041
     14 C          -6.6537    5.0388   23.8966 C.ar    1  UNL1        0.0589
     15 C          -6.6438    4.8926   22.4038 C.ar    1  UNL1        0.1384
     16 F          -7.5787    5.7114   21.5639 F       1  UNL1       -0.2044
     17 C          -0.1390    3.3574   17.8999 C.3     1  UNL1        0.0294
     18 C           0.8252    2.5434   18.7109 C.3     1  UNL1        0.0666
     19 S           1.0849    1.1106   18.3511 S.3     1  UNL1       -0.0756
     20 C           3.3819   -1.3846   20.2389 C.ar    1  UNL1        0.2029
     21 N           2.4695   -0.9384   21.3428 N.ar    1  UNL1       -0.1250
     22 N           1.4980    0.0506   20.7700 N.ar    1  UNL1       -0.1220
     23 C           1.8100    0.2157   19.3121 C.ar    1  UNL1        0.1933
     24 N           2.9742   -0.6713   18.9838 N.ar    1  UNL1       -0.2860
     25 C           3.6179   -0.8191   17.6370 C.3     1  UNL1        0.1341
     26 C           3.3555   -4.4705   19.1776 C.3     1  UNL1        0.0556
     27 C           4.4926   -3.7893   19.8797 C.ar    1  UNL1        0.1001
     28 N           5.8172   -4.4068   20.2173 N.ar    1  UNL1       -0.2085
     29 C           6.6480   -3.3702   20.9137 C.ar    1  UNL1        0.2849
     30 O           5.8368   -2.1118   21.0066 O.2     1  UNL1       -0.4283
     31 C           4.5047   -2.3709   20.3676 C.ar    1  UNL1        0.1964
@<TRIPOS>BOND
     1    26    27    1
     2    27    28   ar
     3    28    29   ar
     4    29    30   ar
     5    30    31   ar
     6    31    20    1
     7    20    21   ar
     8    21    22   ar
     9    22    23   ar
    10    23    19    1
    11    19    18    1
    12    18    17    1
    13    17     1    1
    14     1     2    1
    15     2     3    1
    16     3     4    1
    17     5     4    1
    18     5     6    1
    19     6     7    1
    20     7     9    1
    21     9    10   ar
    22    10    11   ar
    23    11    12   ar
    24    12    13    1
    25    12    14   ar
    26    14    15   ar
    27    15    16    1
    28     5     8    1
    29    23    24   ar
    30    24    25    1
    31    31    27   ar
    32    24    20   ar
    33     8     2    1
    34     7     5    1
    35    15     9   ar
