@<TRIPOS>MOLECULE
*****
 25 28 0 0 0
SMALL
GASTEIGER

@<TRIPOS>ATOM
      1 C          -8.3741  -19.2917   20.9582 C.3     1  UNL1        0.1473
      2 O          -9.0066  -19.0561   19.6187 O.3     1  UNL1       -0.3787
      3 H          -9.9713  -19.0296   19.7168 H       1  UNL1        0.2108
      4 C          -9.2344  -19.4440   22.1775 C.ar    1  UNL1        0.0087
      5 C          -8.7991  -20.3453   23.2947 C.ar    1  UNL1        0.0188
      6 C          -9.6594  -20.4975   24.5140 C.ar    1  UNL1        0.0986
      7 N         -10.9550  -19.7485   24.6161 N.ar    1  UNL1       -0.2439
      8 C         -11.3903  -18.8472   23.4989 C.ar    1  UNL1        0.0813
      9 C         -12.6858  -18.0981   23.6009 C.ar    1  UNL1        0.0222
     10 C         -13.1211  -17.1968   22.4838 C.ar    1  UNL1        0.0384
     11 C         -12.2608  -17.0445   21.2644 C.ar    1  UNL1        0.1388
     12 C         -10.9652  -17.7936   21.1623 C.ar    1  UNL1        0.0382
     13 C         -10.5300  -18.6949   22.2796 C.ar    1  UNL1        0.0190
     14 O         -12.6961  -16.1433   20.1472 O.3     1  UNL1       -0.4714
     15 C         -11.6857  -15.6158   19.1720 C.3     1  UNL1        0.2525
     16 C          -3.8956  -19.5418   21.3189 C.3     1  UNL1        0.0381
     17 C          -4.6539  -18.5066   22.0956 C.3     1  UNL1        0.0765
     18 N          -6.1467  -18.4232   21.9754 N.3     1  UNL1       -0.2712
     19 C          -6.8813  -19.3751   21.0784 C.3     1  UNL1        0.0722
     20 C          -6.1229  -20.4103   20.3017 C.3     1  UNL1        0.0177
     21 C          -4.6301  -20.4937   20.4220 C.3     1  UNL1        0.0082
     22 C          -5.7801  -19.9661   20.7203 C.3     1  UNL1        0.0192
     23 C          -6.1846  -19.4140   21.1345 C.3     1  UNL1        0.0888
     24 C          -1.5459  -18.5009   20.9375 C.2     1  UNL1       -0.0049
     25 C          -2.4027  -19.6252   21.4391 C.2     1  UNL1       -0.0251
@<TRIPOS>BOND
     1    24    25    2
     2    16    25    1
     3    16    17    1
     4    17    18    1
     5    18    19    1
     6    19    20    1
     7    21    20    1
     8    21    22    1
     9    23    22    1
    10    23     1    1
    11     1     2    1
    12     1     4    1
    13     4     5   ar
    14     5     6   ar
    15     6     7   ar
    16     7     8   ar
    17     8     9   ar
    18     9    10   ar
    19    10    11   ar
    20    11    14    1
    21    14    15    1
    22    11    12   ar
    23    12    13   ar
    24    21    16    1
    25    13     4   ar
    26    23    18    1
    27    13     8   ar
    28     2     3    1
@<TRIPOS>MOLECULE
*****
 25 28 0 0 0
SMALL
GASTEIGER

@<TRIPOS>ATOM
      1 C          -9.2293  -16.7996   21.9159 C.3     1  UNL1        0.1473
      2 O          -9.0306  -15.3810   21.4710 O.3     1  UNL1       -0.3787
      3 H          -8.1524  -15.2879   21.0699 H       1  UNL1        0.2108
      4 C          -8.1419  -17.8111   21.7048 C.ar    1  UNL1        0.0087
      5 C          -8.3754  -18.9860   20.8020 C.ar    1  UNL1        0.0188
      6 C          -7.2881  -19.9974   20.5910 C.ar    1  UNL1        0.0986
      7 N          -5.9672  -19.8340   21.2827 N.ar    1  UNL1       -0.2439
      8 C          -5.7336  -18.6591   22.1855 C.ar    1  UNL1        0.0813
      9 C          -4.4127  -18.4956   22.8772 C.ar    1  UNL1        0.0222
     10 C          -4.1792  -17.3207   23.7799 C.ar    1  UNL1        0.0384
     11 C          -5.2666  -16.3092   23.9910 C.ar    1  UNL1        0.1388
     12 C          -6.5875  -16.4727   23.2993 C.ar    1  UNL1        0.0382
     13 C          -6.8210  -17.6476   22.3965 C.ar    1  UNL1        0.0190
     14 O          -5.0330  -15.1343   24.8938 O.3     1  UNL1       -0.4714
     15 C          -5.6614  -15.0980   26.2553 C.3     1  UNL1        0.2525
     16 C         -13.0874  -18.0212   23.8838 C.3     1  UNL1        0.0381
     17 C         -13.1095  -17.1203   22.6847 C.3     1  UNL1        0.0765
     18 N         -11.8235  -16.7131   22.0287 N.3     1  UNL1       -0.2712
     19 C         -10.5153  -17.2068   22.5719 C.3     1  UNL1        0.0722
     20 C         -10.4932  -18.1077   23.7710 C.3     1  UNL1        0.0177
     21 C         -11.7792  -18.5149   24.4270 C.3     1  UNL1        0.0082
     22 C         -11.1037  -17.8773   23.5175 C.3     1  UNL1        0.0192
     23 C         -11.1155  -17.3968   22.8780 C.3     1  UNL1        0.0888
     24 C         -14.4586  -18.5135   26.0350 C.2     1  UNL1       -0.0049
     25 C         -14.3734  -18.4284   24.5398 C.2     1  UNL1       -0.0251
@<TRIPOS>BOND
     1    24    25    2
     2    16    25    1
     3    16    17    1
     4    17    18    1
     5    18    19    1
     6    19    20    1
     7    21    20    1
     8    21    22    1
     9    23    22    1
    10    23     1    1
    11     1     2    1
    12     1     4    1
    13     4     5   ar
    14     5     6   ar
    15     6     7   ar
    16     7     8   ar
    17     8     9   ar
    18     9    10   ar
    19    10    11   ar
    20    11    14    1
    21    14    15    1
    22    11    12   ar
    23    12    13   ar
    24    21    16    1
    25    13     4   ar
    26    23    18    1
    27    13     8   ar
    28     2     3    1
@<TRIPOS>MOLECULE
*****
 25 28 0 0 0
SMALL
GASTEIGER

@<TRIPOS>ATOM
      1 C          -6.5036  -19.8969   21.6647 C.3     1  UNL1        0.1473
      2 O          -6.5695  -21.0579   22.6120 O.3     1  UNL1       -0.3787
      3 H          -7.4872  -21.3635   22.6856 H       1  UNL1        0.2108
      4 C          -7.7540  -19.3948   21.0055 C.ar    1  UNL1        0.0087
      5 C          -8.1035  -19.8459   19.6183 C.ar    1  UNL1        0.0188
      6 C          -9.3539  -19.3438   18.9592 C.ar    1  UNL1        0.0986
      7 N         -10.2546  -18.3905   19.6872 N.ar    1  UNL1       -0.2439
      8 C          -9.9050  -17.9394   21.0743 C.ar    1  UNL1        0.0813
      9 C         -10.8058  -16.9862   21.8023 C.ar    1  UNL1        0.0222
     10 C         -10.4562  -16.5351   23.1895 C.ar    1  UNL1        0.0384
     11 C          -9.2058  -17.0372   23.8487 C.ar    1  UNL1        0.1388
     12 C          -8.3051  -17.9904   23.1207 C.ar    1  UNL1        0.0382
     13 C          -8.6547  -18.4415   21.7335 C.ar    1  UNL1        0.0190
     14 O          -8.8563  -16.5860   25.2358 O.3     1  UNL1       -0.4714
     15 C          -7.9248  -15.4274   25.4353 C.3     1  UNL1        0.2525
     16 C          -2.5547  -17.9198   20.8001 C.3     1  UNL1        0.0381
     17 C          -3.2605  -17.6504   22.0961 C.3     1  UNL1        0.0765
     18 N          -4.5768  -18.3094   22.3843 N.3     1  UNL1       -0.2712
     19 C          -5.1873  -19.2378   21.3765 C.3     1  UNL1        0.0722
     20 C          -4.4815  -19.5071   20.0807 C.3     1  UNL1        0.0177
     21 C          -3.1652  -18.8481   19.7925 C.3     1  UNL1        0.0082
     22 C          -4.1966  -19.0739   20.5509 C.3     1  UNL1        0.0192
     23 C          -4.5730  -18.9303   21.2420 C.3     1  UNL1        0.0888
     24 C          -0.1788  -18.0023   19.7522 C.2     1  UNL1       -0.0049
     25 C          -1.2384  -17.2607   20.5120 C.2     1  UNL1       -0.0251
@<TRIPOS>BOND
     1    24    25    2
     2    16    25    1
     3    16    17    1
     4    17    18    1
     5    18    19    1
     6    19    20    1
     7    21    20    1
     8    21    22    1
     9    23    22    1
    10    23     1    1
    11     1     2    1
    12     1     4    1
    13     4     5   ar
    14     5     6   ar
    15     6     7   ar
    16     7     8   ar
    17     8     9   ar
    18     9    10   ar
    19    10    11   ar
    20    11    14    1
    21    14    15    1
    22    11    12   ar
    23    12    13   ar
    24    21    16    1
    25    13     4   ar
    26    23    18    1
    27    13     8   ar
    28     2     3    1
@<TRIPOS>MOLECULE
*****
 25 28 0 0 0
SMALL
GASTEIGER

@<TRIPOS>ATOM
      1 C         -10.6541  -18.5337   24.4245 C.3     1  UNL1        0.1473
      2 O         -11.2679  -19.6496   25.2170 O.3     1  UNL1       -0.3787
      3 H         -11.8886  -20.1409   24.6565 H       1  UNL1        0.2108
      4 C         -11.0411  -18.3319   22.9894 C.ar    1  UNL1        0.0087
      5 C         -12.3597  -17.7029   22.6495 C.ar    1  UNL1        0.0188
      6 C         -12.7467  -17.5011   21.2144 C.ar    1  UNL1        0.0986
      7 N         -11.8150  -17.9283   20.1192 N.ar    1  UNL1       -0.2439
      8 C         -10.4964  -18.5573   20.4591 C.ar    1  UNL1        0.0813
      9 C          -9.5647  -18.9845   19.3639 C.ar    1  UNL1        0.0222
     10 C          -8.2461  -19.6135   19.7038 C.ar    1  UNL1        0.0384
     11 C          -7.8591  -19.8154   21.1389 C.ar    1  UNL1        0.1388
     12 C          -8.7908  -19.3882   22.2341 C.ar    1  UNL1        0.0382
     13 C         -10.1094  -18.7591   21.8942 C.ar    1  UNL1        0.0190
     14 O          -6.5405  -20.4444   21.4788 O.3     1  UNL1       -0.4714
     15 C          -5.3731  -19.5815   21.8566 C.3     1  UNL1        0.2525
     16 C          -7.6519  -15.7914   26.3523 C.3     1  UNL1        0.0381
     17 C          -8.2064  -16.9547   27.1200 C.3     1  UNL1        0.0765
     18 N          -9.2071  -17.8688   26.4774 N.3     1  UNL1       -0.2712
     19 C          -9.6534  -17.6196   25.0671 C.3     1  UNL1        0.0722
     20 C          -9.0989  -16.4564   24.2995 C.3     1  UNL1        0.0177
     21 C          -8.0981  -15.5422   24.9421 C.3     1  UNL1        0.0082
     22 C          -8.8906  -16.5726   24.9576 C.3     1  UNL1        0.0192
     23 C          -9.1864  -17.1930   25.3670 C.3     1  UNL1        0.0888
     24 C          -5.2810  -14.7302   26.4025 C.2     1  UNL1       -0.0049
     25 C          -6.6511  -14.8773   26.9948 C.2     1  UNL1       -0.0251
@<TRIPOS>BOND
     1    24    25    2
     2    16    25    1
     3    16    17    1
     4    17    18    1
     5    18    19    1
     6    19    20    1
     7    21    20    1
     8    21    22    1
     9    23    22    1
    10    23     1    1
    11     1     2    1
    12     1     4    1
    13     4     5   ar
    14     5     6   ar
    15     6     7   ar
    16     7     8   ar
    17     8     9   ar
    18     9    10   ar
    19    10    11   ar
    20    11    14    1
    21    14    15    1
    22    11    12   ar
    23    12    13   ar
    24    21    16    1
    25    13     4   ar
    26    23    18    1
    27    13     8   ar
    28     2     3    1
@<TRIPOS>MOLECULE
*****
 25 28 0 0 0
SMALL
GASTEIGER

@<TRIPOS>ATOM
      1 C          -9.4105  -17.4132   21.5901 C.3     1  UNL1        0.1473
      2 O          -8.7232  -16.0819   21.6601 O.3     1  UNL1       -0.3787
      3 H          -7.9220  -16.1025   21.1137 H       1  UNL1        0.2108
      4 C          -8.8267  -18.5159   20.7575 C.ar    1  UNL1        0.0087
      5 C          -9.6592  -19.1788   19.7004 C.ar    1  UNL1        0.0188
      6 C          -9.0753  -20.2814   18.8678 C.ar    1  UNL1        0.0986
      7 N          -7.6589  -20.7211   19.0922 N.ar    1  UNL1       -0.2439
      8 C          -6.8264  -20.0582   20.1493 C.ar    1  UNL1        0.0813
      9 C          -5.4099  -20.4980   20.3737 C.ar    1  UNL1        0.0222
     10 C          -4.5774  -19.8351   21.4307 C.ar    1  UNL1        0.0384
     11 C          -5.1612  -18.7324   22.2634 C.ar    1  UNL1        0.1388
     12 C          -6.5777  -18.2927   22.0390 C.ar    1  UNL1        0.0382
     13 C          -7.4102  -18.9556   20.9819 C.ar    1  UNL1        0.0190
     14 O          -4.3287  -18.0695   23.3204 O.3     1  UNL1       -0.4714
     15 C          -4.6853  -16.6950   23.8037 C.3     1  UNL1        0.2525
     16 C         -13.2242  -18.0996   23.8781 C.3     1  UNL1        0.0381
     17 C         -11.9141  -18.5538   24.4504 C.3     1  UNL1        0.0765
     18 N         -10.6429  -18.3250   23.6878 N.3     1  UNL1       -0.2712
     19 C         -10.6817  -17.6420   22.3528 C.3     1  UNL1        0.0722
     20 C         -11.9918  -17.1878   21.7805 C.3     1  UNL1        0.0177
     21 C         -13.2630  -17.4166   22.5432 C.3     1  UNL1        0.0082
     22 C         -11.9737  -17.5066   22.4035 C.3     1  UNL1        0.0192
     23 C         -11.2750  -17.7488   22.7087 C.3     1  UNL1        0.0888
     24 C         -14.4535  -18.5227   26.1275 C.2     1  UNL1       -0.0049
     25 C         -14.4954  -18.3284   24.6408 C.2     1  UNL1       -0.0251
@<TRIPOS>BOND
     1    24    25    2
     2    16    25    1
     3    16    17    1
     4    17    18    1
     5    18    19    1
     6    19    20    1
     7    21    20    1
     8    21    22    1
     9    23    22    1
    10    23     1    1
    11     1     2    1
    12     1     4    1
    13     4     5   ar
    14     5     6   ar
    15     6     7   ar
    16     7     8   ar
    17     8     9   ar
    18     9    10   ar
    19    10    11   ar
    20    11    14    1
    21    14    15    1
    22    11    12   ar
    23    12    13   ar
    24    21    16    1
    25    13     4   ar
    26    23    18    1
    27    13     8   ar
    28     2     3    1
@<TRIPOS>MOLECULE
*****
 25 28 0 0 0
SMALL
GASTEIGER

@<TRIPOS>ATOM
      1 C          -6.1199  -19.4063   22.0075 C.3     1  UNL1        0.1473
      2 O          -6.4431  -20.8141   22.4120 O.3     1  UNL1       -0.3787
      3 H          -7.3260  -20.8408   22.8128 H       1  UNL1        0.2108
      4 C          -7.1135  -18.3092   22.2508 C.ar    1  UNL1        0.0087
      5 C          -6.8397  -17.2672   23.2945 C.ar    1  UNL1        0.0188
      6 C          -7.8333  -16.1701   23.5378 C.ar    1  UNL1        0.0986
      7 N          -9.1007  -16.1151   22.7374 N.ar    1  UNL1       -0.2439
      8 C          -9.3745  -17.1570   21.6937 C.ar    1  UNL1        0.0813
      9 C         -10.6419  -17.1020   20.8933 C.ar    1  UNL1        0.0222
     10 C         -10.9158  -18.1439   19.8497 C.ar    1  UNL1        0.0384
     11 C          -9.9222  -19.2411   19.6064 C.ar    1  UNL1        0.1388
     12 C          -8.6548  -19.2961   20.4068 C.ar    1  UNL1        0.0382
     13 C          -8.3809  -18.2541   21.4505 C.ar    1  UNL1        0.0190
     14 O         -10.1960  -20.2830   18.5627 O.3     1  UNL1       -0.4714
     15 C          -9.0583  -21.0290   17.9310 C.3     1  UNL1        0.2525
     16 C          -2.1697  -18.4740   20.0643 C.3     1  UNL1        0.0381
     17 C          -3.4225  -18.5038   19.2399 C.3     1  UNL1        0.0765
     18 N          -4.7393  -18.8146   19.8877 N.3     1  UNL1       -0.2712
     19 C          -4.8032  -19.0955   21.3598 C.3     1  UNL1        0.0722
     20 C          -3.5503  -19.0657   22.1841 C.3     1  UNL1        0.0177
     21 C          -2.2336  -18.7549   21.5363 C.3     1  UNL1        0.0082
     22 C          -3.5205  -18.9346   21.4971 C.3     1  UNL1        0.0192
     23 C          -4.1887  -18.9505   21.0575 C.3     1  UNL1        0.0888
     24 C           0.2204  -17.4641   20.1970 C.2     1  UNL1       -0.0049
     25 C          -0.8529  -18.1632   19.4165 C.2     1  UNL1       -0.0251
@<TRIPOS>BOND
     1    24    25    2
     2    16    25    1
     3    16    17    1
     4    17    18    1
     5    18    19    1
     6    19    20    1
     7    21    20    1
     8    21    22    1
     9    23    22    1
    10    23     1    1
    11     1     2    1
    12     1     4    1
    13     4     5   ar
    14     5     6   ar
    15     6     7   ar
    16     7     8   ar
    17     8     9   ar
    18     9    10   ar
    19    10    11   ar
    20    11    14    1
    21    14    15    1
    22    11    12   ar
    23    12    13   ar
    24    21    16    1
    25    13     4   ar
    26    23    18    1
    27    13     8   ar
    28     2     3    1
@<TRIPOS>MOLECULE
*****
 25 28 0 0 0
SMALL
GASTEIGER

@<TRIPOS>ATOM
      1 C          -8.1543  -15.9815   22.4499 C.3     1  UNL1        0.1473
      2 O          -8.0353  -14.6160   21.8405 O.3     1  UNL1       -0.3787
      3 H          -7.0994  -14.4082   21.6932 H       1  UNL1        0.2108
      4 C          -6.9208  -16.7871   22.7318 C.ar    1  UNL1        0.0087
      5 C          -5.9458  -16.3259   23.7742 C.ar    1  UNL1        0.0188
      6 C          -4.7124  -17.1315   24.0562 C.ar    1  UNL1        0.0986
      7 N          -4.4539  -18.3983   23.2957 N.ar    1  UNL1       -0.2439
      8 C          -5.4289  -18.8595   22.2533 C.ar    1  UNL1        0.0813
      9 C          -5.1704  -20.1264   21.4928 C.ar    1  UNL1        0.0222
     10 C          -6.1454  -20.5876   20.4504 C.ar    1  UNL1        0.0384
     11 C          -7.3789  -19.7819   20.1684 C.ar    1  UNL1        0.1388
     12 C          -7.6374  -18.5151   20.9289 C.ar    1  UNL1        0.0382
     13 C          -6.6623  -18.0539   21.9714 C.ar    1  UNL1        0.0190
     14 O          -8.3539  -20.2431   19.1260 O.3     1  UNL1       -0.4714
     15 C          -9.7670  -19.7403   19.1459 C.3     1  UNL1        0.2525
     16 C         -12.2119  -17.6611   23.4321 C.3     1  UNL1        0.0381
     17 C         -12.0530  -16.7054   22.2869 C.3     1  UNL1        0.0765
     18 N         -10.7005  -16.1455   21.9595 N.3     1  UNL1       -0.2712
     19 C          -9.5069  -16.5413   22.7773 C.3     1  UNL1        0.0722
     20 C          -9.6658  -17.4970   23.9224 C.3     1  UNL1        0.0177
     21 C         -11.0184  -18.0569   24.2498 C.3     1  UNL1        0.0082
     22 C         -10.2228  -17.3123   23.5408 C.3     1  UNL1        0.0192
     23 C         -10.1380  -16.8026   22.9301 C.3     1  UNL1        0.0888
     24 C         -13.9779  -18.3945   25.1909 C.2     1  UNL1       -0.0049
     25 C         -13.5644  -18.2210   23.7595 C.2     1  UNL1       -0.0251
@<TRIPOS>BOND
     1    24    25    2
     2    16    25    1
     3    16    17    1
     4    17    18    1
     5    18    19    1
     6    19    20    1
     7    21    20    1
     8    21    22    1
     9    23    22    1
    10    23     1    1
    11     1     2    1
    12     1     4    1
    13     4     5   ar
    14     5     6   ar
    15     6     7   ar
    16     7     8   ar
    17     8     9   ar
    18     9    10   ar
    19    10    11   ar
    20    11    14    1
    21    14    15    1
    22    11    12   ar
    23    12    13   ar
    24    21    16    1
    25    13     4   ar
    26    23    18    1
    27    13     8   ar
    28     2     3    1
@<TRIPOS>MOLECULE
*****
 25 28 0 0 0
SMALL
GASTEIGER

@<TRIPOS>ATOM
      1 C          -6.1853  -19.9661   21.7149 C.3     1  UNL1        0.1473
      2 O          -6.3709  -21.2757   22.4222 O.3     1  UNL1       -0.3787
      3 H          -7.3026  -21.3795   22.6712 H       1  UNL1        0.2108
      4 C          -7.3592  -19.0577   21.4983 C.ar    1  UNL1        0.0087
      5 C          -8.4540  -19.4590   20.5547 C.ar    1  UNL1        0.0188
      6 C          -9.6278  -18.5506   20.3381 C.ar    1  UNL1        0.0986
      7 N          -9.7068  -17.2409   21.0651 N.ar    1  UNL1       -0.2439
      8 C          -8.6121  -16.8396   22.0087 C.ar    1  UNL1        0.0813
      9 C          -8.6911  -15.5300   22.7357 C.ar    1  UNL1        0.0222
     10 C          -7.5963  -15.1287   23.6793 C.ar    1  UNL1        0.0384
     11 C          -6.4224  -16.0371   23.8959 C.ar    1  UNL1        0.1388
     12 C          -6.3434  -17.3467   23.1689 C.ar    1  UNL1        0.0382
     13 C          -7.4382  -17.7480   22.2253 C.ar    1  UNL1        0.0190
     14 O          -5.3276  -15.6358   24.8394 O.3     1  UNL1       -0.4714
     15 C          -5.6551  -15.2735   26.2577 C.3     1  UNL1        0.2525
     16 C          -2.1070  -18.7621   20.2426 C.3     1  UNL1        0.0381
     17 C          -2.3024  -19.1464   21.6793 C.3     1  UNL1        0.0765
     18 N          -3.6618  -19.5478   22.1701 N.3     1  UNL1       -0.2712
     19 C          -4.8258  -19.5647   21.2241 C.3     1  UNL1        0.0722
     20 C          -4.6304  -19.1804   19.7874 C.3     1  UNL1        0.0177
     21 C          -3.2710  -18.7791   19.2967 C.3     1  UNL1        0.0082
     22 C          -4.0872  -19.1725   20.2288 C.3     1  UNL1        0.0192
     23 C          -4.1914  -19.3774   20.9951 C.3     1  UNL1        0.0888
     24 C          -0.1901  -17.0137   20.1050 C.2     1  UNL1       -0.0049
     25 C          -0.7475  -18.3608   19.7518 C.2     1  UNL1       -0.0251
@<TRIPOS>BOND
     1    24    25    2
     2    16    25    1
     3    16    17    1
     4    17    18    1
     5    18    19    1
     6    19    20    1
     7    21    20    1
     8    21    22    1
     9    23    22    1
    10    23     1    1
    11     1     2    1
    12     1     4    1
    13     4     5   ar
    14     5     6   ar
    15     6     7   ar
    16     7     8   ar
    17     8     9   ar
    18     9    10   ar
    19    10    11   ar
    20    11    14    1
    21    14    15    1
    22    11    12   ar
    23    12    13   ar
    24    21    16    1
    25    13     4   ar
    26    23    18    1
    27    13     8   ar
    28     2     3    1
@<TRIPOS>MOLECULE
*****
 25 28 0 0 0
SMALL
GASTEIGER

@<TRIPOS>ATOM
      1 C          -8.5383  -18.9076   21.0624 C.3     1  UNL1        0.1473
      2 O          -9.3076  -18.6231   19.8066 O.3     1  UNL1       -0.3787
      3 H         -10.2415  -18.4783   20.0253 H       1  UNL1        0.2108
      4 C          -9.2446  -18.9313   22.3856 C.ar    1  UNL1        0.0087
      5 C         -10.3012  -19.9618   22.6533 C.ar    1  UNL1        0.0188
      6 C         -11.0074  -19.9855   23.9764 C.ar    1  UNL1        0.0986
      7 N         -10.6571  -18.9788   25.0317 N.ar    1  UNL1       -0.2439
      8 C          -9.6005  -17.9483   24.7640 C.ar    1  UNL1        0.0813
      9 C          -9.2501  -16.9416   25.8194 C.ar    1  UNL1        0.0222
     10 C          -8.1935  -15.9112   25.5516 C.ar    1  UNL1        0.0384
     11 C          -7.4872  -15.8874   24.2285 C.ar    1  UNL1        0.1388
     12 C          -7.8376  -16.8941   23.1731 C.ar    1  UNL1        0.0382
     13 C          -8.8942  -17.9246   23.4409 C.ar    1  UNL1        0.0190
     14 O          -6.4306  -14.8570   23.9607 O.3     1  UNL1       -0.4714
     15 C          -4.9996  -15.2754   23.7960 C.3     1  UNL1        0.2525
     16 C          -4.1114  -19.6897   20.8607 C.3     1  UNL1        0.0381
     17 C          -4.7756  -18.8609   19.8015 C.3     1  UNL1        0.0765
     18 N          -6.2512  -18.6002   19.8687 N.3     1  UNL1       -0.2712
     19 C          -7.0627  -19.1683   20.9952 C.3     1  UNL1        0.0722
     20 C          -6.3985  -19.9970   22.0544 C.3     1  UNL1        0.0177
     21 C          -4.9228  -20.2578   21.9872 C.3     1  UNL1        0.0082
     22 C          -6.0198  -19.7320   21.5287 C.3     1  UNL1        0.0192
     23 C          -6.3740  -19.2900   20.9638 C.3     1  UNL1        0.0888
     24 C          -1.6814  -18.8113   20.5901 C.2     1  UNL1       -0.0049
     25 C          -2.6357  -19.9505   20.7935 C.2     1  UNL1       -0.0251
@<TRIPOS>BOND
     1    24    25    2
     2    16    25    1
     3    16    17    1
     4    17    18    1
     5    18    19    1
     6    19    20    1
     7    21    20    1
     8    21    22    1
     9    23    22    1
    10    23     1    1
    11     1     2    1
    12     1     4    1
    13     4     5   ar
    14     5     6   ar
    15     6     7   ar
    16     7     8   ar
    17     8     9   ar
    18     9    10   ar
    19    10    11   ar
    20    11    14    1
    21    14    15    1
    22    11    12   ar
    23    12    13   ar
    24    21    16    1
    25    13     4   ar
    26    23    18    1
    27    13     8   ar
    28     2     3    1
