@<TRIPOS>MOLECULE
*****
 32 35 0 0 0
SMALL
GASTEIGER

@<TRIPOS>ATOM
      1 C          -9.0877  -18.7104   20.6779 C.ar    1  UNL1        0.0678
      2 C          -9.7898  -19.2699   19.4763 C.ar    1  UNL1        0.0055
      3 C          -9.1077  -20.2940   18.6184 C.ar    1  UNL1        0.0016
      4 C          -7.7235  -20.7586   18.9621 C.ar    1  UNL1        0.0181
      5 C          -7.0214  -20.1990   20.1638 C.ar    1  UNL1        0.0922
      6 C          -7.7035  -19.1749   21.0217 C.ar    1  UNL1        0.1576
      7 F          -7.0013  -18.6154   22.2233 F       1  UNL1       -0.2027
      8 C          -9.7698  -17.6863   21.5358 C.2     1  UNL1        0.2014
      9 O         -10.1543  -16.3576   20.9554 O.2     1  UNL1       -0.2864
     10 C          -7.5551  -16.2340   25.6227 C.2     1  UNL1        0.0974
     11 C          -8.1962  -16.7877   26.8605 C.2     1  UNL1        0.2421
     12 N          -9.3916  -17.6869   26.7481 N.2     1  UNL1       -0.0304
     13 C          -9.9459  -18.0323   25.3978 C.2     1  UNL1        0.3721
     14 N         -11.1047  -18.8868   24.9770 N.2     1  UNL1       -0.0307
     15 C         -11.1798  -18.8612   23.4791 C.2     1  UNL1        0.2390
     16 C         -10.0674  -17.9909   22.9741 C.2     1  UNL1        0.0895
     17 C          -9.3048  -17.4786   24.1599 C.2     1  UNL1        0.0782
     18 C          -8.1094  -16.5794   24.2723 C.3     1  UNL1        0.0751
     19 N          -5.1644  -14.4357   25.8476 N.1     1  UNL1       -0.1910
     20 C          -6.3598  -15.3349   25.7351 C.1     1  UNL1        0.1003
     21 N          -5.6372  -20.6636   20.5075 N.pl3   1  UNL1       -0.2128
     22 H          -5.4541  -21.6244   20.6197 H       1  UNL1        0.1738
     23 S          -4.5320  -19.6643   20.6803 S.O2    1  UNL1        0.0737
     24 O          -4.4359  -20.0218   22.1338 O.2     1  UNL1       -0.1499
     25 O          -4.6280  -19.3068   19.2267 O.2     1  UNL1       -0.1499
     26 C          -3.4267  -18.6650   20.8530 C.ar    1  UNL1        0.1274
     27 C          -3.4708  -17.6870   21.9895 C.ar    1  UNL1        0.0203
     28 C          -2.3655  -16.6877   22.1623 C.ar    1  UNL1        0.0037
     29 C          -1.2163  -16.6663   21.1985 C.ar    1  UNL1        0.0297
     30 C          -1.1722  -17.6443   20.0621 C.ar    1  UNL1        0.1415
     31 F          -0.0229  -17.6230   19.0984 F       1  UNL1       -0.2041
     32 C          -2.2774  -18.6436   19.8893 C.ar    1  UNL1        0.0498
@<TRIPOS>BOND
     1    19    20    3
     2    20    10    1
     3    10    11    2
     4    11    12    1
     5    12    13    2
     6    13    14    1
     7    14    15    2
     8    15    16    1
     9    16     8    1
    10     8     9    2
    11     8     1    1
    12     1     2   ar
    13     2     3   ar
    14     3     4   ar
    15     4     5   ar
    16     5    21    1
    17    21    23    1
    18    23    24    2
    19    23    25    2
    20    23    26    1
    21    26    27   ar
    22    27    28   ar
    23    28    29   ar
    24    29    30   ar
    25    30    31    1
    26    30    32   ar
    27     5     6   ar
    28     6     7    1
    29    16    17    2
    30    17    18    1
    31    18    10    1
    32    17    13    1
    33     6     1   ar
    34    32    26   ar
    35    21    22    1
@<TRIPOS>MOLECULE
*****
 32 35 0 0 0
SMALL
GASTEIGER

@<TRIPOS>ATOM
      1 C          -5.5574  -15.7801   24.5059 C.ar    1  UNL1        0.0678
      2 C          -5.0900  -15.7080   25.9294 C.ar    1  UNL1        0.0055
      3 C          -6.0865  -15.7585   27.0495 C.ar    1  UNL1        0.0016
      4 C          -7.5503  -15.8812   26.7461 C.ar    1  UNL1        0.0181
      5 C          -8.0177  -15.9534   25.3225 C.ar    1  UNL1        0.0922
      6 C          -7.0212  -15.9029   24.2024 C.ar    1  UNL1        0.1576
      7 F          -7.4887  -15.9751   22.7790 F       1  UNL1       -0.2027
      8 C          -4.5609  -15.7296   23.3859 C.2     1  UNL1        0.2014
      9 O          -4.3230  -14.4437   22.6511 O.2     1  UNL1       -0.2864
     10 C          -5.8243  -19.4914   20.5630 C.2     1  UNL1        0.0974
     11 C          -4.7414  -20.5230   20.4487 C.2     1  UNL1        0.2421
     12 N          -3.4393  -20.3263   21.1670 N.2     1  UNL1       -0.0304
     13 C          -3.2202  -19.0979   21.9995 C.2     1  UNL1        0.3721
     14 N          -2.0502  -18.6342   22.8157 N.2     1  UNL1       -0.0307
     15 C          -2.4101  -17.3159   23.4344 C.2     1  UNL1        0.2390
     16 C          -3.8024  -16.9649   23.0006 C.2     1  UNL1        0.0895
     17 C          -4.3031  -18.0663   22.1137 C.2     1  UNL1        0.0782
     18 C          -5.6051  -18.2631   21.3955 C.3     1  UNL1        0.0751
     19 N          -8.4285  -19.8849   19.1265 N.1     1  UNL1       -0.1910
     20 C          -7.1264  -19.6882   19.8448 C.1     1  UNL1        0.1003
     21 N          -9.4815  -16.0762   25.0191 N.pl3   1  UNL1       -0.2128
     22 H         -10.1357  -15.5427   25.5258 H       1  UNL1        0.1738
     23 S          -9.9487  -17.0117   23.9437 S.O2    1  UNL1        0.0737
     24 O          -9.4403  -18.1783   24.7376 O.2     1  UNL1       -0.1499
     25 O         -10.4572  -15.8450   23.1497 O.2     1  UNL1       -0.1499
     26 C         -10.4160  -17.9472   22.8682 C.ar    1  UNL1        0.1274
     27 C         -10.5467  -19.4137   23.1547 C.ar    1  UNL1        0.0203
     28 C         -11.0139  -20.3492   22.0793 C.ar    1  UNL1        0.0037
     29 C         -11.3504  -19.8182   20.7174 C.ar    1  UNL1        0.0297
     30 C         -11.2197  -18.3516   20.4309 C.ar    1  UNL1        0.1415
     31 F         -11.5562  -17.8206   19.0690 F       1  UNL1       -0.2041
     32 C         -10.7525  -17.4161   21.5063 C.ar    1  UNL1        0.0498
@<TRIPOS>BOND
     1    19    20    3
     2    20    10    1
     3    10    11    2
     4    11    12    1
     5    12    13    2
     6    13    14    1
     7    14    15    2
     8    15    16    1
     9    16     8    1
    10     8     9    2
    11     8     1    1
    12     1     2   ar
    13     2     3   ar
    14     3     4   ar
    15     4     5   ar
    16     5    21    1
    17    21    23    1
    18    23    24    2
    19    23    25    2
    20    23    26    1
    21    26    27   ar
    22    27    28   ar
    23    28    29   ar
    24    29    30   ar
    25    30    31    1
    26    30    32   ar
    27     5     6   ar
    28     6     7    1
    29    16    17    2
    30    17    18    1
    31    18    10    1
    32    17    13    1
    33     6     1   ar
    34    32    26   ar
    35    21    22    1
@<TRIPOS>MOLECULE
*****
 32 35 0 0 0
SMALL
GASTEIGER

@<TRIPOS>ATOM
      1 C          -4.8605  -19.4643   20.5327 C.ar    1  UNL1        0.0678
      2 C          -3.8998  -19.4109   19.3819 C.ar    1  UNL1        0.0055
      3 C          -2.7123  -18.4963   19.4381 C.ar    1  UNL1        0.0016
      4 C          -2.4853  -17.6350   20.6450 C.ar    1  UNL1        0.0181
      5 C          -3.4460  -17.6885   21.7958 C.ar    1  UNL1        0.0922
      6 C          -4.6336  -18.6031   21.7397 C.ar    1  UNL1        0.1576
      7 F          -5.5942  -18.6564   22.8905 F       1  UNL1       -0.2027
      8 C          -6.0480  -20.3790   20.4766 C.2     1  UNL1        0.2014
      9 O          -5.8843  -21.8399   20.7748 O.2     1  UNL1       -0.2864
     10 C          -9.6352  -18.6784   23.2973 C.2     1  UNL1        0.0974
     11 C         -10.8299  -18.2269   22.5108 C.2     1  UNL1        0.2421
     12 N         -10.8249  -18.3286   21.0143 N.2     1  UNL1       -0.0304
     13 C          -9.6250  -18.8819   20.3043 C.2     1  UNL1        0.3721
     14 N          -9.3325  -19.1021   18.8496 N.2     1  UNL1       -0.0307
     15 C          -7.9570  -19.6897   18.7371 C.2     1  UNL1        0.2390
     16 C          -7.3993  -19.8327   20.1222 C.2     1  UNL1        0.0895
     17 C          -8.4302  -19.3334   21.0908 C.2     1  UNL1        0.0782
     18 C          -8.4353  -19.2317   22.5873 C.3     1  UNL1        0.0751
     19 N          -9.6454  -18.4749   26.2904 N.1     1  UNL1       -0.1910
     20 C          -9.6403  -18.5767   24.7939 C.1     1  UNL1        0.1003
     21 N          -3.2191  -16.8272   23.0028 N.pl3   1  UNL1       -0.2128
     22 H          -2.3102  -16.5213   23.2253 H       1  UNL1        0.1738
     23 S          -4.3770  -16.4320   23.8707 S.O2    1  UNL1        0.0737
     24 O          -4.7210  -15.3319   22.9109 O.2     1  UNL1       -0.1499
     25 O          -4.0330  -17.5322   24.8305 O.2     1  UNL1       -0.1499
     26 C          -5.5349  -16.0369   24.7386 C.ar    1  UNL1        0.1274
     27 C          -5.3229  -15.7825   26.2016 C.ar    1  UNL1        0.0203
     28 C          -6.4807  -15.3874   27.0695 C.ar    1  UNL1        0.0037
     29 C          -7.8505  -15.2467   26.4745 C.ar    1  UNL1        0.0297
     30 C          -8.0624  -15.5011   25.0115 C.ar    1  UNL1        0.1415
     31 F          -9.4321  -15.3603   24.4165 F       1  UNL1       -0.2041
     32 C          -6.9046  -15.8962   24.1436 C.ar    1  UNL1        0.0498
@<TRIPOS>BOND
     1    19    20    3
     2    20    10    1
     3    10    11    2
     4    11    12    1
     5    12    13    2
     6    13    14    1
     7    14    15    2
     8    15    16    1
     9    16     8    1
    10     8     9    2
    11     8     1    1
    12     1     2   ar
    13     2     3   ar
    14     3     4   ar
    15     4     5   ar
    16     5    21    1
    17    21    23    1
    18    23    24    2
    19    23    25    2
    20    23    26    1
    21    26    27   ar
    22    27    28   ar
    23    28    29   ar
    24    29    30   ar
    25    30    31    1
    26    30    32   ar
    27     5     6   ar
    28     6     7    1
    29    16    17    2
    30    17    18    1
    31    18    10    1
    32    17    13    1
    33     6     1   ar
    34    32    26   ar
    35    21    22    1
@<TRIPOS>MOLECULE
*****
 32 35 0 0 0
SMALL
GASTEIGER

@<TRIPOS>ATOM
      1 C         -12.4076   -5.4917   18.8822 C.ar    1  UNL1        0.0678
      2 C         -10.9560   -5.8372   18.7283 C.ar    1  UNL1        0.0055
      3 C         -10.5535   -7.0589   17.9567 C.ar    1  UNL1        0.0016
      4 C         -11.6025   -7.9351   17.3388 C.ar    1  UNL1        0.0181
      5 C         -13.0541   -7.5896   17.4926 C.ar    1  UNL1        0.0922
      6 C         -13.4566   -6.3679   18.2643 C.ar    1  UNL1        0.1576
      7 F         -14.9082   -6.0225   18.4180 F       1  UNL1       -0.2027
      8 C         -12.8101   -4.2700   19.6538 C.2     1  UNL1        0.2014
      9 O         -13.4485   -4.4122   21.0037 O.2     1  UNL1       -0.2864
     10 C         -15.6362   -0.3044   19.5937 C.2     1  UNL1        0.0974
     11 C         -14.9934    0.8580   18.8969 C.2     1  UNL1        0.2421
     12 N         -13.6197    0.7154   18.3117 N.2     1  UNL1       -0.0304
     13 C         -12.8886   -0.5896   18.4234 C.2     1  UNL1        0.3721
     14 N         -11.5343   -1.0254   17.9480 N.2     1  UNL1       -0.0307
     15 C         -11.3400   -2.4571   18.3511 C.2     1  UNL1        0.2390
     16 C         -12.5743   -2.9062   19.0755 C.2     1  UNL1        0.0895
     17 C         -13.5314   -1.7521   19.1202 C.2     1  UNL1        0.0782
     18 C         -14.9052   -1.6094   19.7054 C.3     1  UNL1        0.0751
     19 N         -18.3837   -0.0192   20.7641 N.1     1  UNL1       -0.1910
     20 C         -17.0099   -0.1618   20.1789 C.1     1  UNL1        0.1003
     21 N         -14.1031   -8.4658   16.8747 N.pl3   1  UNL1       -0.2128
     22 H         -13.9306   -8.9059   16.0111 H       1  UNL1        0.1738
     23 S         -15.4148   -8.6715   17.5726 S.O2    1  UNL1        0.0737
     24 O         -14.7122   -9.4023   18.6780 O.2     1  UNL1       -0.1499
     25 O         -16.1175   -7.9407   16.4671 O.2     1  UNL1       -0.1499
     26 C         -16.7267   -8.8771   18.2704 C.ar    1  UNL1        0.1274
     27 C         -17.0261   -8.1340   19.5385 C.ar    1  UNL1        0.0203
     28 C         -18.3379   -8.3395   20.2363 C.ar    1  UNL1        0.0037
     29 C         -19.3502   -9.2883   19.6661 C.ar    1  UNL1        0.0297
     30 C         -19.0507  -10.0315   18.3981 C.ar    1  UNL1        0.1415
     31 F         -20.0630  -10.9803   17.8279 F       1  UNL1       -0.2041
     32 C         -17.7389   -9.8259   17.7002 C.ar    1  UNL1        0.0498
@<TRIPOS>BOND
     1    19    20    3
     2    20    10    1
     3    10    11    2
     4    11    12    1
     5    12    13    2
     6    13    14    1
     7    14    15    2
     8    15    16    1
     9    16     8    1
    10     8     9    2
    11     8     1    1
    12     1     2   ar
    13     2     3   ar
    14     3     4   ar
    15     4     5   ar
    16     5    21    1
    17    21    23    1
    18    23    24    2
    19    23    25    2
    20    23    26    1
    21    26    27   ar
    22    27    28   ar
    23    28    29   ar
    24    29    30   ar
    25    30    31    1
    26    30    32   ar
    27     5     6   ar
    28     6     7    1
    29    16    17    2
    30    17    18    1
    31    18    10    1
    32    17    13    1
    33     6     1   ar
    34    32    26   ar
    35    21    22    1
@<TRIPOS>MOLECULE
*****
 32 35 0 0 0
SMALL
GASTEIGER

@<TRIPOS>ATOM
      1 C          -3.8463  -17.0062   22.7443 C.ar    1  UNL1        0.0678
      2 C          -2.3670  -17.2458   22.8093 C.ar    1  UNL1        0.0055
      3 C          -1.7911  -18.5274   22.2843 C.ar    1  UNL1        0.0016
      4 C          -2.6944  -19.5695   21.6941 C.ar    1  UNL1        0.0181
      5 C          -4.1737  -19.3297   21.6291 C.ar    1  UNL1        0.0922
      6 C          -4.7497  -18.0481   22.1542 C.ar    1  UNL1        0.1576
      7 F          -6.2290  -17.8085   22.0891 F       1  UNL1       -0.2027
      8 C          -4.4223  -15.7245   23.2694 C.2     1  UNL1        0.2014
      9 O          -3.9222  -14.4092   22.7500 O.2     1  UNL1       -0.2864
     10 C          -9.2688  -15.9374   22.8426 C.2     1  UNL1        0.0974
     11 C          -9.9699  -15.9517   24.1685 C.2     1  UNL1        0.2421
     12 N          -9.1735  -15.9025   25.4386 N.2     1  UNL1       -0.0304
     13 C          -7.6759  -15.8390   25.3828 C.2     1  UNL1        0.3721
     14 N          -6.6329  -15.7815   26.4593 N.2     1  UNL1       -0.0307
     15 C          -5.2871  -15.7316   25.7986 C.2     1  UNL1        0.2390
     16 C          -5.4984  -15.7583   24.3138 C.2     1  UNL1        0.0895
     17 C          -6.9748  -15.8246   24.0569 C.2     1  UNL1        0.0782
     18 C          -7.7712  -15.8738   22.7867 C.3     1  UNL1        0.0751
     19 N         -10.8618  -16.0358   20.3023 N.1     1  UNL1       -0.1910
     20 C         -10.0653  -15.9866   21.5724 C.1     1  UNL1        0.1003
     21 N          -5.0771  -20.3718   21.0390 N.pl3   1  UNL1       -0.2128
     22 H          -4.6977  -21.2074   20.6827 H       1  UNL1        0.1738
     23 S          -6.5584  -20.1405   20.9918 S.O2    1  UNL1        0.0737
     24 O          -6.4135  -19.4856   19.6502 O.2     1  UNL1       -0.1499
     25 O          -6.7034  -20.7955   22.3334 O.2     1  UNL1       -0.1499
     26 C          -8.0398  -19.9093   20.9446 C.ar    1  UNL1        0.1274
     27 C          -8.7286  -19.7263   19.6248 C.ar    1  UNL1        0.0203
     28 C         -10.2099  -19.4951   19.5776 C.ar    1  UNL1        0.0037
     29 C         -11.0024  -19.4469   20.8502 C.ar    1  UNL1        0.0297
     30 C         -10.3136  -19.6300   22.1701 C.ar    1  UNL1        0.1415
     31 F         -11.1061  -19.5819   23.4427 F       1  UNL1       -0.2041
     32 C          -8.8323  -19.8612   22.2173 C.ar    1  UNL1        0.0498
@<TRIPOS>BOND
     1    19    20    3
     2    20    10    1
     3    10    11    2
     4    11    12    1
     5    12    13    2
     6    13    14    1
     7    14    15    2
     8    15    16    1
     9    16     8    1
    10     8     9    2
    11     8     1    1
    12     1     2   ar
    13     2     3   ar
    14     3     4   ar
    15     4     5   ar
    16     5    21    1
    17    21    23    1
    18    23    24    2
    19    23    25    2
    20    23    26    1
    21    26    27   ar
    22    27    28   ar
    23    28    29   ar
    24    29    30   ar
    25    30    31    1
    26    30    32   ar
    27     5     6   ar
    28     6     7    1
    29    16    17    2
    30    17    18    1
    31    18    10    1
    32    17    13    1
    33     6     1   ar
    34    32    26   ar
    35    21    22    1
@<TRIPOS>MOLECULE
*****
 32 35 0 0 0
SMALL
GASTEIGER

@<TRIPOS>ATOM
      1 C           4.7625   -3.2434   22.3594 C.ar    1  UNL1        0.0678
      2 C           3.9013   -2.1899   22.9905 C.ar    1  UNL1        0.0055
      3 C           4.2843   -1.6034   24.3169 C.ar    1  UNL1        0.0016
      4 C           5.5287   -2.0704   25.0122 C.ar    1  UNL1        0.0181
      5 C           6.3900   -3.1239   24.3811 C.ar    1  UNL1        0.0922
      6 C           6.0069   -3.7105   23.0547 C.ar    1  UNL1        0.1576
      7 F           6.8682   -4.7640   22.4237 F       1  UNL1       -0.2027
      8 C           4.3794   -3.8300   21.0331 C.2     1  UNL1        0.2014
      9 O           3.8473   -5.2304   20.9579 O.2     1  UNL1       -0.2864
     10 C           1.8175   -0.0324   19.3804 C.2     1  UNL1        0.0974
     11 C           2.3213    0.4812   18.0643 C.2     1  UNL1        0.2421
     12 N           3.4985   -0.1737   17.4045 N.2     1  UNL1       -0.0304
     13 C           4.1719   -1.3423   18.0609 C.2     1  UNL1        0.3721
     14 N           5.3437   -2.1849   17.6524 N.2     1  UNL1       -0.0307
     15 C           5.5641   -3.2193   18.7161 C.2     1  UNL1        0.2390
     16 C           4.5285   -3.0161   19.7820 C.2     1  UNL1        0.0895
     17 C           3.6681   -1.8560   19.3770 C.2     1  UNL1        0.0782
     18 C           2.4908   -1.2011   20.0368 C.3     1  UNL1        0.0751
     19 N          -0.5369    1.2774   20.6998 N.1     1  UNL1       -0.1910
     20 C           0.6403    0.6225   20.0401 C.1     1  UNL1        0.1003
     21 N           7.6344   -3.5909   25.0764 N.pl3   1  UNL1       -0.2128
     22 H           8.5003   -3.5605   24.6090 H       1  UNL1        0.1738
     23 S           7.5594   -4.1042   26.4838 S.O2    1  UNL1        0.0737
     24 O           6.7666   -5.2862   26.0106 O.2     1  UNL1       -0.1499
     25 O           8.3522   -2.9220   26.9571 O.2     1  UNL1       -0.1499
     26 C           7.4844   -4.6174   27.8914 C.ar    1  UNL1        0.1274
     27 C           8.1087   -5.9351   28.2434 C.ar    1  UNL1        0.0203
     28 C           8.0338   -6.4483   29.6508 C.ar    1  UNL1        0.0037
     29 C           7.3346   -5.6438   30.7063 C.ar    1  UNL1        0.0297
     30 C           6.7104   -4.3261   30.3543 C.ar    1  UNL1        0.1415
     31 F           6.0112   -3.5217   31.4098 F       1  UNL1       -0.2041
     32 C           6.7853   -3.8129   28.9469 C.ar    1  UNL1        0.0498
@<TRIPOS>BOND
     1    19    20    3
     2    20    10    1
     3    10    11    2
     4    11    12    1
     5    12    13    2
     6    13    14    1
     7    14    15    2
     8    15    16    1
     9    16     8    1
    10     8     9    2
    11     8     1    1
    12     1     2   ar
    13     2     3   ar
    14     3     4   ar
    15     4     5   ar
    16     5    21    1
    17    21    23    1
    18    23    24    2
    19    23    25    2
    20    23    26    1
    21    26    27   ar
    22    27    28   ar
    23    28    29   ar
    24    29    30   ar
    25    30    31    1
    26    30    32   ar
    27     5     6   ar
    28     6     7    1
    29    16    17    2
    30    17    18    1
    31    18    10    1
    32    17    13    1
    33     6     1   ar
    34    32    26   ar
    35    21    22    1
@<TRIPOS>MOLECULE
*****
 32 35 0 0 0
SMALL
GASTEIGER

@<TRIPOS>ATOM
      1 C           6.5779   -3.8373   21.3145 C.ar    1  UNL1        0.0678
      2 C           8.0738   -3.8279   21.2042 C.ar    1  UNL1        0.0055
      3 C           8.9170   -3.7838   22.4440 C.ar    1  UNL1        0.0016
      4 C           8.2644   -3.7491   23.7941 C.ar    1  UNL1        0.0181
      5 C           6.7684   -3.7585   23.9044 C.ar    1  UNL1        0.0922
      6 C           5.9252   -3.8026   22.6646 C.ar    1  UNL1        0.1576
      7 F           4.4293   -3.8120   22.7750 F       1  UNL1       -0.2027
      8 C           5.7347   -3.8814   20.0748 C.2     1  UNL1        0.2014
      9 O           4.8599   -5.0695   19.8046 O.2     1  UNL1       -0.2864
     10 C           2.5265   -0.3096   19.2584 C.2     1  UNL1        0.0974
     11 C           2.9686    0.6347   18.1800 C.2     1  UNL1        0.2421
     12 N           4.2794    0.4175   17.4839 N.2     1  UNL1       -0.0304
     13 C           5.1481   -0.7440   17.8660 C.2     1  UNL1        0.3721
     14 N           6.4815   -1.2093   17.3604 N.2     1  UNL1       -0.0307
     15 C           6.8635   -2.4412   18.1263 C.2     1  UNL1        0.2390
     16 C           5.7663   -2.7373   19.1052 C.2     1  UNL1        0.0895
     17 C           4.7061   -1.6883   18.9444 C.2     1  UNL1        0.0782
     18 C           3.3953   -1.4711   19.6405 C.3     1  UNL1        0.0751
     19 N          -0.0950    0.1248   20.6507 N.1     1  UNL1       -0.1910
     20 C           1.2157   -0.0924   19.9545 C.1     1  UNL1        0.1003
     21 N           6.1158   -3.7239   25.2545 N.pl3   1  UNL1       -0.2128
     22 H           5.2492   -3.2714   25.3709 H       1  UNL1        0.1738
     23 S           6.7835   -4.3785   26.4274 S.O2    1  UNL1        0.0737
     24 O           6.8943   -3.0465   27.1079 O.2     1  UNL1       -0.1499
     25 O           6.6727   -5.7107   25.7468 O.2     1  UNL1       -0.1499
     26 C           7.4512   -5.0333   27.6002 C.ar    1  UNL1        0.1274
     27 C           8.8682   -5.5116   27.4856 C.ar    1  UNL1        0.0203
     28 C           9.5360   -6.1664   28.6584 C.ar    1  UNL1        0.0037
     29 C           8.7867   -6.3427   29.9458 C.ar    1  UNL1        0.0297
     30 C           7.3697   -5.8644   30.0604 C.ar    1  UNL1        0.1415
     31 F           6.6204   -6.0408   31.3479 F       1  UNL1       -0.2041
     32 C           6.7019   -5.2097   28.8877 C.ar    1  UNL1        0.0498
@<TRIPOS>BOND
     1    19    20    3
     2    20    10    1
     3    10    11    2
     4    11    12    1
     5    12    13    2
     6    13    14    1
     7    14    15    2
     8    15    16    1
     9    16     8    1
    10     8     9    2
    11     8     1    1
    12     1     2   ar
    13     2     3   ar
    14     3     4   ar
    15     4     5   ar
    16     5    21    1
    17    21    23    1
    18    23    24    2
    19    23    25    2
    20    23    26    1
    21    26    27   ar
    22    27    28   ar
    23    28    29   ar
    24    29    30   ar
    25    30    31    1
    26    30    32   ar
    27     5     6   ar
    28     6     7    1
    29    16    17    2
    30    17    18    1
    31    18    10    1
    32    17    13    1
    33     6     1   ar
    34    32    26   ar
    35    21    22    1
@<TRIPOS>MOLECULE
*****
 32 35 0 0 0
SMALL
GASTEIGER

@<TRIPOS>ATOM
      1 C         -11.2887   -5.1778   18.3520 C.ar    1  UNL1        0.0678
      2 C          -9.9766   -5.8528   18.6218 C.ar    1  UNL1        0.0055
      3 C          -9.7673   -7.2788   18.2062 C.ar    1  UNL1        0.0016
      4 C         -10.8700   -8.0298   17.5206 C.ar    1  UNL1        0.0181
      5 C         -12.1821   -7.3547   17.2507 C.ar    1  UNL1        0.0922
      6 C         -12.3915   -5.9287   17.6664 C.ar    1  UNL1        0.1576
      7 F         -13.7035   -5.2538   17.3965 F       1  UNL1       -0.2027
      8 C         -11.4980   -3.7518   18.7676 C.2     1  UNL1        0.2014
      9 O         -10.4262   -2.7326   18.5175 O.2     1  UNL1       -0.2864
     10 C         -14.1861    0.2826   18.3047 C.2     1  UNL1        0.0974
     11 C         -15.4085    0.2705   19.1739 C.2     1  UNL1        0.2421
     12 N         -15.6875   -0.9075   20.0595 N.2     1  UNL1       -0.0304
     13 C         -14.7441   -2.0736   20.0759 C.2     1  UNL1        0.3721
     14 N         -14.7570   -3.3645   20.8398 N.2     1  UNL1       -0.0307
     15 C         -13.5426   -4.1503   20.4427 C.2     1  UNL1        0.2390
     16 C         -12.7791   -3.3450   19.4334 C.2     1  UNL1        0.0895
     17 C         -13.5218   -2.0616   19.2067 C.2     1  UNL1        0.0782
     18 C         -13.2427   -0.8835   18.3211 C.3     1  UNL1        0.0751
     19 N         -13.6281    2.6387   16.5335 N.1     1  UNL1       -0.1910
     20 C         -13.9071    1.4606   17.4191 C.1     1  UNL1        0.1003
     21 N         -13.2848   -8.1057   16.5651 N.pl3   1  UNL1       -0.2128
     22 H         -13.1254   -8.5215   15.6871 H       1  UNL1        0.1738
     23 S         -14.6305   -8.2232   17.2173 S.O2    1  UNL1        0.0737
     24 O         -15.2720   -7.6215   16.0023 O.2     1  UNL1       -0.1499
     25 O         -13.9891   -8.8249   18.4324 O.2     1  UNL1       -0.1499
     26 C         -15.9762   -8.3407   17.8696 C.ar    1  UNL1        0.1274
     27 C         -16.0833   -8.3869   19.3650 C.ar    1  UNL1        0.0203
     28 C         -17.4289   -8.5044   20.0173 C.ar    1  UNL1        0.0037
     29 C         -18.6674   -8.5757   19.1742 C.ar    1  UNL1        0.0297
     30 C         -18.5604   -8.5295   17.6787 C.ar    1  UNL1        0.1415
     31 F         -19.7989   -8.6008   16.8356 F       1  UNL1       -0.2041
     32 C         -17.2148   -8.4120   17.0264 C.ar    1  UNL1        0.0498
@<TRIPOS>BOND
     1    19    20    3
     2    20    10    1
     3    10    11    2
     4    11    12    1
     5    12    13    2
     6    13    14    1
     7    14    15    2
     8    15    16    1
     9    16     8    1
    10     8     9    2
    11     8     1    1
    12     1     2   ar
    13     2     3   ar
    14     3     4   ar
    15     4     5   ar
    16     5    21    1
    17    21    23    1
    18    23    24    2
    19    23    25    2
    20    23    26    1
    21    26    27   ar
    22    27    28   ar
    23    28    29   ar
    24    29    30   ar
    25    30    31    1
    26    30    32   ar
    27     5     6   ar
    28     6     7    1
    29    16    17    2
    30    17    18    1
    31    18    10    1
    32    17    13    1
    33     6     1   ar
    34    32    26   ar
    35    21    22    1
@<TRIPOS>MOLECULE
*****
 32 35 0 0 0
SMALL
GASTEIGER

@<TRIPOS>ATOM
      1 C          -5.6177  -15.8039   24.3797 C.ar    1  UNL1        0.0678
      2 C          -5.1918  -15.3986   25.7596 C.ar    1  UNL1        0.0055
      3 C          -6.2241  -15.1171   26.8108 C.ar    1  UNL1        0.0016
      4 C          -7.6824  -15.2408   26.4821 C.ar    1  UNL1        0.0181
      5 C          -8.1083  -15.6461   25.1020 C.ar    1  UNL1        0.0922
      6 C          -7.0760  -15.9276   24.0508 C.ar    1  UNL1        0.1576
      7 F          -7.5019  -16.3329   22.6709 F       1  UNL1       -0.2027
      8 C          -4.5853  -16.0854   23.3285 C.2     1  UNL1        0.2014
      9 O          -3.7065  -14.9790   22.8250 O.2     1  UNL1       -0.2864
     10 C          -1.0359  -18.0801   20.6566 C.2     1  UNL1        0.0974
     11 C          -1.2955  -19.5198   20.3255 C.2     1  UNL1        0.2421
     12 N          -2.5473  -20.1875   20.8125 N.2     1  UNL1       -0.0304
     13 C          -3.5395  -19.4154   21.6306 C.2     1  UNL1        0.3721
     14 N          -4.8519  -19.8030   22.2450 N.2     1  UNL1       -0.0307
     15 C          -5.4034  -18.6027   22.9558 C.2     1  UNL1        0.2390
     16 C          -4.4319  -17.4734   22.7807 C.2     1  UNL1        0.0895
     17 C          -3.2799  -17.9757   21.9617 C.2     1  UNL1        0.0782
     18 C          -2.0281  -17.3080   21.4747 C.3     1  UNL1        0.0751
     19 N           1.4677  -16.7447   19.6826 N.1     1  UNL1       -0.1910
     20 C           0.2159  -17.4124   20.1696 C.1     1  UNL1        0.1003
     21 N          -9.5666  -15.7698   24.7732 N.pl3   1  UNL1       -0.2128
     22 H         -10.2203  -15.1710   25.2015 H       1  UNL1        0.1738
     23 S         -10.0290  -16.8058   23.7920 S.O2    1  UNL1        0.0737
     24 O         -10.4181  -15.7221   22.8309 O.2     1  UNL1       -0.1499
     25 O          -9.6399  -17.8897   24.7531 O.2     1  UNL1       -0.1499
     26 C         -10.4913  -17.8420   22.8108 C.ar    1  UNL1        0.1274
     27 C         -10.6669  -19.2654   23.2502 C.ar    1  UNL1        0.0203
     28 C         -11.1292  -20.3016   22.2691 C.ar    1  UNL1        0.0037
     29 C         -11.4160  -19.9143   20.8485 C.ar    1  UNL1        0.0297
     30 C         -11.2404  -18.4909   20.4092 C.ar    1  UNL1        0.1415
     31 F         -11.5271  -18.1037   18.9887 F       1  UNL1       -0.2041
     32 C         -10.7781  -17.4548   21.3903 C.ar    1  UNL1        0.0498
@<TRIPOS>BOND
     1    19    20    3
     2    20    10    1
     3    10    11    2
     4    11    12    1
     5    12    13    2
     6    13    14    1
     7    14    15    2
     8    15    16    1
     9    16     8    1
    10     8     9    2
    11     8     1    1
    12     1     2   ar
    13     2     3   ar
    14     3     4   ar
    15     4     5   ar
    16     5    21    1
    17    21    23    1
    18    23    24    2
    19    23    25    2
    20    23    26    1
    21    26    27   ar
    22    27    28   ar
    23    28    29   ar
    24    29    30   ar
    25    30    31    1
    26    30    32   ar
    27     5     6   ar
    28     6     7    1
    29    16    17    2
    30    17    18    1
    31    18    10    1
    32    17    13    1
    33     6     1   ar
    34    32    26   ar
    35    21    22    1
