@<TRIPOS>MOLECULE
*****
 42 47 0 0 0
SMALL
GASTEIGER

@<TRIPOS>ATOM
      1 N           1.3142    2.0285   29.9923 N.am    1  UNL1       -0.1907
      2 C           2.3432    0.9414   30.0914 C.2     1  UNL1        0.3219
      3 O           2.7388   -0.0007   28.9934 O.2     1  UNL1       -0.2512
      4 N           2.9069    0.9620   31.4812 N.am    1  UNL1       -0.2223
      5 C           2.2264    2.0618   32.2413 C.3     1  UNL1        0.1391
      6 C           1.4646    3.1906   32.8701 C.3     1  UNL1        0.0449
      7 C           1.7230    3.5654   34.2993 C.3     1  UNL1        0.0746
      8 N           2.7432    2.8114   35.0997 N.3     1  UNL1       -0.2676
      9 C           3.5051    1.6826   34.4709 C.3     1  UNL1        0.0746
     10 C           3.2466    1.3078   33.0417 C.3     1  UNL1        0.0449
     11 C           1.2421    2.7209   31.3211 C.2     1  UNL1        0.2529
     12 O           0.3434    3.8705   31.6685 O.2     1  UNL1       -0.2724
     13 C          -1.1272    3.0355   26.3489 C.ar    1  UNL1       -0.0002
     14 C          -1.1307    1.6369   26.8909 C.ar    1  UNL1        0.0013
     15 C          -0.3169    1.3012   28.1054 C.ar    1  UNL1        0.0154
     16 C           0.5004    2.3641   28.7778 C.ar    1  UNL1        0.0622
     17 C           0.5039    3.7627   28.2358 C.ar    1  UNL1        0.0154
     18 C          -0.3100    4.0984   27.0213 C.ar    1  UNL1        0.0013
     19 C          -3.9937    3.8690   26.6474 C.3     1  UNL1        0.0310
     20 C          -3.3742    3.7879   25.2837 C.ar    1  UNL1       -0.0218
     21 C          -4.1881    4.1236   24.0691 C.ar    1  UNL1       -0.0031
     22 C          -3.5688    4.0426   22.7054 C.ar    1  UNL1        0.0137
     23 C          -2.1355    3.6258   22.5561 C.ar    1  UNL1        0.0011
     24 C          -1.3217    3.2901   23.7706 C.ar    1  UNL1       -0.0003
     25 C          -1.9411    3.3712   25.1344 C.ar    1  UNL1       -0.0040
     26 C          -4.3826    4.3783   21.4909 C.2     1  UNL1        0.0729
     27 O          -4.6954    3.3149   20.4803 O.co2   1  UNL1       -0.5446
     28 O          -4.8837    5.7773   21.2870 O.co2   1  UNL1       -0.5446
     29 C           3.9652    0.0441   32.0171 C.ar    1  UNL1        0.1422
     30 C           5.4134    0.4133   31.8890 C.ar    1  UNL1        0.0554
     31 C           6.4717   -0.5047   32.4249 C.ar    1  UNL1        0.1036
     32 N           6.0819   -1.7920   33.0890 N.ar    1  UNL1       -0.2223
     33 C           4.6337   -2.1612   33.2172 C.ar    1  UNL1        0.2001
     34 N           3.5754   -1.2432   32.6813 N.ar    1  UNL1       -0.2086
     35 C           3.0017    3.1863   36.5290 C.3     1  UNL1        0.1183
     36 C           2.2507    2.5007   37.6317 C.ar    1  UNL1        0.0712
     37 N           0.9575    3.0757   38.1287 N.ar    1  UNL1       -0.2471
     38 C           0.2066    2.3901   39.2315 C.ar    1  UNL1        0.0985
     39 C           0.7488    1.1295   39.8372 C.ar    1  UNL1        0.0203
     40 C           2.0419    0.5545   39.3401 C.ar    1  UNL1       -0.0015
     41 C           2.7929    1.2400   38.2374 C.ar    1  UNL1       -0.0069
     42 C           4.0861    0.6650   37.7403 C.3     1  UNL1        0.0323
@<TRIPOS>UNITY_ATOM_ATTR
27 1
charge -1
@<TRIPOS>BOND
     1    19    20    1
     2    20    21   ar
     3    21    22   ar
     4    22    26    1
     5    26    27   ar
     6    26    28   ar
     7    22    23   ar
     8    23    24   ar
     9    24    25   ar
    10    25    13    1
    11    13    14   ar
    12    14    15   ar
    13    15    16   ar
    14    16     1    1
    15     1     2   am
    16     2     3    2
    17     2     4   am
    18     4    29    1
    19    29    30   ar
    20    30    31   ar
    21    31    32   ar
    22    32    33   ar
    23    33    34   ar
    24     4     5    1
    25     5     6    1
    26     6     7    1
    27     7     8    1
    28     8    35    1
    29    35    36    1
    30    36    37   ar
    31    37    38   ar
    32    38    39   ar
    33    39    40   ar
    34    40    41   ar
    35    41    42    1
    36     8     9    1
    37     9    10    1
    38     5    11    1
    39    11    12    2
    40    16    17   ar
    41    17    18   ar
    42    25    20   ar
    43    18    13   ar
    44    11     1   am
    45    34    29   ar
    46    10     5    1
    47    41    36   ar
@<TRIPOS>MOLECULE
*****
 42 47 0 0 0
SMALL
GASTEIGER

@<TRIPOS>ATOM
      1 N           1.2985    1.9709   29.9825 N.am    1  UNL1       -0.1907
      2 C           2.3295    0.8868   30.0917 C.2     1  UNL1        0.3219
      3 O           2.7286   -0.0632   29.0018 O.2     1  UNL1       -0.2512
      4 N           2.8912    0.9196   31.4821 N.am    1  UNL1       -0.2223
      5 C           2.2074    2.0240   32.2324 C.3     1  UNL1        0.1391
      6 C           1.4424    3.1562   32.8512 C.3     1  UNL1        0.0449
      7 C           1.6981    3.5429   34.2777 C.3     1  UNL1        0.0746
      8 N           2.7187    2.7975   35.0855 N.3     1  UNL1       -0.2676
      9 C           3.4837    1.6653   34.4668 C.3     1  UNL1        0.0746
     10 C           3.2281    1.2786   33.0402 C.3     1  UNL1        0.0449
     11 C           1.2231    2.6738   31.3056 C.2     1  UNL1        0.2529
     12 O           0.3216    3.8243   31.6427 O.2     1  UNL1       -0.2724
     13 C          -1.1399    2.9439   26.3278 C.ar    1  UNL1       -0.0002
     14 C          -0.5098    4.0475   27.1247 C.ar    1  UNL1        0.0013
     15 C           0.3030    3.7232   28.3429 C.ar    1  UNL1        0.0154
     16 C           0.4857    2.2953   28.7643 C.ar    1  UNL1        0.0622
     17 C          -0.1444    1.1917   27.9675 C.ar    1  UNL1        0.0154
     18 C          -0.9572    1.5160   26.7492 C.ar    1  UNL1        0.0013
     19 C           0.1618    2.9923   23.6253 C.3     1  UNL1        0.0310
     20 C          -1.3019    3.2924   23.7584 C.ar    1  UNL1       -0.0218
     21 C          -2.1147    3.6168   22.5400 C.ar    1  UNL1       -0.0031
     22 C          -3.5783    3.9169   22.6730 C.ar    1  UNL1        0.0137
     23 C          -4.2292    3.8927   24.0243 C.ar    1  UNL1        0.0011
     24 C          -3.4164    3.5684   25.2425 C.ar    1  UNL1       -0.0003
     25 C          -1.9527    3.2682   25.1096 C.ar    1  UNL1       -0.0040
     26 C          -4.3911    4.2412   21.4548 C.2     1  UNL1        0.0729
     27 O          -5.0613    5.5778   21.3343 O.co2   1  UNL1       -0.5446
     28 O          -4.5338    3.2290   20.3570 O.co2   1  UNL1       -0.5446
     29 C           3.9507    0.0082   32.0268 C.ar    1  UNL1        0.1422
     30 C           5.3979    0.3828   31.9042 C.ar    1  UNL1        0.0554
     31 C           6.4574   -0.5287   32.4489 C.ar    1  UNL1        0.1036
     32 N           6.0696   -1.8149   33.1162 N.ar    1  UNL1       -0.2223
     33 C           4.6223   -2.1896   33.2389 C.ar    1  UNL1        0.2001
     34 N           3.5629   -1.2780   32.6942 N.ar    1  UNL1       -0.2086
     35 C           2.9744    3.1842   36.5121 C.3     1  UNL1        0.1183
     36 C           2.2257    2.5036   37.6194 C.ar    1  UNL1        0.0712
     37 N           0.9376    3.0853   38.1220 N.ar    1  UNL1       -0.2471
     38 C           0.1889    2.4046   39.2293 C.ar    1  UNL1        0.0985
     39 C           0.7283    1.1423   39.8341 C.ar    1  UNL1        0.0203
     40 C           2.0164    0.5607   39.3315 C.ar    1  UNL1       -0.0015
     41 C           2.7651    1.2413   38.2242 C.ar    1  UNL1       -0.0069
     42 C           4.0531    0.6597   37.7216 C.3     1  UNL1        0.0323
@<TRIPOS>UNITY_ATOM_ATTR
27 1
charge -1
@<TRIPOS>BOND
     1    19    20    1
     2    20    21   ar
     3    21    22   ar
     4    22    26    1
     5    26    27   ar
     6    26    28   ar
     7    22    23   ar
     8    23    24   ar
     9    24    25   ar
    10    25    13    1
    11    13    14   ar
    12    14    15   ar
    13    15    16   ar
    14    16     1    1
    15     1     2   am
    16     2     3    2
    17     2     4   am
    18     4    29    1
    19    29    30   ar
    20    30    31   ar
    21    31    32   ar
    22    32    33   ar
    23    33    34   ar
    24     4     5    1
    25     5     6    1
    26     6     7    1
    27     7     8    1
    28     8    35    1
    29    35    36    1
    30    36    37   ar
    31    37    38   ar
    32    38    39   ar
    33    39    40   ar
    34    40    41   ar
    35    41    42    1
    36     8     9    1
    37     9    10    1
    38     5    11    1
    39    11    12    2
    40    16    17   ar
    41    17    18   ar
    42    25    20   ar
    43    18    13   ar
    44    11     1   am
    45    34    29   ar
    46    10     5    1
    47    41    36   ar
@<TRIPOS>MOLECULE
*****
 42 47 0 0 0
SMALL
GASTEIGER

@<TRIPOS>ATOM
      1 N          -1.9378    3.2134   25.9894 N.am    1  UNL1       -0.1907
      2 C          -1.6122    3.2437   24.5254 C.2     1  UNL1        0.3219
      3 O          -0.3538    2.7298   23.8913 O.2     1  UNL1       -0.2512
      4 N          -2.7660    3.8781   23.8069 N.am    1  UNL1       -0.2223
      5 C          -3.8048    4.2399   24.8269 C.3     1  UNL1        0.1391
      6 C          -4.7462    4.5423   25.9547 C.3     1  UNL1        0.0449
      7 C          -6.0652    5.1995   25.6750 C.3     1  UNL1        0.0746
      8 N          -6.4427    5.5543   24.2673 N.3     1  UNL1       -0.2676
      9 C          -5.5013    5.2520   23.1394 C.3     1  UNL1        0.0746
     10 C          -4.1823    4.5947   23.4192 C.3     1  UNL1        0.0449
     11 C          -3.2929    3.8291   26.1757 C.2     1  UNL1        0.2529
     12 O          -4.0101    4.0034   27.4815 O.2     1  UNL1       -0.2724
     13 C           0.6894    1.5649   29.2498 C.ar    1  UNL1       -0.0002
     14 C          -0.5947    0.8732   28.8996 C.ar    1  UNL1        0.0013
     15 C          -1.4705    1.4227   27.8128 C.ar    1  UNL1        0.0154
     16 C          -1.0621    2.6639   27.0762 C.ar    1  UNL1        0.0622
     17 C           0.2220    3.3556   27.4264 C.ar    1  UNL1        0.0154
     18 C           1.0977    2.8061   28.5132 C.ar    1  UNL1        0.0013
     19 C           0.9088    3.0060   31.8719 C.3     1  UNL1        0.0310
     20 C           1.6748    1.7360   31.6476 C.ar    1  UNL1       -0.0218
     21 C           2.5505    1.1865   32.7345 C.ar    1  UNL1       -0.0031
     22 C           3.3165   -0.0836   32.5103 C.ar    1  UNL1        0.0137
     23 C           3.2068   -0.8041   31.1992 C.ar    1  UNL1        0.0011
     24 C           2.3311   -0.2547   30.1124 C.ar    1  UNL1       -0.0003
     25 C           1.5651    1.0154   30.3366 C.ar    1  UNL1       -0.0040
     26 C           4.1922   -0.6331   33.5971 C.2     1  UNL1        0.0729
     27 O           5.1865    0.2576   34.2813 O.co2   1  UNL1       -0.5446
     28 O           4.0737   -2.0732   33.9996 O.co2   1  UNL1       -0.5446
     29 C          -2.8640    4.1100   22.3283 C.ar    1  UNL1        0.1422
     30 C          -2.2808    5.3527   21.7236 C.ar    1  UNL1        0.0554
     31 C          -2.3789    5.5845   20.2449 C.ar    1  UNL1        0.1036
     32 N          -3.0601    4.5736   19.3707 N.ar    1  UNL1       -0.2223
     33 C          -3.6432    3.3309   19.9753 C.ar    1  UNL1        0.2001
     34 N          -3.5452    3.0991   21.4541 N.ar    1  UNL1       -0.2086
     35 C          -7.7618    6.2116   23.9875 C.3     1  UNL1        0.1183
     36 C          -9.0393    5.4691   24.2453 C.ar    1  UNL1        0.0712
     37 N          -9.0871    3.9789   24.0807 N.ar    1  UNL1       -0.2471
     38 C         -10.3647    3.2364   24.3385 C.ar    1  UNL1        0.0985
     39 C         -11.5945    3.9841   24.7610 C.ar    1  UNL1        0.0203
     40 C         -11.5468    5.4743   24.9256 C.ar    1  UNL1       -0.0015
     41 C         -10.2693    6.2168   24.6678 C.ar    1  UNL1       -0.0069
     42 C         -10.2215    7.7070   24.8324 C.3     1  UNL1        0.0323
@<TRIPOS>UNITY_ATOM_ATTR
27 1
charge -1
@<TRIPOS>BOND
     1    19    20    1
     2    20    21   ar
     3    21    22   ar
     4    22    26    1
     5    26    27   ar
     6    26    28   ar
     7    22    23   ar
     8    23    24   ar
     9    24    25   ar
    10    25    13    1
    11    13    14   ar
    12    14    15   ar
    13    15    16   ar
    14    16     1    1
    15     1     2   am
    16     2     3    2
    17     2     4   am
    18     4    29    1
    19    29    30   ar
    20    30    31   ar
    21    31    32   ar
    22    32    33   ar
    23    33    34   ar
    24     4     5    1
    25     5     6    1
    26     6     7    1
    27     7     8    1
    28     8    35    1
    29    35    36    1
    30    36    37   ar
    31    37    38   ar
    32    38    39   ar
    33    39    40   ar
    34    40    41   ar
    35    41    42    1
    36     8     9    1
    37     9    10    1
    38     5    11    1
    39    11    12    2
    40    16    17   ar
    41    17    18   ar
    42    25    20   ar
    43    18    13   ar
    44    11     1   am
    45    34    29   ar
    46    10     5    1
    47    41    36   ar
@<TRIPOS>MOLECULE
*****
 42 47 0 0 0
SMALL
GASTEIGER

@<TRIPOS>ATOM
      1 N           2.0841    0.3255   23.3708 N.am    1  UNL1       -0.1907
      2 C           2.2817   -0.0147   21.9233 C.2     1  UNL1        0.3219
      3 O           1.4009    0.4160   20.7882 O.2     1  UNL1       -0.2512
      4 N           3.5148   -0.8613   21.8103 N.am    1  UNL1       -0.2223
      5 C           4.0793   -1.0443   23.1880 C.3     1  UNL1        0.1391
      6 C           4.5244   -1.1395   24.6172 C.3     1  UNL1        0.0449
      7 C           5.7567   -1.9191   24.9686 C.3     1  UNL1        0.0746
      8 N           6.5440   -2.6035   23.8908 N.3     1  UNL1       -0.2676
      9 C           6.0989   -2.5084   22.4615 C.3     1  UNL1        0.0746
     10 C           4.8666   -1.7288   22.1101 C.3     1  UNL1        0.0449
     11 C           3.1951   -0.3108   24.1524 C.2     1  UNL1        0.2529
     12 O           3.3881   -0.2281   25.6377 O.2     1  UNL1       -0.2724
     13 C          -1.2552    2.8176   25.0703 C.ar    1  UNL1       -0.0002
     14 C          -0.7089    3.1247   23.7075 C.ar    1  UNL1        0.0013
     15 C           0.4042    2.2940   23.1410 C.ar    1  UNL1        0.0154
     16 C           0.9710    1.1562   23.9373 C.ar    1  UNL1        0.0622
     17 C           0.4247    0.8492   25.3000 C.ar    1  UNL1        0.0154
     18 C          -0.6884    1.6798   25.8665 C.ar    1  UNL1        0.0013
     19 C          -0.6470    5.0001   27.0368 C.3     1  UNL1        0.0310
     20 C          -2.0642    4.7395   26.6200 C.ar    1  UNL1       -0.0218
     21 C          -3.1774    5.5703   27.1865 C.ar    1  UNL1       -0.0031
     22 C          -4.5946    5.3098   26.7697 C.ar    1  UNL1        0.0137
     23 C          -4.8986    4.2185   25.7864 C.ar    1  UNL1        0.0011
     24 C          -3.7855    3.3878   25.2200 C.ar    1  UNL1       -0.0003
     25 C          -2.3683    3.6483   25.6367 C.ar    1  UNL1       -0.0040
     26 C          -5.7077    6.1405   27.3362 C.2     1  UNL1        0.0729
     27 O          -5.4957    6.9145   28.6034 O.co2   1  UNL1       -0.5446
     28 O          -7.0327    6.1971   26.6354 O.co2   1  UNL1       -0.5446
     29 C           4.0835   -1.4258   20.5423 C.ar    1  UNL1        0.1422
     30 C           3.6270   -2.7660   20.0469 C.ar    1  UNL1        0.0554
     31 C           4.1958   -3.3304   18.7789 C.ar    1  UNL1        0.1036
     32 N           5.2211   -2.5548   18.0062 N.ar    1  UNL1       -0.2223
     33 C           5.6777   -1.2146   18.5016 C.ar    1  UNL1        0.2001
     34 N           5.1089   -0.6501   19.7696 N.ar    1  UNL1       -0.2086
     35 C           7.7764   -3.3831   24.2423 C.3     1  UNL1        0.1183
     36 C           7.6550   -4.7903   24.7474 C.ar    1  UNL1        0.0712
     37 N           7.0052   -5.0581   26.0725 N.ar    1  UNL1       -0.2471
     38 C           6.8839   -6.4654   26.5775 C.ar    1  UNL1        0.0985
     39 C           7.4124   -7.6047   25.7575 C.ar    1  UNL1        0.0203
     40 C           8.0622   -7.3369   24.4323 C.ar    1  UNL1       -0.0015
     41 C           8.1836   -5.9297   23.9273 C.ar    1  UNL1       -0.0069
     42 C           8.8334   -5.6619   22.6021 C.3     1  UNL1        0.0323
@<TRIPOS>UNITY_ATOM_ATTR
27 1
charge -1
@<TRIPOS>BOND
     1    19    20    1
     2    20    21   ar
     3    21    22   ar
     4    22    26    1
     5    26    27   ar
     6    26    28   ar
     7    22    23   ar
     8    23    24   ar
     9    24    25   ar
    10    25    13    1
    11    13    14   ar
    12    14    15   ar
    13    15    16   ar
    14    16     1    1
    15     1     2   am
    16     2     3    2
    17     2     4   am
    18     4    29    1
    19    29    30   ar
    20    30    31   ar
    21    31    32   ar
    22    32    33   ar
    23    33    34   ar
    24     4     5    1
    25     5     6    1
    26     6     7    1
    27     7     8    1
    28     8    35    1
    29    35    36    1
    30    36    37   ar
    31    37    38   ar
    32    38    39   ar
    33    39    40   ar
    34    40    41   ar
    35    41    42    1
    36     8     9    1
    37     9    10    1
    38     5    11    1
    39    11    12    2
    40    16    17   ar
    41    17    18   ar
    42    25    20   ar
    43    18    13   ar
    44    11     1   am
    45    34    29   ar
    46    10     5    1
    47    41    36   ar
@<TRIPOS>MOLECULE
*****
 42 47 0 0 0
SMALL
GASTEIGER

@<TRIPOS>ATOM
      1 N           2.3011    0.8088   30.4956 N.am    1  UNL1       -0.1907
      2 C           3.3640   -0.2186   30.2413 C.2     1  UNL1        0.3219
      3 O           3.6244   -0.9137   28.9379 O.2     1  UNL1       -0.2512
      4 N           4.1208   -0.4287   31.5192 N.am    1  UNL1       -0.2223
      5 C           3.5257    0.4688   32.5634 C.3     1  UNL1        0.1391
      6 C           2.8303    1.4149   33.4969 C.3     1  UNL1        0.0449
      7 C           3.2807    1.5277   34.9231 C.3     1  UNL1        0.0746
      8 N           4.4265    0.6944   35.4160 N.3     1  UNL1       -0.2676
      9 C           5.1218   -0.2518   34.4826 C.3     1  UNL1        0.0746
     10 C           4.6714   -0.3646   33.0563 C.3     1  UNL1        0.0449
     11 C           2.4010    1.2336   31.9308 C.2     1  UNL1        0.2529
     12 O           1.5293    2.2456   32.6135 O.2     1  UNL1       -0.2724
     13 C          -0.6663    2.3466   27.4824 C.ar    1  UNL1       -0.0002
     14 C          -0.7664    0.9354   27.9809 C.ar    1  UNL1        0.0013
     15 C           0.2227    0.4228   28.9853 C.ar    1  UNL1        0.0154
     16 C           1.3119    1.3214   29.4912 C.ar    1  UNL1        0.0622
     17 C           1.4120    2.7326   28.9928 C.ar    1  UNL1        0.0154
     18 C           0.4229    3.2452   27.9884 C.ar    1  UNL1        0.0013
     19 C          -0.0444    2.1933   24.5516 C.3     1  UNL1        0.0310
     20 C          -1.3445    2.7825   25.0127 C.ar    1  UNL1       -0.0218
     21 C          -2.3337    3.2952   24.0082 C.ar    1  UNL1       -0.0031
     22 C          -3.6338    3.8844   24.4692 C.ar    1  UNL1        0.0137
     23 C          -3.9447    3.9611   25.9347 C.ar    1  UNL1        0.0011
     24 C          -2.9556    3.4485   26.9391 C.ar    1  UNL1       -0.0003
     25 C          -1.6555    2.8592   26.4781 C.ar    1  UNL1       -0.0040
     26 C          -4.6229    4.3970   23.4648 C.2     1  UNL1        0.0729
     27 O          -4.8561    5.8724   23.3274 O.co2   1  UNL1       -0.5446
     28 O          -5.3789    3.4343   22.5978 O.co2   1  UNL1       -0.5446
     29 C           5.2709   -1.3709   31.7180 C.ar    1  UNL1        0.1422
     30 C           6.6617   -0.9446   31.3520 C.ar    1  UNL1        0.0554
     31 C           7.8117   -1.8869   31.5509 C.ar    1  UNL1        0.1036
     32 N           7.5710   -3.2555   32.1159 N.ar    1  UNL1       -0.2223
     33 C           6.1802   -3.6818   32.4819 C.ar    1  UNL1        0.2001
     34 N           5.0302   -2.7395   32.2830 N.ar    1  UNL1       -0.2086
     35 C           4.8768    0.8072   36.8424 C.3     1  UNL1        0.1183
     36 C           4.5833    2.0525   37.6253 C.ar    1  UNL1        0.0712
     37 N           5.5213    3.2210   37.5553 N.ar    1  UNL1       -0.2471
     38 C           5.2278    4.4663   38.3382 C.ar    1  UNL1        0.0985
     39 C           3.9963    4.5432   39.1911 C.ar    1  UNL1        0.0203
     40 C           3.0583    3.3748   39.2611 C.ar    1  UNL1       -0.0015
     41 C           3.3518    2.1295   38.4782 C.ar    1  UNL1       -0.0069
     42 C           2.4138    0.9610   38.5482 C.3     1  UNL1        0.0323
@<TRIPOS>UNITY_ATOM_ATTR
27 1
charge -1
@<TRIPOS>BOND
     1    19    20    1
     2    20    21   ar
     3    21    22   ar
     4    22    26    1
     5    26    27   ar
     6    26    28   ar
     7    22    23   ar
     8    23    24   ar
     9    24    25   ar
    10    25    13    1
    11    13    14   ar
    12    14    15   ar
    13    15    16   ar
    14    16     1    1
    15     1     2   am
    16     2     3    2
    17     2     4   am
    18     4    29    1
    19    29    30   ar
    20    30    31   ar
    21    31    32   ar
    22    32    33   ar
    23    33    34   ar
    24     4     5    1
    25     5     6    1
    26     6     7    1
    27     7     8    1
    28     8    35    1
    29    35    36    1
    30    36    37   ar
    31    37    38   ar
    32    38    39   ar
    33    39    40   ar
    34    40    41   ar
    35    41    42    1
    36     8     9    1
    37     9    10    1
    38     5    11    1
    39    11    12    2
    40    16    17   ar
    41    17    18   ar
    42    25    20   ar
    43    18    13   ar
    44    11     1   am
    45    34    29   ar
    46    10     5    1
    47    41    36   ar
@<TRIPOS>MOLECULE
*****
 42 47 0 0 0
SMALL
GASTEIGER

@<TRIPOS>ATOM
      1 N           2.5300    2.1611   30.0670 N.am    1  UNL1       -0.1907
      2 C           1.5898    3.3287   30.1217 C.2     1  UNL1        0.3219
      3 O           0.8333    3.9064   28.9625 O.2     1  UNL1       -0.2512
      4 N           1.5389    3.8169   31.5391 N.am    1  UNL1       -0.2223
      5 C           2.4477    2.9512   32.3605 C.3     1  UNL1        0.1391
      6 C           3.3879    2.0072   33.0495 C.3     1  UNL1        0.0449
      7 C           3.6399    2.1413   34.5221 C.3     1  UNL1        0.0746
      8 N           2.9517    3.2194   35.3056 N.3     1  UNL1       -0.2676
      9 C           2.0115    4.1634   34.6167 C.3     1  UNL1        0.0746
     10 C           1.7595    4.0293   33.1441 C.3     1  UNL1        0.0449
     11 C           3.0602    1.9279   31.4508 C.2     1  UNL1        0.2529
     12 O           4.0323    0.8589   31.8539 O.2     1  UNL1       -0.2724
     13 C           3.5762   -0.2229   26.3967 C.ar    1  UNL1       -0.0002
     14 C           3.9150    1.2368   26.4647 C.ar    1  UNL1        0.0013
     15 C           3.5662    2.0314   27.6881 C.ar    1  UNL1        0.0154
     16 C           2.8787    1.3664   28.8436 C.ar    1  UNL1        0.0622
     17 C           2.5400   -0.0932   28.7757 C.ar    1  UNL1        0.0154
     18 C           2.8888   -0.8878   27.5522 C.ar    1  UNL1        0.0013
     19 C           2.1237    0.2759   23.8196 C.3     1  UNL1        0.0310
     20 C           3.1987   -0.7682   23.8848 C.ar    1  UNL1       -0.0218
     21 C           3.5475   -1.5629   22.6613 C.ar    1  UNL1       -0.0031
     22 C           4.6225   -2.6070   22.7264 C.ar    1  UNL1        0.0137
     23 C           5.3488   -2.8564   24.0150 C.ar    1  UNL1        0.0011
     24 C           5.0000   -2.0617   25.2384 C.ar    1  UNL1       -0.0003
     25 C           3.9250   -1.0176   25.1733 C.ar    1  UNL1       -0.0040
     26 C           4.9712   -3.4017   21.5029 C.2     1  UNL1        0.0729
     27 O           6.1697   -4.3038   21.5110 O.co2   1  UNL1       -0.5446
     28 O           4.1216   -3.2944   20.2714 O.co2   1  UNL1       -0.5446
     29 C           0.7226    4.9687   32.0461 C.ar    1  UNL1        0.1422
     30 C           1.2454    6.3694   31.9249 C.ar    1  UNL1        0.0554
     31 C           0.4291    7.5211   32.4320 C.ar    1  UNL1        0.1036
     32 N          -0.9101    7.2722   33.0603 N.ar    1  UNL1       -0.2223
     33 C          -1.4329    5.8715   33.1814 C.ar    1  UNL1        0.2001
     34 N          -0.6166    4.7198   32.6744 N.ar    1  UNL1       -0.2086
     35 C           3.2037    3.3534   36.7783 C.3     1  UNL1        0.1183
     36 C           2.3817    2.5654   37.7546 C.ar    1  UNL1        0.0712
     37 N           1.0684    3.1059   38.2374 N.ar    1  UNL1       -0.2471
     38 C           0.2464    2.3179   39.2138 C.ar    1  UNL1        0.0985
     39 C           0.7377    0.9894   39.7074 C.ar    1  UNL1        0.0203
     40 C           2.0510    0.4489   39.2247 C.ar    1  UNL1       -0.0015
     41 C           2.8730    1.2369   38.2483 C.ar    1  UNL1       -0.0069
     42 C           4.1863    0.6964   37.7656 C.3     1  UNL1        0.0323
@<TRIPOS>UNITY_ATOM_ATTR
27 1
charge -1
@<TRIPOS>BOND
     1    19    20    1
     2    20    21   ar
     3    21    22   ar
     4    22    26    1
     5    26    27   ar
     6    26    28   ar
     7    22    23   ar
     8    23    24   ar
     9    24    25   ar
    10    25    13    1
    11    13    14   ar
    12    14    15   ar
    13    15    16   ar
    14    16     1    1
    15     1     2   am
    16     2     3    2
    17     2     4   am
    18     4    29    1
    19    29    30   ar
    20    30    31   ar
    21    31    32   ar
    22    32    33   ar
    23    33    34   ar
    24     4     5    1
    25     5     6    1
    26     6     7    1
    27     7     8    1
    28     8    35    1
    29    35    36    1
    30    36    37   ar
    31    37    38   ar
    32    38    39   ar
    33    39    40   ar
    34    40    41   ar
    35    41    42    1
    36     8     9    1
    37     9    10    1
    38     5    11    1
    39    11    12    2
    40    16    17   ar
    41    17    18   ar
    42    25    20   ar
    43    18    13   ar
    44    11     1   am
    45    34    29   ar
    46    10     5    1
    47    41    36   ar
@<TRIPOS>MOLECULE
*****
 42 47 0 0 0
SMALL
GASTEIGER

@<TRIPOS>ATOM
      1 N           1.6005    1.1955   30.4715 N.am    1  UNL1       -0.1907
      2 C           2.5695    0.0609   30.3169 C.2     1  UNL1        0.3219
      3 O           2.7517   -0.7819   29.0896 O.2     1  UNL1       -0.2512
      4 N           3.3243   -0.0828   31.6052 N.am    1  UNL1       -0.2223
      5 C           2.8218    0.9629   32.5560 C.3     1  UNL1        0.1391
      6 C           2.2220    2.0541   33.3923 C.3     1  UNL1        0.0449
      7 C           2.7008    2.2716   34.7971 C.3     1  UNL1        0.0746
      8 N           3.7794    1.3978   35.3656 N.3     1  UNL1       -0.2676
      9 C           4.3791    0.3066   34.5293 C.3     1  UNL1        0.0746
     10 C           3.9004    0.0891   33.1245 C.3     1  UNL1        0.0449
     11 C           1.7564    1.7529   31.8554 C.2     1  UNL1        0.2529
     12 O           0.9828    2.8991   32.4365 O.2     1  UNL1       -0.2724
     13 C          -1.2702    2.6682   27.3346 C.ar    1  UNL1       -0.0002
     14 C          -0.2319    3.5943   27.8951 C.ar    1  UNL1        0.0013
     15 C           0.7250    3.1034   28.9408 C.ar    1  UNL1        0.0154
     16 C           0.6436    1.6864   29.4259 C.ar    1  UNL1        0.0622
     17 C          -0.3947    0.7603   28.8654 C.ar    1  UNL1        0.0154
     18 C          -1.3516    1.2512   27.8198 C.ar    1  UNL1        0.0013
     19 C          -0.4877    2.6092   24.4390 C.3     1  UNL1        0.0310
     20 C          -1.8358    3.1296   24.8412 C.ar    1  UNL1       -0.0218
     21 C          -2.7927    3.6205   23.7955 C.ar    1  UNL1       -0.0031
     22 C          -4.1409    4.1409   24.1977 C.ar    1  UNL1        0.0137
     23 C          -4.5322    4.1703   25.6455 C.ar    1  UNL1        0.0011
     24 C          -3.5753    3.6794   26.6912 C.ar    1  UNL1       -0.0003
     25 C          -2.2271    3.1591   26.2890 C.ar    1  UNL1       -0.0040
     26 C          -5.0978    4.6318   23.1521 C.2     1  UNL1        0.0729
     27 O          -5.7057    3.6656   22.1789 O.co2   1  UNL1       -0.5446
     28 O          -5.4468    6.0888   23.0796 O.co2   1  UNL1       -0.5446
     29 C           4.3938   -1.0946   31.8923 C.ar    1  UNL1        0.1422
     30 C           5.7967   -0.8586   31.4167 C.ar    1  UNL1        0.0554
     31 C           6.8661   -1.8704   31.7039 C.ar    1  UNL1        0.1036
     32 N           6.5328   -3.1182   32.4666 N.ar    1  UNL1       -0.2223
     33 C           5.1299   -3.3543   32.9422 C.ar    1  UNL1        0.2001
     34 N           4.0605   -2.3425   32.6550 N.ar    1  UNL1       -0.2086
     35 C           4.2581    1.6153   36.7704 C.3     1  UNL1        0.1183
     36 C           5.7278    1.6139   37.0706 C.ar    1  UNL1        0.0712
     37 N           6.5108    0.3378   36.9788 N.ar    1  UNL1       -0.2471
     38 C           7.9805    0.3363   37.2790 C.ar    1  UNL1        0.0985
     39 C           8.6671    1.6110   37.6710 C.ar    1  UNL1        0.0203
     40 C           7.8841    2.8871   37.7628 C.ar    1  UNL1       -0.0015
     41 C           6.4145    2.8886   37.4626 C.ar    1  UNL1       -0.0069
     42 C           5.6315    4.1647   37.5545 C.3     1  UNL1        0.0323
@<TRIPOS>UNITY_ATOM_ATTR
27 1
charge -1
@<TRIPOS>BOND
     1    19    20    1
     2    20    21   ar
     3    21    22   ar
     4    22    26    1
     5    26    27   ar
     6    26    28   ar
     7    22    23   ar
     8    23    24   ar
     9    24    25   ar
    10    25    13    1
    11    13    14   ar
    12    14    15   ar
    13    15    16   ar
    14    16     1    1
    15     1     2   am
    16     2     3    2
    17     2     4   am
    18     4    29    1
    19    29    30   ar
    20    30    31   ar
    21    31    32   ar
    22    32    33   ar
    23    33    34   ar
    24     4     5    1
    25     5     6    1
    26     6     7    1
    27     7     8    1
    28     8    35    1
    29    35    36    1
    30    36    37   ar
    31    37    38   ar
    32    38    39   ar
    33    39    40   ar
    34    40    41   ar
    35    41    42    1
    36     8     9    1
    37     9    10    1
    38     5    11    1
    39    11    12    2
    40    16    17   ar
    41    17    18   ar
    42    25    20   ar
    43    18    13   ar
    44    11     1   am
    45    34    29   ar
    46    10     5    1
    47    41    36   ar
@<TRIPOS>MOLECULE
*****
 42 47 0 0 0
SMALL
GASTEIGER

@<TRIPOS>ATOM
      1 N           4.9161   -1.1021   27.9548 N.am    1  UNL1       -0.1907
      2 C           6.0668   -1.9986   27.6048 C.2     1  UNL1        0.3219
      3 O           7.1047   -2.5135   28.5574 O.2     1  UNL1       -0.2512
      4 N           5.9973   -2.2896   26.1350 N.am    1  UNL1       -0.2223
      5 C           4.8036   -1.5731   25.5765 C.3     1  UNL1        0.1391
      6 C           3.5837   -0.8042   25.1637 C.3     1  UNL1        0.0449
      7 C           3.1367   -0.8189   23.7319 C.3     1  UNL1        0.0746
      8 N           3.9097   -1.6026   22.7130 N.3     1  UNL1       -0.2676
      9 C           5.1297   -2.3716   23.1258 C.3     1  UNL1        0.0746
     10 C           5.5766   -2.3568   24.5575 C.3     1  UNL1        0.0449
     11 C           4.1354   -0.8392   26.7012 C.2     1  UNL1        0.2529
     12 O           2.9030    0.0088   26.5916 O.2     1  UNL1       -0.2724
     13 C           3.9719    0.5144   32.0469 C.ar    1  UNL1       -0.0002
     14 C           2.9975   -0.3925   31.3555 C.ar    1  UNL1        0.0013
     15 C           3.3122   -0.9314   29.9915 C.ar    1  UNL1        0.0154
     16 C           4.6014   -0.5633   29.3188 C.ar    1  UNL1        0.0622
     17 C           5.5758    0.3436   30.0102 C.ar    1  UNL1        0.0154
     18 C           5.2611    0.8824   31.3742 C.ar    1  UNL1        0.0013
     19 C           5.2204   -0.7282   34.4754 C.3     1  UNL1        0.0310
     20 C           4.2814    0.4319   34.6251 C.ar    1  UNL1       -0.0218
     21 C           3.9667    0.9708   35.9892 C.ar    1  UNL1       -0.0031
     22 C           3.0278    2.1309   36.1390 C.ar    1  UNL1        0.0137
     23 C           2.4035    2.7522   34.9247 C.ar    1  UNL1        0.0011
     24 C           2.7183    2.2134   33.5607 C.ar    1  UNL1       -0.0003
     25 C           3.6572    1.0532   33.4109 C.ar    1  UNL1       -0.0040
     26 C           2.7130    2.6698   37.5030 C.2     1  UNL1        0.0729
     27 O           3.8011    2.8000   38.5273 O.co2   1  UNL1       -0.5446
     28 O           1.3103    3.0783   37.8428 O.co2   1  UNL1       -0.5446
     29 C           6.9534   -3.1467   25.3597 C.ar    1  UNL1        0.1422
     30 C           6.7354   -4.6285   25.2778 C.ar    1  UNL1        0.0554
     31 C           7.6916   -5.4855   24.5024 C.ar    1  UNL1        0.1036
     32 N           8.8659   -4.8608   23.8090 N.ar    1  UNL1       -0.2223
     33 C           9.0839   -3.3790   23.8909 C.ar    1  UNL1        0.2001
     34 N           8.1277   -2.5220   24.6662 N.ar    1  UNL1       -0.2086
     35 C           3.4627   -1.6174   21.2811 C.3     1  UNL1        0.1183
     36 C           4.4774   -1.6993   20.1795 C.ar    1  UNL1        0.0712
     37 N           5.4545   -0.5797   19.9750 N.ar    1  UNL1       -0.2471
     38 C           6.4692   -0.6617   18.8732 C.ar    1  UNL1        0.0985
     39 C           6.5068   -1.8632   17.9761 C.ar    1  UNL1        0.0203
     40 C           5.5297   -2.9828   18.1806 C.ar    1  UNL1       -0.0015
     41 C           4.5150   -2.9009   19.2822 C.ar    1  UNL1       -0.0069
     42 C           3.5379   -4.0204   19.4867 C.3     1  UNL1        0.0323
@<TRIPOS>UNITY_ATOM_ATTR
27 1
charge -1
@<TRIPOS>BOND
     1    19    20    1
     2    20    21   ar
     3    21    22   ar
     4    22    26    1
     5    26    27   ar
     6    26    28   ar
     7    22    23   ar
     8    23    24   ar
     9    24    25   ar
    10    25    13    1
    11    13    14   ar
    12    14    15   ar
    13    15    16   ar
    14    16     1    1
    15     1     2   am
    16     2     3    2
    17     2     4   am
    18     4    29    1
    19    29    30   ar
    20    30    31   ar
    21    31    32   ar
    22    32    33   ar
    23    33    34   ar
    24     4     5    1
    25     5     6    1
    26     6     7    1
    27     7     8    1
    28     8    35    1
    29    35    36    1
    30    36    37   ar
    31    37    38   ar
    32    38    39   ar
    33    39    40   ar
    34    40    41   ar
    35    41    42    1
    36     8     9    1
    37     9    10    1
    38     5    11    1
    39    11    12    2
    40    16    17   ar
    41    17    18   ar
    42    25    20   ar
    43    18    13   ar
    44    11     1   am
    45    34    29   ar
    46    10     5    1
    47    41    36   ar
@<TRIPOS>MOLECULE
*****
 42 47 0 0 0
SMALL
GASTEIGER

@<TRIPOS>ATOM
      1 N           6.5146   -2.4992   29.7839 N.am    1  UNL1       -0.1907
      2 C           6.9184   -3.9353   29.6268 C.2     1  UNL1        0.3219
      3 O           7.0140   -4.9497   30.7275 O.2     1  UNL1       -0.2512
      4 N           7.2100   -4.1788   28.1757 N.am    1  UNL1       -0.2223
      5 C           6.9863   -2.8931   27.4358 C.3     1  UNL1        0.1391
      6 C           6.7243   -1.5442   26.8345 C.3     1  UNL1        0.0449
      7 C           6.8996   -1.3336   25.3598 C.3     1  UNL1        0.0746
      8 N           7.3369   -2.4720   24.4864 N.3     1  UNL1       -0.2676
      9 C           7.5990   -3.8209   25.0877 C.3     1  UNL1        0.0746
     10 C           7.4237   -4.0315   26.5624 C.3     1  UNL1        0.0449
     11 C           6.5566   -1.8551   28.4298 C.2     1  UNL1        0.2529
     12 O           6.2267   -0.4243   28.1234 O.2     1  UNL1       -0.2724
     13 C           5.3771   -0.4781   33.6401 C.ar    1  UNL1       -0.0002
     14 C           6.3892    0.1548   32.7317 C.ar    1  UNL1        0.0013
     15 C           6.7684   -0.5189   31.4463 C.ar    1  UNL1        0.0154
     16 C           6.1354   -1.8255   31.0693 C.ar    1  UNL1        0.0622
     17 C           5.1234   -2.4583   31.9776 C.ar    1  UNL1        0.0154
     18 C           4.7442   -1.7846   33.2630 C.ar    1  UNL1        0.0013
     19 C           3.1072    1.4829   33.6932 C.3     1  UNL1        0.0310
     20 C           3.8630    1.1761   34.9520 C.ar    1  UNL1       -0.0218
     21 C           3.4838    1.8499   36.2375 C.ar    1  UNL1       -0.0031
     22 C           4.2395    1.5431   37.4964 C.ar    1  UNL1        0.0137
     23 C           5.3745    0.5626   37.4698 C.ar    1  UNL1        0.0011
     24 C           5.7536   -0.1111   36.1844 C.ar    1  UNL1       -0.0003
     25 C           4.9979    0.1957   34.9255 C.ar    1  UNL1       -0.0040
     26 C           3.8603    2.2169   38.7818 C.2     1  UNL1        0.0729
     27 O           2.5571    2.9520   38.8872 O.co2   1  UNL1       -0.5446
     28 O           4.7844    2.1555   39.9618 O.co2   1  UNL1       -0.5446
     29 C           7.6482   -5.4794   27.5705 C.ar    1  UNL1        0.1422
     30 C           9.0976   -5.8650   27.5897 C.ar    1  UNL1        0.0554
     31 C           9.5357   -7.1657   26.9846 C.ar    1  UNL1        0.1036
     32 N           8.5245   -8.0809   26.3602 N.ar    1  UNL1       -0.2223
     33 C           7.0750   -7.6953   26.3410 C.ar    1  UNL1        0.2001
     34 N           6.6369   -6.3946   26.9461 N.ar    1  UNL1       -0.2086
     35 C           7.5122   -2.2614   23.0116 C.3     1  UNL1        0.1183
     36 C           6.3888   -2.5789   22.0698 C.ar    1  UNL1        0.0712
     37 N           5.0853   -1.8454   22.1830 N.ar    1  UNL1       -0.2471
     38 C           3.9617   -2.1630   21.2411 C.ar    1  UNL1        0.0985
     39 C           4.1418   -3.2141   20.1863 C.ar    1  UNL1        0.0203
     40 C           5.4453   -3.9477   20.0732 C.ar    1  UNL1       -0.0015
     41 C           6.5688   -3.6301   21.0149 C.ar    1  UNL1       -0.0069
     42 C           7.8723   -4.3636   20.9018 C.3     1  UNL1        0.0323
@<TRIPOS>UNITY_ATOM_ATTR
27 1
charge -1
@<TRIPOS>BOND
     1    19    20    1
     2    20    21   ar
     3    21    22   ar
     4    22    26    1
     5    26    27   ar
     6    26    28   ar
     7    22    23   ar
     8    23    24   ar
     9    24    25   ar
    10    25    13    1
    11    13    14   ar
    12    14    15   ar
    13    15    16   ar
    14    16     1    1
    15     1     2   am
    16     2     3    2
    17     2     4   am
    18     4    29    1
    19    29    30   ar
    20    30    31   ar
    21    31    32   ar
    22    32    33   ar
    23    33    34   ar
    24     4     5    1
    25     5     6    1
    26     6     7    1
    27     7     8    1
    28     8    35    1
    29    35    36    1
    30    36    37   ar
    31    37    38   ar
    32    38    39   ar
    33    39    40   ar
    34    40    41   ar
    35    41    42    1
    36     8     9    1
    37     9    10    1
    38     5    11    1
    39    11    12    2
    40    16    17   ar
    41    17    18   ar
    42    25    20   ar
    43    18    13   ar
    44    11     1   am
    45    34    29   ar
    46    10     5    1
    47    41    36   ar
