@<TRIPOS>MOLECULE
*****
 16 17 0 0 0
SMALL
GASTEIGER

@<TRIPOS>ATOM
      1 C         -11.2266  -18.4957   22.1136 C.ar    1  UNL1        0.1063
      2 C         -11.4627  -18.9724   20.7111 C.ar    1  UNL1        0.0199
      3 C         -10.2981  -19.2557   19.8092 C.ar    1  UNL1        0.0210
      4 C          -8.8974  -19.0625   20.3099 C.ar    1  UNL1        0.0893
      5 N          -7.5618  -19.2592   19.6562 N.ar    1  UNL1       -0.2245
      6 C          -6.5002  -18.9042   20.6547 C.ar    1  UNL1        0.1567
      7 N          -5.0190  -18.9562   20.4230 N.pl3   1  UNL1       -0.3375
      8 S          -7.1797  -18.4880   21.9255 S.2     1  UNL1       -0.0519
      9 C          -8.6613  -18.5858   21.7123 C.ar    1  UNL1        0.0510
     10 C          -9.8259  -18.3024   22.6142 C.ar    1  UNL1        0.0264
     11 H          -4.6672  -19.2442   19.5498 H       1  UNL1        0.1442
     12 H          -4.3988  -18.7024   21.1441 H       1  UNL1        0.1442
     13 C         -13.5558  -17.9289   23.9174 C.3     1  UNL1        0.1816
     14 S         -12.3912  -18.2123   23.0155 S.O2    1  UNL1        0.0105
     15 O         -13.2050  -17.7844   21.8303 O.2     1  UNL1       -0.1686
     16 O         -11.5775  -18.6402   24.2007 O.2     1  UNL1       -0.1686
@<TRIPOS>BOND
     1    13    14    1
     2    14    15    2
     3    14    16    2
     4    14     1    1
     5     1     2   ar
     6     2     3   ar
     7     3     4   ar
     8     4     5   ar
     9     5     6   ar
    10     6     7    1
    11     6     8   ar
    12     8     9   ar
    13     9    10   ar
    14    10     1   ar
    15     9     4   ar
    16     7    11    1
    17     7    12    1
@<TRIPOS>MOLECULE
*****
 16 17 0 0 0
SMALL
GASTEIGER

@<TRIPOS>ATOM
      1 C          -8.4827  -19.0909   21.4408 C.ar    1  UNL1        0.1063
      2 C          -9.2821  -18.9174   20.1835 C.ar    1  UNL1        0.0199
      3 C         -10.7464  -18.6023   20.2632 C.ar    1  UNL1        0.0210
      4 C         -11.4114  -18.4606   21.6003 C.ar    1  UNL1        0.0893
      5 N         -12.8276  -18.1561   21.9897 N.ar    1  UNL1       -0.2245
      6 C         -12.9035  -18.1414   23.4878 C.ar    1  UNL1        0.1567
      7 N         -14.1329  -17.8776   24.3058 N.pl3   1  UNL1       -0.3375
      8 S         -11.5342  -18.4368   24.0242 S.2     1  UNL1       -0.0519
      9 C         -10.6120  -18.6340   22.8576 C.ar    1  UNL1        0.0510
     10 C          -9.1477  -18.9492   22.7778 C.ar    1  UNL1        0.0264
     11 H         -14.9907  -17.6924   23.8595 H       1  UNL1        0.1442
     12 H         -14.0819  -17.8897   25.2889 H       1  UNL1        0.1442
     13 C          -5.5540  -19.7213   21.2813 C.3     1  UNL1        0.1816
     14 S          -7.0184  -19.4061   21.3610 S.O2    1  UNL1        0.0105
     15 O          -7.1827  -20.4410   22.4343 O.2     1  UNL1       -0.1686
     16 O          -6.8541  -18.3712   20.2878 O.2     1  UNL1       -0.1686
@<TRIPOS>BOND
     1    13    14    1
     2    14    15    2
     3    14    16    2
     4    14     1    1
     5     1     2   ar
     6     2     3   ar
     7     3     4   ar
     8     4     5   ar
     9     5     6   ar
    10     6     7    1
    11     6     8   ar
    12     8     9   ar
    13     9    10   ar
    14    10     1   ar
    15     9     4   ar
    16     7    11    1
    17     7    12    1
@<TRIPOS>MOLECULE
*****
 16 17 0 0 0
SMALL
GASTEIGER

@<TRIPOS>ATOM
      1 C          -5.4804  -19.3407   21.3498 C.ar    1  UNL1        0.1063
      2 C          -5.1225  -20.3289   20.2796 C.ar    1  UNL1        0.0199
      3 C          -3.7802  -20.2598   19.6136 C.ar    1  UNL1        0.0210
      4 C          -2.7959  -19.2026   20.0178 C.ar    1  UNL1        0.0893
      5 N          -1.4078  -18.8896   19.5434 N.ar    1  UNL1       -0.2245
      6 C          -0.9078  -17.7079   20.3204 C.ar    1  UNL1        0.1567
      7 N           0.4355  -17.0576   20.1692 N.pl3   1  UNL1       -0.3375
      8 S          -1.9870  -17.2906   21.2750 S.2     1  UNL1       -0.0519
      9 C          -3.1539  -18.2145   21.0880 C.ar    1  UNL1        0.0510
     10 C          -4.4961  -18.2835   21.7540 C.ar    1  UNL1        0.0264
     11 H           1.0797  -17.4059   19.5113 H       1  UNL1        0.1442
     12 H           0.6728  -16.2825   20.7279 H       1  UNL1        0.1442
     13 C          -8.1650  -19.4788   22.6818 C.3     1  UNL1        0.1816
     14 S          -6.8227  -19.4097   22.0158 S.O2    1  UNL1        0.0105
     15 O          -6.6159  -20.8715   22.2810 O.2     1  UNL1       -0.1686
     16 O          -7.0295  -17.9479   21.7505 O.2     1  UNL1       -0.1686
@<TRIPOS>BOND
     1    13    14    1
     2    14    15    2
     3    14    16    2
     4    14     1    1
     5     1     2   ar
     6     2     3   ar
     7     3     4   ar
     8     4     5   ar
     9     5     6   ar
    10     6     7    1
    11     6     8   ar
    12     8     9   ar
    13     9    10   ar
    14    10     1   ar
    15     9     4   ar
    16     7    11    1
    17     7    12    1
@<TRIPOS>MOLECULE
*****
 16 17 0 0 0
SMALL
GASTEIGER

@<TRIPOS>ATOM
      1 C          -6.6482  -19.0250   21.2846 C.ar    1  UNL1        0.1063
      2 C          -6.9642  -19.7354   20.0019 C.ar    1  UNL1        0.0199
      3 C          -8.3563  -19.6940   19.4448 C.ar    1  UNL1        0.0210
      4 C          -9.4324  -18.9422   20.1704 C.ar    1  UNL1        0.0893
      5 N         -10.8854  -18.7262   19.8666 N.ar    1  UNL1       -0.2245
      6 C         -11.4674  -17.8822   20.9616 C.ar    1  UNL1        0.1567
      7 N         -12.8925  -17.4242   21.0589 N.pl3   1  UNL1       -0.3375
      8 S         -10.3742  -17.5766   21.9421 S.2     1  UNL1       -0.0519
      9 C          -9.1165  -18.2318   21.4531 C.ar    1  UNL1        0.0510
     10 C          -7.7244  -18.2731   22.0102 C.ar    1  UNL1        0.0264
     11 H         -13.5397  -17.6778   20.3617 H       1  UNL1        0.1442
     12 H         -13.1806  -16.8701   21.8199 H       1  UNL1        0.1442
     13 C          -3.8640  -19.1077   22.3987 C.3     1  UNL1        0.1816
     14 S          -5.2561  -19.0663   21.8417 S.O2    1  UNL1        0.0105
     15 O          -5.5447  -17.8388   22.6539 O.2     1  UNL1       -0.1686
     16 O          -4.9676  -20.2939   21.0294 O.2     1  UNL1       -0.1686
@<TRIPOS>BOND
     1    13    14    1
     2    14    15    2
     3    14    16    2
     4    14     1    1
     5     1     2   ar
     6     2     3   ar
     7     3     4   ar
     8     4     5   ar
     9     5     6   ar
    10     6     7    1
    11     6     8   ar
    12     8     9   ar
    13     9    10   ar
    14    10     1   ar
    15     9     4   ar
    16     7    11    1
    17     7    12    1
@<TRIPOS>MOLECULE
*****
 16 17 0 0 0
SMALL
GASTEIGER

@<TRIPOS>ATOM
      1 C          -8.5717  -18.2552   21.6624 C.ar    1  UNL1        0.1063
      2 C          -8.6933  -19.0873   20.4204 C.ar    1  UNL1        0.0199
      3 C          -7.4904  -19.7956   19.8713 C.ar    1  UNL1        0.0210
      4 C          -6.1659  -19.6717   20.5644 C.ar    1  UNL1        0.0893
      5 N          -4.8157  -20.2497   20.2597 N.ar    1  UNL1       -0.2245
      6 C          -3.8596  -19.7748   21.3134 C.ar    1  UNL1        0.1567
      7 N          -2.4003  -20.1122   21.3965 N.pl3   1  UNL1       -0.3375
      8 S          -4.6189  -18.9033   22.2694 S.2     1  UNL1       -0.0519
      9 C          -6.0443  -18.8396   21.8064 C.ar    1  UNL1        0.0510
     10 C          -7.2472  -18.1313   22.3554 C.ar    1  UNL1        0.0264
     11 H          -1.9906  -20.6959   20.7178 H       1  UNL1        0.1442
     12 H          -1.8523  -19.7499   22.1298 H       1  UNL1        0.1442
     13 C         -10.9774  -16.8387   22.7605 C.3     1  UNL1        0.1816
     14 S          -9.7746  -17.5470   22.2114 S.O2    1  UNL1        0.0105
     15 O         -10.0520  -16.9675   20.8560 O.2     1  UNL1       -0.1686
     16 O          -9.4971  -18.1264   23.5669 O.2     1  UNL1       -0.1686
@<TRIPOS>BOND
     1    13    14    1
     2    14    15    2
     3    14    16    2
     4    14     1    1
     5     1     2   ar
     6     2     3   ar
     7     3     4   ar
     8     4     5   ar
     9     5     6   ar
    10     6     7    1
    11     6     8   ar
    12     8     9   ar
    13     9    10   ar
    14    10     1   ar
    15     9     4   ar
    16     7    11    1
    17     7    12    1
@<TRIPOS>MOLECULE
*****
 16 17 0 0 0
SMALL
GASTEIGER

@<TRIPOS>ATOM
      1 C          -9.9468  -18.5600   22.4959 C.ar    1  UNL1        0.1063
      2 C         -10.2922  -19.5171   23.5979 C.ar    1  UNL1        0.0199
      3 C          -9.9979  -19.1568   25.0239 C.ar    1  UNL1        0.0210
      4 C          -9.3582  -17.8394   25.3479 C.ar    1  UNL1        0.0893
      5 N          -8.9521  -17.2138   26.6494 N.ar    1  UNL1       -0.2245
      6 C          -8.3557  -15.8701   26.3517 C.ar    1  UNL1        0.1567
      7 N          -7.8164  -14.9014   27.3621 N.pl3   1  UNL1       -0.3375
      8 S          -8.3932  -15.6651   24.8663 S.2     1  UNL1       -0.0519
      9 C          -9.0128  -16.8822   24.2459 C.ar    1  UNL1        0.0510
     10 C          -9.3071  -17.2425   22.8199 C.ar    1  UNL1        0.0264
     11 H          -7.8358  -15.1276   28.3201 H       1  UNL1        0.1442
     12 H          -7.4431  -14.0394   27.0673 H       1  UNL1        0.1442
     13 C         -10.5353  -19.2806   19.6438 C.3     1  UNL1        0.1816
     14 S         -10.2411  -18.9203   21.0698 S.O2    1  UNL1        0.0105
     15 O         -10.9942  -20.1326   21.5316 O.2     1  UNL1       -0.1686
     16 O          -9.4880  -17.7080   20.6081 O.2     1  UNL1       -0.1686
@<TRIPOS>BOND
     1    13    14    1
     2    14    15    2
     3    14    16    2
     4    14     1    1
     5     1     2   ar
     6     2     3   ar
     7     3     4   ar
     8     4     5   ar
     9     5     6   ar
    10     6     7    1
    11     6     8   ar
    12     8     9   ar
    13     9    10   ar
    14    10     1   ar
    15     9     4   ar
    16     7    11    1
    17     7    12    1
@<TRIPOS>MOLECULE
*****
 16 17 0 0 0
SMALL
GASTEIGER

@<TRIPOS>ATOM
      1 C          -8.7513  -16.6052   25.3417 C.ar    1  UNL1        0.1063
      2 C          -9.4736  -17.8687   25.7047 C.ar    1  UNL1        0.0199
      3 C         -10.3942  -18.5174   24.7139 C.ar    1  UNL1        0.0210
      4 C         -10.5926  -17.9026   23.3602 C.ar    1  UNL1        0.0893
      5 N         -11.4302  -18.3116   22.1850 N.ar    1  UNL1       -0.2245
      6 C         -11.2255  -17.3009   21.0957 C.ar    1  UNL1        0.1567
      7 N         -11.8716  -17.3205   19.7420 N.pl3   1  UNL1       -0.3375
      8 S         -10.2615  -16.2672   21.5977 S.2     1  UNL1       -0.0519
      9 C          -9.8703  -16.6391   22.9972 C.ar    1  UNL1        0.0510
     10 C          -8.9497  -15.9903   23.9880 C.ar    1  UNL1        0.0264
     11 H         -12.4942  -18.0451   19.5042 H       1  UNL1        0.1442
     12 H         -11.6731  -16.6087   19.0915 H       1  UNL1        0.1442
     13 C          -6.9101  -15.3077   27.3233 C.3     1  UNL1        0.1816
     14 S          -7.8307  -15.9564   26.3325 S.O2    1  UNL1        0.0105
     15 O          -8.5206  -16.6826   27.4491 O.2     1  UNL1       -0.1686
     16 O          -7.1408  -15.2302   25.2160 O.2     1  UNL1       -0.1686
@<TRIPOS>BOND
     1    13    14    1
     2    14    15    2
     3    14    16    2
     4    14     1    1
     5     1     2   ar
     6     2     3   ar
     7     3     4   ar
     8     4     5   ar
     9     5     6   ar
    10     6     7    1
    11     6     8   ar
    12     8     9   ar
    13     9    10   ar
    14    10     1   ar
    15     9     4   ar
    16     7    11    1
    17     7    12    1
@<TRIPOS>MOLECULE
*****
 16 17 0 0 0
SMALL
GASTEIGER

@<TRIPOS>ATOM
      1 C          -7.7085  -17.0290   22.9933 C.ar    1  UNL1        0.1063
      2 C          -6.7907  -16.1393   23.7781 C.ar    1  UNL1        0.0199
      3 C          -5.3169  -16.4171   23.8029 C.ar    1  UNL1        0.0210
      4 C          -4.7608  -17.5845   23.0428 C.ar    1  UNL1        0.0893
      5 N          -3.3626  -18.1032   22.8815 N.ar    1  UNL1       -0.2245
      6 C          -3.4163  -19.3135   21.9970 C.ar    1  UNL1        0.1567
      7 N          -2.2443  -20.1479   21.5724 N.pl3   1  UNL1       -0.3375
      8 S          -4.8477  -19.5428   21.6115 S.2     1  UNL1       -0.0519
      9 C          -5.6786  -18.4742   22.2579 C.ar    1  UNL1        0.0510
     10 C          -7.1525  -18.1964   22.2332 C.ar    1  UNL1        0.0264
     11 H          -1.3380  -19.9160   21.8792 H       1  UNL1        0.1442
     12 H          -2.3813  -20.9275   20.9869 H       1  UNL1        0.1442
     13 C         -10.6562  -16.4734   22.9437 C.3     1  UNL1        0.1816
     14 S          -9.1824  -16.7512   22.9685 S.O2    1  UNL1        0.0105
     15 O          -9.3361  -17.4494   24.2872 O.2     1  UNL1       -0.1686
     16 O          -9.0286  -16.0530   21.6498 O.2     1  UNL1       -0.1686
@<TRIPOS>BOND
     1    13    14    1
     2    14    15    2
     3    14    16    2
     4    14     1    1
     5     1     2   ar
     6     2     3   ar
     7     3     4   ar
     8     4     5   ar
     9     5     6   ar
    10     6     7    1
    11     6     8   ar
    12     8     9   ar
    13     9    10   ar
    14    10     1   ar
    15     9     4   ar
    16     7    11    1
    17     7    12    1
@<TRIPOS>MOLECULE
*****
 16 17 0 0 0
SMALL
GASTEIGER

@<TRIPOS>ATOM
      1 C          -5.5919  -19.2337   21.2816 C.ar    1  UNL1        0.1063
      2 C          -6.3576  -19.7943   20.1200 C.ar    1  UNL1        0.0199
      3 C          -7.8349  -19.5580   20.0112 C.ar    1  UNL1        0.0210
      4 C          -8.5465  -18.7610   21.0639 C.ar    1  UNL1        0.0893
      5 N          -9.9849  -18.3668   21.2233 N.ar    1  UNL1       -0.2245
      6 C         -10.1083  -17.5626   22.4835 C.ar    1  UNL1        0.1567
      7 N         -11.3721  -16.9659   23.0285 N.pl3   1  UNL1       -0.3375
      8 S          -8.7461  -17.4597   23.1029 S.2     1  UNL1       -0.0519
      9 C          -7.7808  -18.2004   22.2256 C.ar    1  UNL1        0.0510
     10 C          -6.3035  -18.4367   22.3344 C.ar    1  UNL1        0.0264
     11 H         -12.2220  -17.0888   22.5471 H       1  UNL1        0.1442
     12 H         -11.3516  -16.4515   23.8676 H       1  UNL1        0.1442
     13 C          -2.6374  -19.7064   21.4993 C.3     1  UNL1        0.1816
     14 S          -4.1147  -19.4701   21.3904 S.O2    1  UNL1        0.0105
     15 O          -4.0000  -19.4419   19.8951 O.2     1  UNL1       -0.1686
     16 O          -4.2293  -19.4982   22.8858 O.2     1  UNL1       -0.1686
@<TRIPOS>BOND
     1    13    14    1
     2    14    15    2
     3    14    16    2
     4    14     1    1
     5     1     2   ar
     6     2     3   ar
     7     3     4   ar
     8     4     5   ar
     9     5     6   ar
    10     6     7    1
    11     6     8   ar
    12     8     9   ar
    13     9    10   ar
    14    10     1   ar
    15     9     4   ar
    16     7    11    1
    17     7    12    1
