@<TRIPOS>MOLECULE
*****
 29 32 0 0 0
SMALL
GASTEIGER

@<TRIPOS>ATOM
      1 C          -8.0282  -18.6196   21.4052 C.ar    1  UNL1        0.1293
      2 C          -7.6360  -19.4306   20.2059 C.ar    1  UNL1        0.1175
      3 N          -6.1938  -19.7664   19.9665 N.ar    1  UNL1       -0.2424
      4 C          -5.1438  -19.2910   20.9266 C.ar    1  UNL1        0.0836
      5 C          -3.7016  -19.6267   20.6872 C.ar    1  UNL1        0.0487
      6 C          -2.6516  -19.1514   21.6472 C.ar    1  UNL1        0.1416
      7 F          -1.2093  -19.4871   21.4079 F       1  UNL1       -0.2041
      8 C          -3.0439  -18.3404   22.8465 C.ar    1  UNL1        0.0297
      9 C          -4.4861  -18.0047   23.0859 C.ar    1  UNL1        0.0038
     10 C          -5.5360  -18.4800   22.1259 C.ar    1  UNL1        0.0191
     11 C          -6.9783  -18.1443   22.3652 C.ar    1  UNL1        0.0205
     12 C          -7.3705  -17.3332   23.5645 C.ar    1  UNL1        0.0014
     13 C          -8.3399  -17.8922   24.5635 C.ar    1  UNL1        0.0009
     14 C          -8.7321  -17.0812   25.7628 C.ar    1  UNL1        0.0114
     15 C          -8.1550  -15.7111   25.9631 C.ar    1  UNL1        0.0577
     16 CL         -8.5473  -14.9001   27.1624 Cl      1  UNL1       -0.0822
     17 C          -7.1858  -15.1522   24.9641 C.ar    1  UNL1        0.0114
     18 C          -6.7935  -15.9632   23.7648 C.ar    1  UNL1        0.0009
     19 S          -9.4705  -18.2839   21.6445 S.O2    1  UNL1        0.0289
     20 O          -9.7029  -19.6650   22.1815 O.2     1  UNL1       -0.1642
     21 O          -9.2382  -16.9028   21.1074 O.2     1  UNL1       -0.1642
     22 C         -13.0074  -17.9891   23.4202 C.ar    1  UNL1        0.0697
     23 C         -13.7972  -17.2769   22.3624 C.ar    1  UNL1        0.0104
     24 C         -13.1448  -16.9005   21.0652 C.ar    1  UNL1        0.0020
     25 C         -11.7026  -17.2361   20.8259 C.ar    1  UNL1        0.0188
     26 C         -10.9127  -17.9482   21.8838 C.ar    1  UNL1        0.1110
     27 C         -11.5651  -18.3247   23.1809 C.ar    1  UNL1        0.0290
     28 N         -14.3122  -18.7420   26.0145 N.1     1  UNL1       -0.1908
     29 C         -13.6598  -18.3655   24.7174 C.1     1  UNL1        0.1005
@<TRIPOS>BOND
     1    28    29    3
     2    29    22    1
     3    22    23   ar
     4    23    24   ar
     5    24    25   ar
     6    25    26   ar
     7    26    19    1
     8    19    20    2
     9    19    21    2
    10    19     1    1
    11     1     2   ar
    12     2     3   ar
    13     3     4   ar
    14     4     5   ar
    15     5     6   ar
    16     6     7    1
    17     6     8   ar
    18     8     9   ar
    19     9    10   ar
    20    10    11   ar
    21    11    12    1
    22    12    13   ar
    23    13    14   ar
    24    14    15   ar
    25    15    16    1
    26    15    17   ar
    27    17    18   ar
    28    26    27   ar
    29    27    22   ar
    30    11     1   ar
    31    18    12   ar
    32    10     4   ar
@<TRIPOS>MOLECULE
*****
 29 32 0 0 0
SMALL
GASTEIGER

@<TRIPOS>ATOM
      1 C          -5.7276  -18.8739   21.3945 C.ar    1  UNL1        0.1293
      2 C          -5.3875  -19.6567   20.1609 C.ar    1  UNL1        0.1175
      3 N          -4.0236  -19.5359   19.5483 N.ar    1  UNL1       -0.2424
      4 C          -2.9999  -18.6323   20.1692 C.ar    1  UNL1        0.0836
      5 C          -1.6360  -18.5115   19.5566 C.ar    1  UNL1        0.0487
      6 C          -0.6123  -17.6080   20.1776 C.ar    1  UNL1        0.1416
      7 F           0.7516  -17.4871   19.5650 F       1  UNL1       -0.2041
      8 C          -0.9525  -16.8252   21.4111 C.ar    1  UNL1        0.0297
      9 C          -2.3163  -16.9460   22.0237 C.ar    1  UNL1        0.0038
     10 C          -3.3400  -17.8496   21.4028 C.ar    1  UNL1        0.0191
     11 C          -4.7039  -17.9704   22.0154 C.ar    1  UNL1        0.0205
     12 C          -5.0440  -17.1877   23.2489 C.ar    1  UNL1        0.0014
     13 C          -4.3447  -17.4848   24.5423 C.ar    1  UNL1        0.0009
     14 C          -4.6849  -16.7021   25.7759 C.ar    1  UNL1        0.0114
     15 C          -5.7243  -15.6222   25.7160 C.ar    1  UNL1        0.0577
     16 CL         -6.0644  -14.8394   26.9496 Cl      1  UNL1       -0.0822
     17 C          -6.4235  -15.3251   24.4227 C.ar    1  UNL1        0.0114
     18 C          -6.0834  -16.1078   23.1892 C.ar    1  UNL1        0.0009
     19 S          -7.0915  -18.9948   22.0071 S.O2    1  UNL1        0.0289
     20 O          -7.5330  -17.7676   21.2661 O.2     1  UNL1       -0.1642
     21 O          -6.6500  -20.2220   22.7480 O.2     1  UNL1       -0.1642
     22 C         -10.8333  -18.1506   23.0250 C.ar    1  UNL1        0.0697
     23 C         -11.1832  -19.3571   23.8447 C.ar    1  UNL1        0.0104
     24 C         -10.1691  -20.4429   24.0519 C.ar    1  UNL1        0.0020
     25 C          -8.8052  -20.3221   23.4393 C.ar    1  UNL1        0.0188
     26 C          -8.4554  -19.1156   22.6196 C.ar    1  UNL1        0.1110
     27 C          -9.4694  -18.0299   22.4125 C.ar    1  UNL1        0.0290
     28 N         -12.8613  -15.9792   22.6107 N.1     1  UNL1       -0.1908
     29 C         -11.8473  -17.0649   22.8179 C.1     1  UNL1        0.1005
@<TRIPOS>BOND
     1    28    29    3
     2    29    22    1
     3    22    23   ar
     4    23    24   ar
     5    24    25   ar
     6    25    26   ar
     7    26    19    1
     8    19    20    2
     9    19    21    2
    10    19     1    1
    11     1     2   ar
    12     2     3   ar
    13     3     4   ar
    14     4     5   ar
    15     5     6   ar
    16     6     7    1
    17     6     8   ar
    18     8     9   ar
    19     9    10   ar
    20    10    11   ar
    21    11    12    1
    22    12    13   ar
    23    13    14   ar
    24    14    15   ar
    25    15    16    1
    26    15    17   ar
    27    17    18   ar
    28    26    27   ar
    29    27    22   ar
    30    11     1   ar
    31    18    12   ar
    32    10     4   ar
@<TRIPOS>MOLECULE
*****
 29 32 0 0 0
SMALL
GASTEIGER

@<TRIPOS>ATOM
      1 C          -7.1972  -17.7955   22.4527 C.ar    1  UNL1        0.1293
      2 C          -6.5186  -16.9276   23.4706 C.ar    1  UNL1        0.1175
      3 N          -5.0219  -16.9168   23.5687 N.ar    1  UNL1       -0.2424
      4 C          -4.2037  -17.7739   22.6488 C.ar    1  UNL1        0.0836
      5 C          -2.7070  -17.7631   22.7470 C.ar    1  UNL1        0.0487
      6 C          -1.8889  -18.6202   21.8271 C.ar    1  UNL1        0.1416
      7 F          -0.3921  -18.6094   21.9252 F       1  UNL1       -0.2041
      8 C          -2.5676  -19.4881   20.8092 C.ar    1  UNL1        0.0297
      9 C          -4.0643  -19.4989   20.7111 C.ar    1  UNL1        0.0038
     10 C          -4.8824  -18.6418   21.6309 C.ar    1  UNL1        0.0191
     11 C          -6.3792  -18.6526   21.5328 C.ar    1  UNL1        0.0205
     12 C          -7.0578  -19.5205   20.5149 C.ar    1  UNL1        0.0014
     13 C          -8.1637  -18.9609   19.6699 C.ar    1  UNL1        0.0009
     14 C          -8.8423  -19.8288   18.6519 C.ar    1  UNL1        0.0114
     15 C          -8.4151  -21.2564   18.4791 C.ar    1  UNL1        0.0577
     16 CL         -9.0938  -22.1243   17.4611 Cl      1  UNL1       -0.0822
     17 C          -7.3093  -21.8159   19.3241 C.ar    1  UNL1        0.0114
     18 C          -6.6307  -20.9480   20.3420 C.ar    1  UNL1        0.0009
     19 S          -8.6940  -17.8063   22.3546 S.O2    1  UNL1        0.0289
     20 O          -8.7354  -19.0909   23.1279 O.2     1  UNL1       -0.1642
     21 O          -8.6527  -16.5218   21.5812 O.2     1  UNL1       -0.1642
     22 C         -12.5168  -18.1150   23.3751 C.ar    1  UNL1        0.0697
     23 C         -13.1843  -17.8388   22.0605 C.ar    1  UNL1        0.0104
     24 C         -12.3550  -17.5517   20.8439 C.ar    1  UNL1        0.0020
     25 C         -10.8583  -17.5409   20.9419 C.ar    1  UNL1        0.0188
     26 C         -10.1908  -17.8171   22.2565 C.ar    1  UNL1        0.1110
     27 C         -11.0200  -18.1042   23.4731 C.ar    1  UNL1        0.0290
     28 N         -14.1752  -18.6891   25.8081 N.1     1  UNL1       -0.1908
     29 C         -13.3460  -18.4021   24.5916 C.1     1  UNL1        0.1005
@<TRIPOS>BOND
     1    28    29    3
     2    29    22    1
     3    22    23   ar
     4    23    24   ar
     5    24    25   ar
     6    25    26   ar
     7    26    19    1
     8    19    20    2
     9    19    21    2
    10    19     1    1
    11     1     2   ar
    12     2     3   ar
    13     3     4   ar
    14     4     5   ar
    15     5     6   ar
    16     6     7    1
    17     6     8   ar
    18     8     9   ar
    19     9    10   ar
    20    10    11   ar
    21    11    12    1
    22    12    13   ar
    23    13    14   ar
    24    14    15   ar
    25    15    16    1
    26    15    17   ar
    27    17    18   ar
    28    26    27   ar
    29    27    22   ar
    30    11     1   ar
    31    18    12   ar
    32    10     4   ar
@<TRIPOS>MOLECULE
*****
 29 32 0 0 0
SMALL
GASTEIGER

@<TRIPOS>ATOM
      1 C          -6.1548  -18.1749   22.3617 C.ar    1  UNL1        0.1293
      2 C          -5.2632  -17.3874   23.2755 C.ar    1  UNL1        0.1175
      3 N          -3.7948  -17.2860   22.9865 N.ar    1  UNL1       -0.2424
      4 C          -3.2180  -17.9721   21.7837 C.ar    1  UNL1        0.0836
      5 C          -1.7496  -17.8707   21.4947 C.ar    1  UNL1        0.0487
      6 C          -1.1729  -18.5567   20.2919 C.ar    1  UNL1        0.1416
      7 F           0.2956  -18.4554   20.0029 F       1  UNL1       -0.2041
      8 C          -2.0645  -19.3442   19.3782 C.ar    1  UNL1        0.0297
      9 C          -3.5328  -19.4456   19.6672 C.ar    1  UNL1        0.0038
     10 C          -4.1096  -18.7595   20.8699 C.ar    1  UNL1        0.0191
     11 C          -5.5781  -18.8609   21.1590 C.ar    1  UNL1        0.0205
     12 C          -6.4697  -19.6484   20.2452 C.ar    1  UNL1        0.0014
     13 C          -6.2124  -21.1092   20.0220 C.ar    1  UNL1        0.0009
     14 C          -7.1041  -21.8967   19.1082 C.ar    1  UNL1        0.0114
     15 C          -8.2529  -21.2232   18.4177 C.ar    1  UNL1        0.0577
     16 CL         -9.1445  -22.0107   17.5039 Cl      1  UNL1       -0.0822
     17 C          -8.5101  -19.7624   18.6409 C.ar    1  UNL1        0.0114
     18 C          -7.6184  -18.9750   19.5547 C.ar    1  UNL1        0.0009
     19 S          -7.6233  -18.2762   22.6507 S.O2    1  UNL1        0.0289
     20 O          -7.4589  -19.7315   22.9748 O.2     1  UNL1       -0.1642
     21 O          -7.7876  -16.8209   22.3266 O.2     1  UNL1       -0.1642
     22 C         -11.5463  -17.7484   22.3666 C.ar    1  UNL1        0.0697
     23 C         -12.0284  -18.5805   23.5178 C.ar    1  UNL1        0.0104
     24 C         -11.0421  -19.3111   24.3800 C.ar    1  UNL1        0.0020
     25 C          -9.5737  -19.2097   24.0910 C.ar    1  UNL1        0.0188
     26 C          -9.0916  -18.3776   22.9398 C.ar    1  UNL1        0.1110
     27 C         -10.0779  -17.6470   22.0776 C.ar    1  UNL1        0.0290
     28 N         -13.5189  -16.2871   20.6423 N.1     1  UNL1       -0.1908
     29 C         -12.5326  -17.0177   21.5045 C.1     1  UNL1        0.1005
@<TRIPOS>BOND
     1    28    29    3
     2    29    22    1
     3    22    23   ar
     4    23    24   ar
     5    24    25   ar
     6    25    26   ar
     7    26    19    1
     8    19    20    2
     9    19    21    2
    10    19     1    1
    11     1     2   ar
    12     2     3   ar
    13     3     4   ar
    14     4     5   ar
    15     5     6   ar
    16     6     7    1
    17     6     8   ar
    18     8     9   ar
    19     9    10   ar
    20    10    11   ar
    21    11    12    1
    22    12    13   ar
    23    13    14   ar
    24    14    15   ar
    25    15    16    1
    26    15    17   ar
    27    17    18   ar
    28    26    27   ar
    29    27    22   ar
    30    11     1   ar
    31    18    12   ar
    32    10     4   ar
@<TRIPOS>MOLECULE
*****
 29 32 0 0 0
SMALL
GASTEIGER

@<TRIPOS>ATOM
      1 C           7.9111   -4.4642   22.0526 C.ar    1  UNL1        0.1293
      2 C           8.6811   -5.6980   21.6855 C.ar    1  UNL1        0.1175
      3 N           8.8345   -6.8100   22.6804 N.ar    1  UNL1       -0.2424
      4 C           8.2179   -6.6883   24.0424 C.ar    1  UNL1        0.0836
      5 C           8.3712   -7.8004   25.0372 C.ar    1  UNL1        0.0487
      6 C           7.7546   -7.6787   26.3991 C.ar    1  UNL1        0.1416
      7 F           7.9080   -8.7908   27.3940 F       1  UNL1       -0.2041
      8 C           6.9846   -6.4449   26.7662 C.ar    1  UNL1        0.0297
      9 C           6.8312   -5.3328   25.7714 C.ar    1  UNL1        0.0038
     10 C           7.4478   -5.4545   24.4095 C.ar    1  UNL1        0.0191
     11 C           7.2944   -4.3424   23.4146 C.ar    1  UNL1        0.0205
     12 C           6.5244   -3.1086   23.7817 C.ar    1  UNL1        0.0014
     13 C           7.2272   -1.9490   24.4230 C.ar    1  UNL1        0.0009
     14 C           6.4572   -0.7152   24.7901 C.ar    1  UNL1        0.0114
     15 C           4.9843   -0.6410   24.5159 C.ar    1  UNL1        0.0577
     16 CL          4.2143    0.5928   24.8829 Cl      1  UNL1       -0.0822
     17 C           4.2815   -1.8006   23.8745 C.ar    1  UNL1        0.0114
     18 C           5.0516   -3.0344   23.5074 C.ar    1  UNL1        0.0009
     19 S           7.7577   -3.3521   21.0577 S.O2    1  UNL1        0.0289
     20 O           6.5140   -3.9999   20.5254 O.2     1  UNL1       -0.1642
     21 O           9.0014   -2.7042   21.5901 O.2     1  UNL1       -0.1642
     22 C           6.2417   -1.0760   18.1818 C.ar    1  UNL1        0.0697
     23 C           7.2974   -0.0159   18.0730 C.ar    1  UNL1        0.0104
     24 C           8.5066   -0.0680   18.9592 C.ar    1  UNL1        0.0020
     25 C           8.6600   -1.1800   19.9541 C.ar    1  UNL1        0.0188
     26 C           7.6043   -2.2400   20.0629 C.ar    1  UNL1        0.1110
     27 C           6.3952   -2.1880   19.1767 C.ar    1  UNL1        0.0290
     28 N           3.8234   -0.9719   16.4096 N.1     1  UNL1       -0.1908
     29 C           5.0326   -1.0239   17.2957 C.1     1  UNL1        0.1005
@<TRIPOS>BOND
     1    28    29    3
     2    29    22    1
     3    22    23   ar
     4    23    24   ar
     5    24    25   ar
     6    25    26   ar
     7    26    19    1
     8    19    20    2
     9    19    21    2
    10    19     1    1
    11     1     2   ar
    12     2     3   ar
    13     3     4   ar
    14     4     5   ar
    15     5     6   ar
    16     6     7    1
    17     6     8   ar
    18     8     9   ar
    19     9    10   ar
    20    10    11   ar
    21    11    12    1
    22    12    13   ar
    23    13    14   ar
    24    14    15   ar
    25    15    16    1
    26    15    17   ar
    27    17    18   ar
    28    26    27   ar
    29    27    22   ar
    30    11     1   ar
    31    18    12   ar
    32    10     4   ar
@<TRIPOS>MOLECULE
*****
 29 32 0 0 0
SMALL
GASTEIGER

@<TRIPOS>ATOM
      1 C           3.4636    0.6105   32.2781 C.ar    1  UNL1        0.1293
      2 C           2.4593    1.6501   32.6789 C.ar    1  UNL1        0.1175
      3 N           2.3610    2.0852   34.1110 N.ar    1  UNL1       -0.2424
      4 C           3.2671    1.4807   35.1424 C.ar    1  UNL1        0.0836
      5 C           3.1688    1.9158   36.5745 C.ar    1  UNL1        0.0487
      6 C           4.0748    1.3113   37.6058 C.ar    1  UNL1        0.1416
      7 F           3.9766    1.7464   39.0380 F       1  UNL1       -0.2041
      8 C           5.0791    0.2717   37.2050 C.ar    1  UNL1        0.0297
      9 C           5.1774   -0.1634   35.7729 C.ar    1  UNL1        0.0038
     10 C           4.2713    0.4411   34.7416 C.ar    1  UNL1        0.0191
     11 C           4.3696    0.0060   33.3094 C.ar    1  UNL1        0.0205
     12 C           5.3738   -1.0337   32.9086 C.ar    1  UNL1        0.0014
     13 C           6.7679   -0.6250   32.5348 C.ar    1  UNL1        0.0009
     14 C           7.7722   -1.6646   32.1340 C.ar    1  UNL1        0.0114
     15 C           7.3824   -3.1129   32.1071 C.ar    1  UNL1        0.0577
     16 CL          8.3867   -4.1525   31.7063 Cl      1  UNL1       -0.0822
     17 C           5.9884   -3.5215   32.4810 C.ar    1  UNL1        0.0114
     18 C           4.9841   -2.4819   32.8817 C.ar    1  UNL1        0.0009
     19 S           3.5618    0.1753   30.8459 S.O2    1  UNL1        0.0289
     20 O           2.5019   -0.8582   31.0873 O.2     1  UNL1       -0.1642
     21 O           4.6217    1.2089   30.6045 O.2     1  UNL1       -0.1642
     22 C           4.8252   -1.6626   27.5633 C.ar    1  UNL1        0.0697
     23 C           3.8564   -1.1301   26.5495 C.ar    1  UNL1        0.0104
     24 C           2.7894   -0.1623   26.9679 C.ar    1  UNL1        0.0020
     25 C           2.6912    0.2728   28.4000 C.ar    1  UNL1        0.0188
     26 C           3.6600   -0.2598   29.4138 C.ar    1  UNL1        0.1110
     27 C           4.7270   -1.2274   28.9955 C.ar    1  UNL1        0.0290
     28 N           6.9593   -3.5980   26.7267 N.1     1  UNL1       -0.1908
     29 C           5.8923   -2.6303   27.1450 C.1     1  UNL1        0.1005
@<TRIPOS>BOND
     1    28    29    3
     2    29    22    1
     3    22    23   ar
     4    23    24   ar
     5    24    25   ar
     6    25    26   ar
     7    26    19    1
     8    19    20    2
     9    19    21    2
    10    19     1    1
    11     1     2   ar
    12     2     3   ar
    13     3     4   ar
    14     4     5   ar
    15     5     6   ar
    16     6     7    1
    17     6     8   ar
    18     8     9   ar
    19     9    10   ar
    20    10    11   ar
    21    11    12    1
    22    12    13   ar
    23    13    14   ar
    24    14    15   ar
    25    15    16    1
    26    15    17   ar
    27    17    18   ar
    28    26    27   ar
    29    27    22   ar
    30    11     1   ar
    31    18    12   ar
    32    10     4   ar
@<TRIPOS>MOLECULE
*****
 29 32 0 0 0
SMALL
GASTEIGER

@<TRIPOS>ATOM
      1 C           3.7528    0.0447   28.8994 C.ar    1  UNL1        0.1293
      2 C           4.9225   -0.4850   29.6748 C.ar    1  UNL1        0.1175
      3 N           5.0291   -0.2186   31.1470 N.ar    1  UNL1       -0.2424
      4 C           3.9659    0.5776   31.8440 C.ar    1  UNL1        0.0836
      5 C           4.0724    0.8441   33.3163 C.ar    1  UNL1        0.0487
      6 C           3.0093    1.6403   34.0132 C.ar    1  UNL1        0.1416
      7 F           3.1158    1.9068   35.4856 F       1  UNL1       -0.2041
      8 C           1.8396    2.1701   33.2379 C.ar    1  UNL1        0.0297
      9 C           1.7331    1.9036   31.7656 C.ar    1  UNL1        0.0038
     10 C           2.7962    1.1074   31.0687 C.ar    1  UNL1        0.0191
     11 C           2.6897    0.8410   29.5963 C.ar    1  UNL1        0.0205
     12 C           1.5200    1.3707   28.8210 C.ar    1  UNL1        0.0014
     13 C           0.2874    0.5319   28.6564 C.ar    1  UNL1        0.0009
     14 C          -0.8823    1.0617   27.8810 C.ar    1  UNL1        0.0114
     15 C          -0.8193    2.4303   27.2703 C.ar    1  UNL1        0.0577
     16 CL         -1.9890    2.9601   26.4949 Cl      1  UNL1       -0.0822
     17 C           0.4132    3.2691   27.4349 C.ar    1  UNL1        0.0114
     18 C           1.5829    2.7393   28.2102 C.ar    1  UNL1        0.0009
     19 S           3.6463   -0.2217   27.4271 S.O2    1  UNL1        0.0289
     20 O           4.3490    1.0725   27.1421 O.2     1  UNL1       -0.1642
     21 O           2.9437   -1.5159   27.7121 O.2     1  UNL1       -0.1642
     22 C           4.2132   -1.8775   23.8652 C.ar    1  UNL1        0.0697
     23 C           3.3269   -1.0210   23.0102 C.ar    1  UNL1        0.0104
     24 C           2.5471    0.1019   23.6275 C.ar    1  UNL1        0.0020
     25 C           2.6536    0.3683   25.0998 C.ar    1  UNL1        0.0188
     26 C           3.5399   -0.4881   25.9548 C.ar    1  UNL1        0.1110
     27 C           4.3196   -1.6110   25.3375 C.ar    1  UNL1        0.0290
     28 N           5.7727   -4.1232   22.6307 N.1     1  UNL1       -0.1908
     29 C           4.9929   -3.0004   23.2479 C.1     1  UNL1        0.1005
@<TRIPOS>BOND
     1    28    29    3
     2    29    22    1
     3    22    23   ar
     4    23    24   ar
     5    24    25   ar
     6    25    26   ar
     7    26    19    1
     8    19    20    2
     9    19    21    2
    10    19     1    1
    11     1     2   ar
    12     2     3   ar
    13     3     4   ar
    14     4     5   ar
    15     5     6   ar
    16     6     7    1
    17     6     8   ar
    18     8     9   ar
    19     9    10   ar
    20    10    11   ar
    21    11    12    1
    22    12    13   ar
    23    13    14   ar
    24    14    15   ar
    25    15    16    1
    26    15    17   ar
    27    17    18   ar
    28    26    27   ar
    29    27    22   ar
    30    11     1   ar
    31    18    12   ar
    32    10     4   ar
@<TRIPOS>MOLECULE
*****
 29 32 0 0 0
SMALL
GASTEIGER

@<TRIPOS>ATOM
      1 C           6.9431   -3.5357   21.2777 C.ar    1  UNL1        0.1293
      2 C           7.8257   -4.6762   20.8649 C.ar    1  UNL1        0.1175
      3 N           8.3296   -5.6448   21.8934 N.ar    1  UNL1       -0.2424
      4 C           7.9510   -5.4730   23.3346 C.ar    1  UNL1        0.0836
      5 C           8.4550   -6.4416   24.3631 C.ar    1  UNL1        0.0487
      6 C           8.0764   -6.2697   25.8043 C.ar    1  UNL1        0.1416
      7 F           8.5804   -7.2384   26.8328 F       1  UNL1       -0.2041
      8 C           7.1939   -5.1292   26.2170 C.ar    1  UNL1        0.0297
      9 C           6.6899   -4.1606   25.1886 C.ar    1  UNL1        0.0038
     10 C           7.0685   -4.3324   23.7474 C.ar    1  UNL1        0.0191
     11 C           6.5646   -3.3638   22.7188 C.ar    1  UNL1        0.0205
     12 C           5.6820   -2.2233   23.1316 C.ar    1  UNL1        0.0014
     13 C           6.2904   -0.9526   23.6470 C.ar    1  UNL1        0.0009
     14 C           5.4079    0.1879   24.0597 C.ar    1  UNL1        0.0114
     15 C           3.9170    0.0578   23.9571 C.ar    1  UNL1        0.0577
     16 CL          3.0345    1.1983   24.3698 Cl      1  UNL1       -0.0822
     17 C           3.3087   -1.2128   23.4418 C.ar    1  UNL1        0.0114
     18 C           4.1912   -2.3533   23.0290 C.ar    1  UNL1        0.0009
     19 S           6.4392   -2.5670   20.2491 S.O2    1  UNL1        0.0289
     20 O           7.6087   -1.6685   20.5224 O.2     1  UNL1       -0.1642
     21 O           5.2697   -3.4656   19.9758 O.2     1  UNL1       -0.1642
     22 C           3.9909   -0.2113   18.1981 C.ar    1  UNL1        0.0697
     23 C           4.9275    0.3390   17.1637 C.ar    1  UNL1        0.0104
     24 C           6.3680   -0.0794   17.1578 C.ar    1  UNL1        0.0020
     25 C           6.8719   -1.0481   18.1862 C.ar    1  UNL1        0.0188
     26 C           5.9353   -1.5984   19.2207 C.ar    1  UNL1        0.1110
     27 C           4.4949   -1.1800   19.2266 C.ar    1  UNL1        0.0290
     28 N           1.1100    0.6253   18.2100 N.1     1  UNL1       -0.1908
     29 C           2.5505    0.2070   18.2041 C.1     1  UNL1        0.1005
@<TRIPOS>BOND
     1    28    29    3
     2    29    22    1
     3    22    23   ar
     4    23    24   ar
     5    24    25   ar
     6    25    26   ar
     7    26    19    1
     8    19    20    2
     9    19    21    2
    10    19     1    1
    11     1     2   ar
    12     2     3   ar
    13     3     4   ar
    14     4     5   ar
    15     5     6   ar
    16     6     7    1
    17     6     8   ar
    18     8     9   ar
    19     9    10   ar
    20    10    11   ar
    21    11    12    1
    22    12    13   ar
    23    13    14   ar
    24    14    15   ar
    25    15    16    1
    26    15    17   ar
    27    17    18   ar
    28    26    27   ar
    29    27    22   ar
    30    11     1   ar
    31    18    12   ar
    32    10     4   ar
@<TRIPOS>MOLECULE
*****
 29 32 0 0 0
SMALL
GASTEIGER

@<TRIPOS>ATOM
      1 C          -8.0591  -18.9559   21.2558 C.ar    1  UNL1        0.1293
      2 C          -8.8101  -19.7957   20.2655 C.ar    1  UNL1        0.1175
      3 N         -10.3099  -19.7781   20.2519 N.ar    1  UNL1       -0.2424
      4 C         -11.0588  -18.9207   21.2287 C.ar    1  UNL1        0.0836
      5 C         -12.5586  -18.9032   21.2151 C.ar    1  UNL1        0.0487
      6 C         -13.3074  -18.0458   22.1919 C.ar    1  UNL1        0.1416
      7 F         -14.8073  -18.0282   22.1783 F       1  UNL1       -0.2041
      8 C         -12.5565  -17.2060   23.1822 C.ar    1  UNL1        0.0297
      9 C         -11.0567  -17.2236   23.1958 C.ar    1  UNL1        0.0038
     10 C         -10.3078  -18.0809   22.2190 C.ar    1  UNL1        0.0191
     11 C          -8.8079  -18.0985   22.2326 C.ar    1  UNL1        0.0205
     12 C          -8.0570  -17.2587   23.2229 C.ar    1  UNL1        0.0014
     13 C          -8.4320  -17.2960   24.6749 C.ar    1  UNL1        0.0009
     14 C          -7.6810  -16.4562   25.6652 C.ar    1  UNL1        0.0114
     15 C          -6.5550  -15.5791   25.2036 C.ar    1  UNL1        0.0577
     16 CL         -5.8041  -14.7393   26.1939 Cl      1  UNL1       -0.0822
     17 C          -6.1801  -15.5419   23.7517 C.ar    1  UNL1        0.0114
     18 C          -6.9310  -16.3817   22.7614 C.ar    1  UNL1        0.0009
     19 S          -6.5592  -18.9735   21.2694 S.O2    1  UNL1        0.0289
     20 O          -6.5381  -18.1173   20.0379 O.2     1  UNL1       -0.1642
     21 O          -6.5803  -19.8297   22.5008 O.2     1  UNL1       -0.1642
     22 C          -2.7940  -18.6340   20.0620 C.ar    1  UNL1        0.0697
     23 C          -2.0597  -19.0261   21.3098 C.ar    1  UNL1        0.0104
     24 C          -2.8253  -19.4007   22.5442 C.ar    1  UNL1        0.0020
     25 C          -4.3251  -19.3832   22.5307 C.ar    1  UNL1        0.0188
     26 C          -5.0594  -18.9910   21.2829 C.ar    1  UNL1        0.1110
     27 C          -4.2939  -18.6164   20.0485 C.ar    1  UNL1        0.0290
     28 N          -1.2629  -17.8848   17.5933 N.1     1  UNL1       -0.1908
     29 C          -2.0285  -18.2594   18.8277 C.1     1  UNL1        0.1005
@<TRIPOS>BOND
     1    28    29    3
     2    29    22    1
     3    22    23   ar
     4    23    24   ar
     5    24    25   ar
     6    25    26   ar
     7    26    19    1
     8    19    20    2
     9    19    21    2
    10    19     1    1
    11     1     2   ar
    12     2     3   ar
    13     3     4   ar
    14     4     5   ar
    15     5     6   ar
    16     6     7    1
    17     6     8   ar
    18     8     9   ar
    19     9    10   ar
    20    10    11   ar
    21    11    12    1
    22    12    13   ar
    23    13    14   ar
    24    14    15   ar
    25    15    16    1
    26    15    17   ar
    27    17    18   ar
    28    26    27   ar
    29    27    22   ar
    30    11     1   ar
    31    18    12   ar
    32    10     4   ar
