@<TRIPOS>MOLECULE
*****
 32 35 0 0 0
SMALL
GASTEIGER

@<TRIPOS>ATOM
      1 C          -8.9585  -18.3682   21.1595 C.ar    1  UNL1        0.0951
      2 C          -9.7244  -18.8723   19.9724 C.ar    1  UNL1        0.1454
      3 F         -11.1115  -18.3677   19.7053 F       1  UNL1       -0.2040
      4 C          -9.1031  -19.8811   19.0524 C.ar    1  UNL1        0.0312
      5 C          -7.7160  -20.3857   19.3195 C.ar    1  UNL1        0.0204
      6 C          -6.9501  -19.8816   20.5066 C.ar    1  UNL1        0.0924
      7 C          -7.5714  -18.8728   21.4266 C.ar    1  UNL1        0.1598
      8 F          -6.8055  -18.3686   22.6137 F       1  UNL1       -0.2026
      9 O         -10.1418  -16.0842   21.5246 O.2     1  UNL1       -0.2864
     10 C          -9.5797  -17.3593   22.0796 C.2     1  UNL1        0.2016
     11 C          -9.6388  -17.6257   23.5546 C.ar    1  UNL1        0.0620
     12 C         -10.4935  -18.6563   24.2308 C.ar    1  UNL1        0.1038
     13 N         -10.2365  -18.5758   25.7064 N.ar    1  UNL1       -0.2268
     14 C          -9.2229  -17.4954   25.9422 C.ar    1  UNL1        0.1415
     15 N          -8.5886  -16.9705   27.1960 N.ar    1  UNL1       -0.3374
     16 C          -7.5850  -15.8584   27.1198 C.ar    1  UNL1        0.0744
     17 C          -7.2156  -15.2712   25.7899 C.ar    1  UNL1        0.0300
     18 C          -7.8499  -15.7962   24.5361 C.ar    1  UNL1        0.0622
     19 CL         -7.4805  -15.2090   23.2061 Cl      1  UNL1       -0.0821
     20 C          -8.8535  -16.9083   24.6122 C.ar    1  UNL1        0.0491
     21 H          -8.8311  -17.3559   28.0689 H       1  UNL1        0.1674
     22 N          -5.5631  -20.3862   20.7737 N.pl3   1  UNL1       -0.2128
     23 H          -5.4181  -21.3349   20.9932 H       1  UNL1        0.1738
     24 S          -4.3968  -19.4453   20.7064 S.O2    1  UNL1        0.0751
     25 O          -4.0440  -19.7812   22.1251 O.2     1  UNL1       -0.1499
     26 O          -4.7496  -19.1094   19.2877 O.2     1  UNL1       -0.1499
     27 C          -3.2306  -18.5044   20.6390 C.ar    1  UNL1        0.1442
     28 C          -2.9842  -17.5341   21.7561 C.ar    1  UNL1        0.0234
     29 C          -1.8180  -16.5932   21.6889 C.ar    1  UNL1        0.0221
     30 C          -0.8980  -16.6225   20.5044 C.ar    1  UNL1        0.0990
     31 N          -1.1444  -17.5928   19.3873 N.ar    1  UNL1       -0.2409
     32 C          -2.3106  -18.5337   19.4546 C.ar    1  UNL1        0.1190
@<TRIPOS>BOND
     1     9    10    2
     2    10     1    1
     3     1     2   ar
     4     2     3    1
     5     2     4   ar
     6     4     5   ar
     7     5     6   ar
     8     6    22    1
     9    22    24    1
    10    24    25    2
    11    24    26    2
    12    24    27    1
    13    27    28   ar
    14    28    29   ar
    15    29    30   ar
    16    30    31   ar
    17    31    32   ar
    18     6     7   ar
    19     7     8    1
    20    10    11    1
    21    11    12   ar
    22    12    13   ar
    23    13    14   ar
    24    14    15   ar
    25    15    16   ar
    26    16    17   ar
    27    17    18   ar
    28    18    19    1
    29    18    20   ar
    30     7     1   ar
    31    20    11   ar
    32    32    27   ar
    33    20    14    1
    34    22    23    1
    35    15    21    1
@<TRIPOS>MOLECULE
*****
 32 35 0 0 0
SMALL
GASTEIGER

@<TRIPOS>ATOM
      1 C          -8.5643  -18.7880   20.9116 C.ar    1  UNL1        0.0951
      2 C          -9.3421  -19.3324   19.7503 C.ar    1  UNL1        0.1454
      3 F         -10.7640  -18.9065   19.5342 F       1  UNL1       -0.2040
      4 C          -8.6978  -20.3026   18.8050 C.ar    1  UNL1        0.0312
      5 C          -7.2759  -20.7284   19.0210 C.ar    1  UNL1        0.0204
      6 C          -6.4981  -20.1840   20.1824 C.ar    1  UNL1        0.0924
      7 C          -7.1423  -19.2138   21.1276 C.ar    1  UNL1        0.1598
      8 F          -6.3646  -18.6693   22.2890 F       1  UNL1       -0.2026
      9 O          -9.1821  -16.3483   21.5568 O.2     1  UNL1       -0.2864
     10 C          -9.2086  -17.8177   21.8570 C.2     1  UNL1        0.2016
     11 C          -9.8792  -18.3169   23.1024 C.ar    1  UNL1        0.0620
     12 C          -9.2077  -19.0227   24.2430 C.ar    1  UNL1        0.1038
     13 N         -10.2525  -19.3399   25.2713 N.ar    1  UNL1       -0.2268
     14 C         -11.5698  -18.8302   24.7664 C.ar    1  UNL1        0.1415
     15 N         -12.9496  -18.8600   25.3540 N.ar    1  UNL1       -0.3374
     16 C         -14.0985  -18.2576   24.6011 C.ar    1  UNL1        0.0744
     17 C         -13.8678  -17.6253   23.2606 C.ar    1  UNL1        0.0300
     18 C         -12.4880  -17.5954   22.6730 C.ar    1  UNL1        0.0622
     19 CL        -12.2573  -16.9631   21.3325 Cl      1  UNL1       -0.0821
     20 C         -11.3390  -18.1979   23.4259 C.ar    1  UNL1        0.0491
     21 H         -13.1010  -19.2750   26.2338 H       1  UNL1        0.1674
     22 N          -5.0761  -20.6098   20.3984 N.pl3   1  UNL1       -0.2128
     23 H          -4.8599  -21.5634   20.5137 H       1  UNL1        0.1738
     24 S          -3.9836  -19.5829   20.4388 S.O2    1  UNL1        0.0751
     25 O          -4.7034  -18.7762   19.3990 O.2     1  UNL1       -0.1499
     26 O          -3.2638  -20.3895   21.4786 O.2     1  UNL1       -0.1499
     27 C          -2.8910  -18.5559   20.4793 C.ar    1  UNL1        0.1442
     28 C          -1.8284  -18.5492   19.4205 C.ar    1  UNL1        0.0234
     29 C          -0.7358  -17.5224   19.4609 C.ar    1  UNL1        0.0221
     30 C          -0.7057  -16.5021   20.5600 C.ar    1  UNL1        0.0990
     31 N          -1.7683  -16.5088   21.6188 N.ar    1  UNL1       -0.2409
     32 C          -2.8609  -17.5357   21.5784 C.ar    1  UNL1        0.1190
@<TRIPOS>BOND
     1     9    10    2
     2    10     1    1
     3     1     2   ar
     4     2     3    1
     5     2     4   ar
     6     4     5   ar
     7     5     6   ar
     8     6    22    1
     9    22    24    1
    10    24    25    2
    11    24    26    2
    12    24    27    1
    13    27    28   ar
    14    28    29   ar
    15    29    30   ar
    16    30    31   ar
    17    31    32   ar
    18     6     7   ar
    19     7     8    1
    20    10    11    1
    21    11    12   ar
    22    12    13   ar
    23    13    14   ar
    24    14    15   ar
    25    15    16   ar
    26    16    17   ar
    27    17    18   ar
    28    18    19    1
    29    18    20   ar
    30     7     1   ar
    31    20    11   ar
    32    32    27   ar
    33    20    14    1
    34    22    23    1
    35    15    21    1
@<TRIPOS>MOLECULE
*****
 32 35 0 0 0
SMALL
GASTEIGER

@<TRIPOS>ATOM
      1 C          -7.2109  -17.1986   23.0524 C.ar    1  UNL1        0.0951
      2 C          -7.5201  -15.9886   23.8833 C.ar    1  UNL1        0.1454
      3 F          -8.9415  -15.5433   24.0599 F       1  UNL1       -0.2040
      4 C          -6.4077  -15.2240   24.5375 C.ar    1  UNL1        0.0312
      5 C          -4.9863  -15.6694   24.3609 C.ar    1  UNL1        0.0204
      6 C          -4.6771  -16.8793   23.5300 C.ar    1  UNL1        0.0924
      7 C          -5.7895  -17.6439   22.8758 C.ar    1  UNL1        0.1598
      8 F          -5.4804  -18.8539   22.0448 F       1  UNL1       -0.2026
      9 O          -8.3594  -18.1043   20.9052 O.2     1  UNL1       -0.2864
     10 C          -8.3233  -17.9633   22.3980 C.2     1  UNL1        0.2016
     11 C          -9.3993  -18.5868   23.2367 C.ar    1  UNL1        0.0620
     12 C          -9.2345  -19.7670   24.1477 C.ar    1  UNL1        0.1038
     13 N         -10.5624  -20.0492   24.7855 N.ar    1  UNL1       -0.2268
     14 C         -11.5480  -19.0434   24.2687 C.ar    1  UNL1        0.1415
     15 N         -13.0071  -18.8338   24.5461 N.ar    1  UNL1       -0.3374
     16 C         -13.7474  -17.7204   23.8662 C.ar    1  UNL1        0.0744
     17 C         -13.0285  -16.8166   22.9089 C.ar    1  UNL1        0.0300
     18 C         -11.5694  -17.0262   22.6316 C.ar    1  UNL1        0.0622
     19 CL        -10.8506  -16.1224   21.6743 Cl      1  UNL1       -0.0821
     20 C         -10.8292  -18.1396   23.3114 C.ar    1  UNL1        0.0491
     21 H         -13.4790  -19.4270   25.1744 H       1  UNL1        0.1674
     22 N          -3.2557  -17.3246   23.3534 N.pl3   1  UNL1       -0.2128
     23 H          -2.7016  -17.5266   24.1417 H       1  UNL1        0.1738
     24 S          -2.6786  -17.4622   21.9757 S.O2    1  UNL1        0.0751
     25 O          -2.4945  -18.9339   22.1999 O.2     1  UNL1       -0.1499
     26 O          -2.8627  -15.9906   21.7516 O.2     1  UNL1       -0.1499
     27 C          -2.1015  -17.5998   20.5981 C.ar    1  UNL1        0.1442
     28 C          -2.9579  -17.3323   19.3960 C.ar    1  UNL1        0.0234
     29 C          -2.3809  -17.4698   18.0183 C.ar    1  UNL1        0.0221
     30 C          -0.9474  -17.8748   17.8426 C.ar    1  UNL1        0.0990
     31 N          -0.0909  -18.1423   19.0447 N.ar    1  UNL1       -0.2409
     32 C          -0.6679  -18.0048   20.4224 C.ar    1  UNL1        0.1190
@<TRIPOS>BOND
     1     9    10    2
     2    10     1    1
     3     1     2   ar
     4     2     3    1
     5     2     4   ar
     6     4     5   ar
     7     5     6   ar
     8     6    22    1
     9    22    24    1
    10    24    25    2
    11    24    26    2
    12    24    27    1
    13    27    28   ar
    14    28    29   ar
    15    29    30   ar
    16    30    31   ar
    17    31    32   ar
    18     6     7   ar
    19     7     8    1
    20    10    11    1
    21    11    12   ar
    22    12    13   ar
    23    13    14   ar
    24    14    15   ar
    25    15    16   ar
    26    16    17   ar
    27    17    18   ar
    28    18    19    1
    29    18    20   ar
    30     7     1   ar
    31    20    11   ar
    32    32    27   ar
    33    20    14    1
    34    22    23    1
    35    15    21    1
@<TRIPOS>MOLECULE
*****
 32 35 0 0 0
SMALL
GASTEIGER

@<TRIPOS>ATOM
      1 C          -8.1876  -16.8057   25.3326 C.ar    1  UNL1        0.0951
      2 C          -8.1167  -16.4448   26.7868 C.ar    1  UNL1        0.1454
      3 F          -9.2022  -16.8865   27.7230 F       1  UNL1       -0.2040
      4 C          -6.9601  -15.6424   27.3048 C.ar    1  UNL1        0.0312
      5 C          -5.8745  -15.2007   26.3686 C.ar    1  UNL1        0.0204
      6 C          -5.9454  -15.5615   24.9144 C.ar    1  UNL1        0.0924
      7 C          -7.1020  -16.3640   24.3964 C.ar    1  UNL1        0.1598
      8 F          -7.1730  -16.7249   22.9422 F       1  UNL1       -0.2026
      9 O          -9.8226  -18.8103   25.5733 O.2     1  UNL1       -0.2864
     10 C          -9.3442  -17.6082   24.8145 C.2     1  UNL1        0.2016
     11 C         -10.0223  -17.2085   23.5376 C.ar    1  UNL1        0.0620
     12 C         -10.9174  -16.0197   23.3494 C.ar    1  UNL1        0.1038
     13 N         -11.3726  -16.0039   21.9202 N.ar    1  UNL1       -0.2268
     14 C         -10.7588  -17.1830   21.2251 C.ar    1  UNL1        0.1415
     15 N         -10.8520  -17.6749   19.8112 N.ar    1  UNL1       -0.3374
     16 C         -10.1107  -18.9113   19.3969 C.ar    1  UNL1        0.0744
     17 C          -9.2761  -19.6557   20.3965 C.ar    1  UNL1        0.0300
     18 C          -9.1829  -19.1638   21.8105 C.ar    1  UNL1        0.0622
     19 CL         -8.3483  -19.9083   22.8101 Cl      1  UNL1       -0.0821
     20 C          -9.9243  -17.9275   22.2248 C.ar    1  UNL1        0.0491
     21 H         -11.3998  -17.1863   19.1551 H       1  UNL1        0.1674
     22 N          -4.8599  -15.1199   23.9782 N.pl3   1  UNL1       -0.2128
     23 H          -4.6651  -14.1612   23.8676 H       1  UNL1        0.1738
     24 S          -4.0710  -16.1389   23.2106 S.O2    1  UNL1        0.0751
     25 O          -4.4076  -17.1757   24.2410 O.2     1  UNL1       -0.1499
     26 O          -3.7344  -15.1021   22.1802 O.2     1  UNL1       -0.1499
     27 C          -3.2822  -17.1578   22.4428 C.ar    1  UNL1        0.1442
     28 C          -3.6578  -18.6082   22.5164 C.ar    1  UNL1        0.0234
     29 C          -2.8690  -19.6272   21.7487 C.ar    1  UNL1        0.0221
     30 C          -1.7045  -19.1959   20.9074 C.ar    1  UNL1        0.0990
     31 N          -1.3289  -17.7455   20.8338 N.ar    1  UNL1       -0.2409
     32 C          -2.1177  -16.7265   21.6015 C.ar    1  UNL1        0.1190
@<TRIPOS>BOND
     1     9    10    2
     2    10     1    1
     3     1     2   ar
     4     2     3    1
     5     2     4   ar
     6     4     5   ar
     7     5     6   ar
     8     6    22    1
     9    22    24    1
    10    24    25    2
    11    24    26    2
    12    24    27    1
    13    27    28   ar
    14    28    29   ar
    15    29    30   ar
    16    30    31   ar
    17    31    32   ar
    18     6     7   ar
    19     7     8    1
    20    10    11    1
    21    11    12   ar
    22    12    13   ar
    23    13    14   ar
    24    14    15   ar
    25    15    16   ar
    26    16    17   ar
    27    17    18   ar
    28    18    19    1
    29    18    20   ar
    30     7     1   ar
    31    20    11   ar
    32    32    27   ar
    33    20    14    1
    34    22    23    1
    35    15    21    1
@<TRIPOS>MOLECULE
*****
 32 35 0 0 0
SMALL
GASTEIGER

@<TRIPOS>ATOM
      1 C          -8.0617  -17.2613   22.1041 C.ar    1  UNL1        0.0951
      2 C          -8.4593  -15.9032   22.6015 C.ar    1  UNL1        0.1454
      3 F          -9.7951  -15.3301   22.2309 F       1  UNL1       -0.2040
      4 C          -7.5211  -15.1181   23.4695 C.ar    1  UNL1        0.0312
      5 C          -6.1854  -15.6912   23.8402 C.ar    1  UNL1        0.0204
      6 C          -5.7878  -17.0493   23.3428 C.ar    1  UNL1        0.0924
      7 C          -6.7260  -17.8343   22.4748 C.ar    1  UNL1        0.1598
      8 F          -6.3284  -19.1925   21.9774 F       1  UNL1       -0.2026
      9 O          -8.4571  -19.0403   20.2525 O.2     1  UNL1       -0.2864
     10 C          -8.9999  -18.0465   21.2361 C.2     1  UNL1        0.2016
     11 C         -10.4808  -17.8376   21.3517 C.ar    1  UNL1        0.0620
     12 C         -11.3816  -17.2992   20.2799 C.ar    1  UNL1        0.1038
     13 N         -12.7784  -17.2594   20.8253 N.ar    1  UNL1       -0.2268
     14 C         -12.7409  -17.7731   22.2340 C.ar    1  UNL1        0.1415
     15 N         -13.8162  -17.9617   23.2626 N.ar    1  UNL1       -0.3374
     16 C         -13.4716  -18.5077   24.6165 C.ar    1  UNL1        0.0744
     17 C         -12.0516  -18.8650   24.9419 C.ar    1  UNL1        0.0300
     18 C         -10.9762  -18.6765   23.9133 C.ar    1  UNL1        0.0622
     19 CL         -9.5562  -19.0338   24.2387 Cl      1  UNL1       -0.0821
     20 C         -11.3208  -18.1305   22.5594 C.ar    1  UNL1        0.0491
     21 H         -14.7482  -17.7272   23.0490 H       1  UNL1        0.1674
     22 N          -4.4520  -17.6223   23.7134 N.pl3   1  UNL1       -0.2128
     23 H          -4.2892  -17.9372   24.6319 H       1  UNL1        0.1738
     24 S          -3.3644  -17.7156   22.6847 S.O2    1  UNL1        0.0751
     25 O          -3.3028  -16.2185   22.6141 O.2     1  UNL1       -0.1499
     26 O          -3.4260  -19.2127   22.7553 O.2     1  UNL1       -0.1499
     27 C          -2.2768  -17.8090   21.6560 C.ar    1  UNL1        0.1442
     28 C          -1.5335  -16.5755   21.2362 C.ar    1  UNL1        0.0234
     29 C          -0.4459  -16.6688   20.2075 C.ar    1  UNL1        0.0221
     30 C          -0.1014  -17.9956   19.5984 C.ar    1  UNL1        0.0990
     31 N          -0.8447  -19.2291   20.0182 N.ar    1  UNL1       -0.2409
     32 C          -1.9324  -19.1358   21.0469 C.ar    1  UNL1        0.1190
@<TRIPOS>BOND
     1     9    10    2
     2    10     1    1
     3     1     2   ar
     4     2     3    1
     5     2     4   ar
     6     4     5   ar
     7     5     6   ar
     8     6    22    1
     9    22    24    1
    10    24    25    2
    11    24    26    2
    12    24    27    1
    13    27    28   ar
    14    28    29   ar
    15    29    30   ar
    16    30    31   ar
    17    31    32   ar
    18     6     7   ar
    19     7     8    1
    20    10    11    1
    21    11    12   ar
    22    12    13   ar
    23    13    14   ar
    24    14    15   ar
    25    15    16   ar
    26    16    17   ar
    27    17    18   ar
    28    18    19    1
    29    18    20   ar
    30     7     1   ar
    31    20    11   ar
    32    32    27   ar
    33    20    14    1
    34    22    23    1
    35    15    21    1
@<TRIPOS>MOLECULE
*****
 32 35 0 0 0
SMALL
GASTEIGER

@<TRIPOS>ATOM
      1 C          -7.2151  -17.3078   23.1558 C.ar    1  UNL1        0.0951
      2 C          -7.6007  -16.1584   24.0391 C.ar    1  UNL1        0.1454
      3 F          -9.0478  -15.8153   24.2347 F       1  UNL1       -0.2040
      4 C          -6.5392  -15.3521   24.7269 C.ar    1  UNL1        0.0312
      5 C          -5.0921  -15.6951   24.5313 C.ar    1  UNL1        0.0204
      6 C          -4.7065  -16.8445   23.6481 C.ar    1  UNL1        0.0924
      7 C          -5.7680  -17.6508   22.9603 C.ar    1  UNL1        0.1598
      8 F          -5.3824  -18.8002   22.0770 F       1  UNL1       -0.2026
      9 O          -7.9943  -19.5281   22.0546 O.2     1  UNL1       -0.2864
     10 C          -8.2766  -18.1142   22.4680 C.2     1  UNL1        0.2016
     11 C          -9.6203  -17.5065   22.1938 C.ar    1  UNL1        0.0620
     12 C          -9.9344  -16.5106   21.1170 C.ar    1  UNL1        0.1038
     13 N         -11.3941  -16.1767   21.2059 N.ar    1  UNL1       -0.2268
     14 C         -11.9821  -16.9663   22.3376 C.ar    1  UNL1        0.1415
     15 N         -13.3741  -17.0431   22.8910 N.ar    1  UNL1       -0.3374
     16 C         -13.6699  -17.9418   24.0550 C.ar    1  UNL1        0.0744
     17 C         -12.5737  -18.7637   24.6655 C.ar    1  UNL1        0.0300
     18 C         -11.1817  -18.6869   24.1121 C.ar    1  UNL1        0.0622
     19 CL        -10.0854  -19.5087   24.7227 Cl      1  UNL1       -0.0821
     20 C         -10.8859  -17.7882   22.9482 C.ar    1  UNL1        0.0491
     21 H         -14.0936  -16.5037   22.4903 H       1  UNL1        0.1674
     22 N          -3.2594  -17.1875   23.4525 N.pl3   1  UNL1       -0.2128
     23 H          -2.6708  -17.3018   24.2333 H       1  UNL1        0.1738
     24 S          -2.7092  -17.3562   22.0674 S.O2    1  UNL1        0.0751
     25 O          -2.9495  -15.9010   21.7946 O.2     1  UNL1       -0.1499
     26 O          -2.4688  -18.8115   22.3401 O.2     1  UNL1       -0.1499
     27 C          -2.1589  -17.5251   20.6822 C.ar    1  UNL1        0.1442
     28 C          -3.0398  -17.2888   19.4913 C.ar    1  UNL1        0.0234
     29 C          -2.4896  -17.4576   18.1061 C.ar    1  UNL1        0.0221
     30 C          -1.0585  -17.8628   17.9117 C.ar    1  UNL1        0.0990
     31 N          -0.1777  -18.0991   19.1027 N.ar    1  UNL1       -0.2409
     32 C          -0.7278  -17.9303   20.4879 C.ar    1  UNL1        0.1190
@<TRIPOS>BOND
     1     9    10    2
     2    10     1    1
     3     1     2   ar
     4     2     3    1
     5     2     4   ar
     6     4     5   ar
     7     5     6   ar
     8     6    22    1
     9    22    24    1
    10    24    25    2
    11    24    26    2
    12    24    27    1
    13    27    28   ar
    14    28    29   ar
    15    29    30   ar
    16    30    31   ar
    17    31    32   ar
    18     6     7   ar
    19     7     8    1
    20    10    11    1
    21    11    12   ar
    22    12    13   ar
    23    13    14   ar
    24    14    15   ar
    25    15    16   ar
    26    16    17   ar
    27    17    18   ar
    28    18    19    1
    29    18    20   ar
    30     7     1   ar
    31    20    11   ar
    32    32    27   ar
    33    20    14    1
    34    22    23    1
    35    15    21    1
@<TRIPOS>MOLECULE
*****
 32 35 0 0 0
SMALL
GASTEIGER

@<TRIPOS>ATOM
      1 C          -8.5541  -17.6447   21.4197 C.ar    1  UNL1        0.0951
      2 C          -9.6931  -18.3123   20.7078 C.ar    1  UNL1        0.1454
      3 F         -10.9952  -17.5887   20.5321 F       1  UNL1       -0.2040
      4 C          -9.5300  -19.7037   20.1717 C.ar    1  UNL1        0.0312
      5 C          -8.2279  -20.4274   20.3474 C.ar    1  UNL1        0.0204
      6 C          -7.0889  -19.7597   21.0592 C.ar    1  UNL1        0.0924
      7 C          -7.2520  -18.3683   21.5954 C.ar    1  UNL1        0.1598
      8 F          -6.1129  -17.7006   22.3073 F       1  UNL1       -0.2026
      9 O          -9.6286  -15.2844   21.2627 O.2     1  UNL1       -0.2864
     10 C          -8.7171  -16.2532   21.9559 C.2     1  UNL1        0.2016
     11 C          -7.9686  -15.8307   23.1853 C.ar    1  UNL1        0.0620
     12 C          -6.8016  -14.8893   23.2270 C.ar    1  UNL1        0.1038
     13 N          -6.3675  -14.7523   24.6562 N.ar    1  UNL1       -0.2268
     14 C          -7.2663  -15.6089   25.4979 C.ar    1  UNL1        0.1415
     15 N          -7.3115  -15.8682   26.9746 N.ar    1  UNL1       -0.3374
     16 C          -8.3462  -16.7940   27.5421 C.ar    1  UNL1        0.0744
     17 C          -9.3357  -17.4605   26.6330 C.ar    1  UNL1        0.0300
     18 C          -9.2906  -17.2013   25.1563 C.ar    1  UNL1        0.0622
     19 CL        -10.2801  -17.8678   24.2472 Cl      1  UNL1       -0.0821
     20 C          -8.2558  -16.2755   24.5887 C.ar    1  UNL1        0.0491
     21 H          -6.6620  -15.4307   27.5712 H       1  UNL1        0.1674
     22 N          -5.7868  -20.4834   21.2349 N.pl3   1  UNL1       -0.2128
     23 H          -5.7775  -21.3992   21.5961 H       1  UNL1        0.1738
     24 S          -4.4990  -19.8117   20.8603 S.O2    1  UNL1        0.0751
     25 O          -5.0029  -19.6268   19.4596 O.2     1  UNL1       -0.1499
     26 O          -3.9951  -19.9966   22.2610 O.2     1  UNL1       -0.1499
     27 C          -3.2112  -19.1401   20.4857 C.ar    1  UNL1        0.1442
     28 C          -3.0995  -18.4060   19.1824 C.ar    1  UNL1        0.0234
     29 C          -1.8117  -17.7344   18.8077 C.ar    1  UNL1        0.0221
     30 C          -0.6354  -17.7967   19.7365 C.ar    1  UNL1        0.0990
     31 N          -0.7471  -18.5307   21.0399 N.ar    1  UNL1       -0.2409
     32 C          -2.0349  -19.2024   21.4145 C.ar    1  UNL1        0.1190
@<TRIPOS>BOND
     1     9    10    2
     2    10     1    1
     3     1     2   ar
     4     2     3    1
     5     2     4   ar
     6     4     5   ar
     7     5     6   ar
     8     6    22    1
     9    22    24    1
    10    24    25    2
    11    24    26    2
    12    24    27    1
    13    27    28   ar
    14    28    29   ar
    15    29    30   ar
    16    30    31   ar
    17    31    32   ar
    18     6     7   ar
    19     7     8    1
    20    10    11    1
    21    11    12   ar
    22    12    13   ar
    23    13    14   ar
    24    14    15   ar
    25    15    16   ar
    26    16    17   ar
    27    17    18   ar
    28    18    19    1
    29    18    20   ar
    30     7     1   ar
    31    20    11   ar
    32    32    27   ar
    33    20    14    1
    34    22    23    1
    35    15    21    1
@<TRIPOS>MOLECULE
*****
 32 35 0 0 0
SMALL
GASTEIGER

@<TRIPOS>ATOM
      1 C          -6.6369  -16.5887   23.5656 C.ar    1  UNL1        0.0951
      2 C          -5.4427  -15.8756   24.1272 C.ar    1  UNL1        0.1454
      3 F          -5.6267  -14.6207   24.9281 F       1  UNL1       -0.2040
      4 C          -4.0647  -16.4174   23.8879 C.ar    1  UNL1        0.0312
      5 C          -3.8807  -17.6722   23.0870 C.ar    1  UNL1        0.0204
      6 C          -5.0748  -18.3854   22.5254 C.ar    1  UNL1        0.0924
      7 C          -6.4529  -17.8436   22.7647 C.ar    1  UNL1        0.1598
      8 F          -7.6472  -18.5567   22.2031 F       1  UNL1       -0.2026
      9 O          -8.4276  -15.6297   25.1853 O.2     1  UNL1       -0.2864
     10 C          -8.0151  -16.0470   23.8049 C.2     1  UNL1        0.2016
     11 C          -8.9806  -15.9225   22.6637 C.ar    1  UNL1        0.0620
     12 C          -8.8268  -15.0238   21.4727 C.ar    1  UNL1        0.1038
     13 N         -10.0206  -15.2208   20.5861 N.ar    1  UNL1       -0.2268
     14 C         -10.9122  -16.2413   21.2292 C.ar    1  UNL1        0.1415
     15 N         -12.2264  -16.8316   20.8115 N.ar    1  UNL1       -0.3374
     16 C         -12.8977  -17.8557   21.6778 C.ar    1  UNL1        0.0744
     17 C         -12.2550  -18.2894   22.9618 C.ar    1  UNL1        0.0300
     18 C         -10.9409  -17.6990   23.3796 C.ar    1  UNL1        0.0622
     19 CL        -10.2981  -18.1327   24.6636 Cl      1  UNL1       -0.0821
     20 C         -10.2695  -16.6750   22.5132 C.ar    1  UNL1        0.0491
     21 H         -12.6482  -16.5470   19.9687 H       1  UNL1        0.1674
     22 N          -4.8909  -19.6403   21.7245 N.pl3   1  UNL1       -0.2128
     23 H          -4.0814  -20.1874   21.8457 H       1  UNL1        0.1738
     24 S          -5.9402  -20.0616   20.7390 S.O2    1  UNL1        0.0751
     25 O          -5.4923  -18.9809   19.8001 O.2     1  UNL1       -0.1499
     26 O          -6.3881  -21.1423   21.6778 O.2     1  UNL1       -0.1499
     27 C          -6.9896  -20.4830   19.7535 C.ar    1  UNL1        0.1442
     28 C          -6.9084  -21.8318   19.1022 C.ar    1  UNL1        0.0234
     29 C          -7.9577  -22.2533   18.1167 C.ar    1  UNL1        0.0221
     30 C          -9.0883  -21.3259   17.7824 C.ar    1  UNL1        0.0990
     31 N          -9.1695  -19.9771   18.4337 N.ar    1  UNL1       -0.2409
     32 C          -8.1201  -19.5556   19.4192 C.ar    1  UNL1        0.1190
@<TRIPOS>BOND
     1     9    10    2
     2    10     1    1
     3     1     2   ar
     4     2     3    1
     5     2     4   ar
     6     4     5   ar
     7     5     6   ar
     8     6    22    1
     9    22    24    1
    10    24    25    2
    11    24    26    2
    12    24    27    1
    13    27    28   ar
    14    28    29   ar
    15    29    30   ar
    16    30    31   ar
    17    31    32   ar
    18     6     7   ar
    19     7     8    1
    20    10    11    1
    21    11    12   ar
    22    12    13   ar
    23    13    14   ar
    24    14    15   ar
    25    15    16   ar
    26    16    17   ar
    27    17    18   ar
    28    18    19    1
    29    18    20   ar
    30     7     1   ar
    31    20    11   ar
    32    32    27   ar
    33    20    14    1
    34    22    23    1
    35    15    21    1
@<TRIPOS>MOLECULE
*****
 32 35 0 0 0
SMALL
GASTEIGER

@<TRIPOS>ATOM
      1 C          -7.1998  -17.4626   23.4428 C.ar    1  UNL1        0.0951
      2 C          -7.3666  -16.0780   23.9951 C.ar    1  UNL1        0.1454
      3 F          -8.7407  -15.5296   24.2423 F       1  UNL1       -0.2040
      4 C          -6.1593  -15.2419   24.3003 C.ar    1  UNL1        0.0312
      5 C          -4.7852  -15.7903   24.0531 C.ar    1  UNL1        0.0204
      6 C          -4.6184  -17.1749   23.5008 C.ar    1  UNL1        0.0924
      7 C          -5.8257  -18.0110   23.1957 C.ar    1  UNL1        0.1598
      8 F          -5.6590  -19.3957   22.6433 F       1  UNL1       -0.2026
      9 O          -9.0109  -19.1621   24.2054 O.2     1  UNL1       -0.2864
     10 C          -8.4072  -18.2988   23.1376 C.2     1  UNL1        0.2016
     11 C          -9.0108  -18.2717   21.7647 C.ar    1  UNL1        0.0620
     12 C          -8.4630  -18.9554   20.5471 C.ar    1  UNL1        0.1038
     13 N          -9.3817  -18.6624   19.3982 N.ar    1  UNL1       -0.2268
     14 C         -10.4974  -17.7976   19.9057 C.ar    1  UNL1        0.1415
     15 N         -11.6924  -17.1988   19.2250 N.ar    1  UNL1       -0.3374
     16 C         -12.6581  -16.3586   20.0069 C.ar    1  UNL1        0.0744
     17 C         -12.4288  -16.1172   21.4695 C.ar    1  UNL1        0.0300
     18 C         -11.2338  -16.7159   22.1502 C.ar    1  UNL1        0.0622
     19 CL        -11.0045  -16.4745   23.6128 Cl      1  UNL1       -0.0821
     20 C         -10.2681  -17.5562   21.3683 C.ar    1  UNL1        0.0491
     21 H         -11.8429  -17.3573   18.2651 H       1  UNL1        0.1674
     22 N          -3.2443  -17.7233   23.2537 N.pl3   1  UNL1       -0.2128
     23 H          -2.7112  -18.0722   24.0042 H       1  UNL1        0.1738
     24 S          -2.6824  -17.7401   21.8630 S.O2    1  UNL1        0.0751
     25 O          -2.8595  -19.2286   21.8094 O.2     1  UNL1       -0.1499
     26 O          -2.5054  -16.2516   21.9165 O.2     1  UNL1       -0.1499
     27 C          -2.1206  -17.7568   20.4723 C.ar    1  UNL1        0.1442
     28 C          -3.0227  -17.5271   19.2961 C.ar    1  UNL1        0.0234
     29 C          -2.4609  -17.5438   17.9054 C.ar    1  UNL1        0.0221
     30 C          -0.9969  -17.7901   17.6908 C.ar    1  UNL1        0.0990
     31 N          -0.0948  -18.0198   18.8670 N.ar    1  UNL1       -0.2409
     32 C          -0.6566  -18.0031   20.2578 C.ar    1  UNL1        0.1190
@<TRIPOS>BOND
     1     9    10    2
     2    10     1    1
     3     1     2   ar
     4     2     3    1
     5     2     4   ar
     6     4     5   ar
     7     5     6   ar
     8     6    22    1
     9    22    24    1
    10    24    25    2
    11    24    26    2
    12    24    27    1
    13    27    28   ar
    14    28    29   ar
    15    29    30   ar
    16    30    31   ar
    17    31    32   ar
    18     6     7   ar
    19     7     8    1
    20    10    11    1
    21    11    12   ar
    22    12    13   ar
    23    13    14   ar
    24    14    15   ar
    25    15    16   ar
    26    16    17   ar
    27    17    18   ar
    28    18    19    1
    29    18    20   ar
    30     7     1   ar
    31    20    11   ar
    32    32    27   ar
    33    20    14    1
    34    22    23    1
    35    15    21    1
