@<TRIPOS>MOLECULE
*****
 32 35 0 0 0
SMALL
GASTEIGER

@<TRIPOS>ATOM
      1 N          -9.4459  -19.3074   21.5781 N.3     1  UNL1       -0.2724
      2 C          -9.0767  -19.2921   20.1243 C.3     1  UNL1        0.0721
      3 C          -7.7347  -19.7989   19.6859 C.3     1  UNL1        0.0177
      4 C          -6.7619  -20.3210   20.7014 C.3     1  UNL1        0.0071
      5 C          -7.1311  -20.3364   22.1551 C.3     1  UNL1        0.0177
      6 C          -8.4732  -19.8295   22.5935 C.3     1  UNL1        0.0721
      7 C         -10.7879  -18.8006   22.0164 C.3     1  UNL1        0.0768
      8 C         -10.9241  -17.4070   22.5545 C.3     1  UNL1        0.0437
      9 O          -8.8839  -17.0229   27.5485 O.2     1  UNL1       -0.2864
     10 C          -7.9750  -16.2208   26.6650 C.ar    1  UNL1        0.2017
     11 C          -6.7834  -15.5232   27.2508 C.ar    1  UNL1        0.0827
     12 C          -5.8745  -14.7211   26.3672 C.ar    1  UNL1        0.1828
     13 O          -6.1573  -14.6166   24.8979 O.2     1  UNL1       -0.4502
     14 C          -7.3490  -15.3142   24.3121 C.ar    1  UNL1        0.1484
     15 C          -7.6319  -15.2097   22.8427 C.ar    1  UNL1        0.0373
     16 C          -8.8236  -15.9073   22.2568 C.ar    1  UNL1       -0.0011
     17 C          -9.7324  -16.7094   23.1404 C.ar    1  UNL1       -0.0205
     18 C          -9.4496  -16.8139   24.6097 C.ar    1  UNL1        0.0020
     19 C          -8.2579  -16.1163   25.1956 C.ar    1  UNL1        0.0732
     20 C          -5.4199  -20.8279   20.2630 C.3     1  UNL1        0.0265
     21 C          -4.2264  -19.9200   20.3006 C.ar    1  UNL1       -0.0191
     22 C          -3.5572  -19.5076   19.0231 C.ar    1  UNL1       -0.0036
     23 C          -2.3637  -18.5998   19.0608 C.ar    1  UNL1        0.0094
     24 C          -1.8395  -18.1043   20.3759 C.ar    1  UNL1        0.0684
     25 BR         -0.6460  -17.1964   20.4135 Br      1  UNL1       -0.0458
     26 C          -2.5087  -18.5167   21.6534 C.ar    1  UNL1        0.1445
     27 C          -3.7022  -19.4245   21.6158 C.ar    1  UNL1        0.0331
     28 O          -1.9844  -18.0212   22.9686 O.3     1  UNL1       -0.4723
     29 C          -2.9327  -17.7415   24.0966 C.3     1  UNL1        0.2370
     30 C          -4.1958  -16.9736   23.8418 C.3     1  UNL1        0.1847
     31 O          -4.1636  -15.7373   22.9929 O.3     1  UNL1       -0.3784
     32 H          -3.6440  -15.0513   23.4404 H       1  UNL1        0.2106
@<TRIPOS>BOND
     1     9    10    2
     2    10    11   ar
     3    11    12   ar
     4    12    13   ar
     5    13    14   ar
     6    14    15   ar
     7    15    16   ar
     8    16    17   ar
     9    17     8    1
    10     8     7    1
    11     7     1    1
    12     1     2    1
    13     2     3    1
    14     3     4    1
    15     4    20    1
    16    20    21    1
    17    21    22   ar
    18    22    23   ar
    19    23    24   ar
    20    24    25    1
    21    24    26   ar
    22    26    28    1
    23    28    29    1
    24    29    30    1
    25    30    31    1
    26    26    27   ar
    27     4     5    1
    28     5     6    1
    29    17    18   ar
    30    18    19   ar
    31    19    10   ar
    32    19    14   ar
    33     6     1    1
    34    27    21   ar
    35    31    32    1
@<TRIPOS>MOLECULE
*****
 32 35 0 0 0
SMALL
GASTEIGER

@<TRIPOS>ATOM
      1 N          -9.6592  -19.3653   20.5848 N.3     1  UNL1       -0.2724
      2 C          -9.0471  -19.5928   19.2344 C.3     1  UNL1        0.0721
      3 C          -7.6218  -20.0472   19.1238 C.3     1  UNL1        0.0177
      4 C          -6.8086  -20.2740   20.3637 C.3     1  UNL1        0.0071
      5 C          -7.4207  -20.0465   21.7141 C.3     1  UNL1        0.0177
      6 C          -8.8460  -19.5922   21.8247 C.3     1  UNL1        0.0721
      7 C         -11.0844  -18.9110   20.6953 C.3     1  UNL1        0.0768
      8 C         -11.4501  -17.8145   21.6514 C.3     1  UNL1        0.0437
      9 O          -7.9925  -14.4229   24.0583 O.2     1  UNL1       -0.2864
     10 C          -8.3041  -15.4862   25.0694 C.ar    1  UNL1        0.2017
     11 C          -7.6735  -15.4358   26.4294 C.ar    1  UNL1        0.0827
     12 C          -7.9851  -16.4991   27.4405 C.ar    1  UNL1        0.1828
     13 O          -8.9274  -17.6128   27.0916 O.2     1  UNL1       -0.4502
     14 C          -9.5580  -17.6632   25.7316 C.ar    1  UNL1        0.1484
     15 C         -10.5003  -18.7769   25.3826 C.ar    1  UNL1        0.0373
     16 C         -11.1310  -18.8273   24.0226 C.ar    1  UNL1       -0.0011
     17 C         -10.8194  -17.7641   23.0115 C.ar    1  UNL1       -0.0205
     18 C          -9.8771  -16.6504   23.3604 C.ar    1  UNL1        0.0020
     19 C          -9.2464  -16.5999   24.7205 C.ar    1  UNL1        0.0732
     20 C          -5.3834  -20.7283   20.2532 C.3     1  UNL1        0.0265
     21 C          -4.2691  -19.7268   20.3259 C.ar    1  UNL1       -0.0191
     22 C          -3.3250  -19.5701   19.1709 C.ar    1  UNL1       -0.0036
     23 C          -2.2108  -18.5685   19.2435 C.ar    1  UNL1        0.0094
     24 C          -2.0406  -17.7236   20.4712 C.ar    1  UNL1        0.0684
     25 BR         -0.9264  -16.7220   20.5438 Br      1  UNL1       -0.0458
     26 C          -2.9847  -17.8803   21.6262 C.ar    1  UNL1        0.1445
     27 C          -4.0990  -18.8819   21.5535 C.ar    1  UNL1        0.0331
     28 O          -2.8146  -17.0354   22.8539 O.3     1  UNL1       -0.4723
     29 C          -3.8483  -17.0742   23.9402 C.3     1  UNL1        0.2370
     30 C          -5.1077  -16.2705   23.8062 C.3     1  UNL1        0.1847
     31 O          -5.0419  -14.8441   23.3469 O.3     1  UNL1       -0.3784
     32 H          -4.5793  -14.3111   24.0124 H       1  UNL1        0.2106
@<TRIPOS>BOND
     1     9    10    2
     2    10    11   ar
     3    11    12   ar
     4    12    13   ar
     5    13    14   ar
     6    14    15   ar
     7    15    16   ar
     8    16    17   ar
     9    17     8    1
    10     8     7    1
    11     7     1    1
    12     1     2    1
    13     2     3    1
    14     3     4    1
    15     4    20    1
    16    20    21    1
    17    21    22   ar
    18    22    23   ar
    19    23    24   ar
    20    24    25    1
    21    24    26   ar
    22    26    28    1
    23    28    29    1
    24    29    30    1
    25    30    31    1
    26    26    27   ar
    27     4     5    1
    28     5     6    1
    29    17    18   ar
    30    18    19   ar
    31    19    10   ar
    32    19    14   ar
    33     6     1    1
    34    27    21   ar
    35    31    32    1
@<TRIPOS>MOLECULE
*****
 32 35 0 0 0
SMALL
GASTEIGER

@<TRIPOS>ATOM
      1 N          -6.6485  -15.7664   25.6662 N.3     1  UNL1       -0.2724
      2 C          -5.6486  -16.3817   26.5997 C.3     1  UNL1        0.0721
      3 C          -4.3801  -16.9708   26.0578 C.3     1  UNL1        0.0177
      4 C          -4.1115  -16.9447   24.5822 C.3     1  UNL1        0.0071
      5 C          -5.1114  -16.3294   23.6486 C.3     1  UNL1        0.0177
      6 C          -6.3800  -15.7402   24.1907 C.3     1  UNL1        0.0721
      7 C          -7.9170  -15.1772   26.2081 C.3     1  UNL1        0.0768
      8 C          -9.1640  -15.1858   25.3745 C.3     1  UNL1        0.0437
      9 O         -10.5430  -16.0278   20.2132 O.2     1  UNL1       -0.2864
     10 C         -10.5674  -17.3736   20.8752 C.ar    1  UNL1        0.2017
     11 C         -10.9304  -18.5935   20.0814 C.ar    1  UNL1        0.0827
     12 C         -10.9548  -19.9393   20.7434 C.ar    1  UNL1        0.1828
     13 O         -10.6162  -20.0652   22.1992 O.2     1  UNL1       -0.4502
     14 C         -10.2532  -18.8454   22.9930 C.ar    1  UNL1        0.1484
     15 C          -9.9145  -18.9713   24.4489 C.ar    1  UNL1        0.0373
     16 C          -9.5515  -17.7515   25.2427 C.ar    1  UNL1       -0.0011
     17 C          -9.5271  -16.4057   24.5807 C.ar    1  UNL1       -0.0205
     18 C          -9.8657  -16.2797   23.1249 C.ar    1  UNL1        0.0020
     19 C         -10.2288  -17.4996   22.3310 C.ar    1  UNL1        0.0732
     20 C          -2.8430  -17.5339   24.0402 C.3     1  UNL1        0.0265
     21 C          -2.6364  -17.6352   22.5580 C.ar    1  UNL1       -0.0191
     22 C          -1.7942  -16.6180   21.8468 C.ar    1  UNL1       -0.0036
     23 C          -1.5876  -16.7193   20.3646 C.ar    1  UNL1        0.0094
     24 C          -2.2234  -17.8378   19.5935 C.ar    1  UNL1        0.0684
     25 BR         -2.0168  -17.9392   18.1112 Br      1  UNL1       -0.0458
     26 C          -3.0656  -18.8551   20.3046 C.ar    1  UNL1        0.1445
     27 C          -3.2722  -18.7538   21.7869 C.ar    1  UNL1        0.0331
     28 O          -3.7014  -19.9737   19.5335 O.3     1  UNL1       -0.4723
     29 C          -4.9012  -20.6812   20.0901 C.3     1  UNL1        0.2370
     30 C          -6.2049  -19.9520   20.2281 C.3     1  UNL1        0.1847
     31 O          -6.3198  -18.5281   19.7708 O.3     1  UNL1       -0.3784
     32 H          -5.7587  -17.9640   20.3257 H       1  UNL1        0.2106
@<TRIPOS>BOND
     1     9    10    2
     2    10    11   ar
     3    11    12   ar
     4    12    13   ar
     5    13    14   ar
     6    14    15   ar
     7    15    16   ar
     8    16    17   ar
     9    17     8    1
    10     8     7    1
    11     7     1    1
    12     1     2    1
    13     2     3    1
    14     3     4    1
    15     4    20    1
    16    20    21    1
    17    21    22   ar
    18    22    23   ar
    19    23    24   ar
    20    24    25    1
    21    24    26   ar
    22    26    28    1
    23    28    29    1
    24    29    30    1
    25    30    31    1
    26    26    27   ar
    27     4     5    1
    28     5     6    1
    29    17    18   ar
    30    18    19   ar
    31    19    10   ar
    32    19    14   ar
    33     6     1    1
    34    27    21   ar
    35    31    32    1
@<TRIPOS>MOLECULE
*****
 32 35 0 0 0
SMALL
GASTEIGER

@<TRIPOS>ATOM
      1 N          -4.3446  -19.2424   21.3282 N.3     1  UNL1       -0.2724
      2 C          -4.8071  -18.8368   19.9601 C.3     1  UNL1        0.0721
      3 C          -6.2197  -19.1081   19.5349 C.3     1  UNL1        0.0177
      4 C          -7.1699  -19.7851   20.4778 C.3     1  UNL1        0.0071
      5 C          -6.7074  -20.1906   21.8459 C.3     1  UNL1        0.0177
      6 C          -5.2947  -19.9192   22.2711 C.3     1  UNL1        0.0721
      7 C          -2.9319  -18.9710   21.7534 C.3     1  UNL1        0.0768
      8 C          -2.6189  -17.7661   22.5902 C.3     1  UNL1        0.0437
      9 O          -7.4051  -15.2580   22.3632 O.2     1  UNL1       -0.2864
     10 C          -7.1146  -15.4690   23.8196 C.ar    1  UNL1        0.2017
     11 C          -8.0933  -15.0002   24.8552 C.ar    1  UNL1        0.0827
     12 C          -7.8028  -15.2112   26.3116 C.ar    1  UNL1        0.1828
     13 O          -6.5337  -15.8910   26.7325 O.2     1  UNL1       -0.4502
     14 C          -5.5550  -16.3597   25.6969 C.ar    1  UNL1        0.1484
     15 C          -4.2858  -17.0395   26.1177 C.ar    1  UNL1        0.0373
     16 C          -3.3071  -17.5083   25.0822 C.ar    1  UNL1       -0.0011
     17 C          -3.5976  -17.2973   23.6258 C.ar    1  UNL1       -0.0205
     18 C          -4.8667  -16.6176   23.2049 C.ar    1  UNL1        0.0020
     19 C          -5.8455  -16.1488   24.2405 C.ar    1  UNL1        0.0732
     20 C          -8.5825  -20.0564   20.0526 C.3     1  UNL1        0.0265
     21 C          -9.7245  -19.4558   20.8176 C.ar    1  UNL1       -0.0191
     22 C         -10.0837  -19.9909   22.1720 C.ar    1  UNL1       -0.0036
     23 C         -11.2257  -19.3903   22.9370 C.ar    1  UNL1        0.0094
     24 C         -12.0085  -18.2547   22.3475 C.ar    1  UNL1        0.0684
     25 BR        -13.1505  -17.6542   23.1124 Br      1  UNL1       -0.0458
     26 C         -11.6493  -17.7197   20.9930 C.ar    1  UNL1        0.1445
     27 C         -10.5073  -18.3202   20.2280 C.ar    1  UNL1        0.0331
     28 O         -12.4321  -16.5840   20.4034 O.3     1  UNL1       -0.4723
     29 C         -11.8479  -15.7703   19.2870 C.3     1  UNL1        0.2370
     30 C         -10.5661  -15.0199   19.4969 C.3     1  UNL1        0.1847
     31 O          -9.8985  -15.0369   20.8400 O.3     1  UNL1       -0.3784
     32 H         -10.4607  -14.5818   21.4863 H       1  UNL1        0.2106
@<TRIPOS>BOND
     1     9    10    2
     2    10    11   ar
     3    11    12   ar
     4    12    13   ar
     5    13    14   ar
     6    14    15   ar
     7    15    16   ar
     8    16    17   ar
     9    17     8    1
    10     8     7    1
    11     7     1    1
    12     1     2    1
    13     2     3    1
    14     3     4    1
    15     4    20    1
    16    20    21    1
    17    21    22   ar
    18    22    23   ar
    19    23    24   ar
    20    24    25    1
    21    24    26   ar
    22    26    28    1
    23    28    29    1
    24    29    30    1
    25    30    31    1
    26    26    27   ar
    27     4     5    1
    28     5     6    1
    29    17    18   ar
    30    18    19   ar
    31    19    10   ar
    32    19    14   ar
    33     6     1    1
    34    27    21   ar
    35    31    32    1
@<TRIPOS>MOLECULE
*****
 32 35 0 0 0
SMALL
GASTEIGER

@<TRIPOS>ATOM
      1 N          -3.8356  -19.2136   21.5603 N.3     1  UNL1       -0.2724
      2 C          -4.1210  -18.7279   20.1701 C.3     1  UNL1        0.0721
      3 C          -5.4485  -19.0144   19.5334 C.3     1  UNL1        0.0177
      4 C          -6.4907  -19.7866   20.2868 C.3     1  UNL1        0.0071
      5 C          -6.2053  -20.2723   21.6770 C.3     1  UNL1        0.0177
      6 C          -4.8777  -19.9858   22.3137 C.3     1  UNL1        0.0721
      7 C          -2.5080  -18.9272   22.1971 C.3     1  UNL1        0.0768
      8 C          -2.3272  -17.6943   23.0322 C.3     1  UNL1        0.0437
      9 O          -7.0523  -15.1412   22.3953 O.2     1  UNL1       -0.2864
     10 C          -6.9220  -15.4149   23.8643 C.ar    1  UNL1        0.2017
     11 C          -8.0056  -14.9820   24.8069 C.ar    1  UNL1        0.0827
     12 C          -7.8753  -15.2557   26.2759 C.ar    1  UNL1        0.1828
     13 O          -6.6615  -15.9624   26.8024 O.2     1  UNL1       -0.4502
     14 C          -5.5780  -16.3954   25.8599 C.ar    1  UNL1        0.1484
     15 C          -4.3641  -17.1021   26.3864 C.ar    1  UNL1        0.0373
     16 C          -3.2806  -17.5351   25.4438 C.ar    1  UNL1       -0.0011
     17 C          -3.4108  -17.2613   23.9748 C.ar    1  UNL1       -0.0205
     18 C          -4.6246  -16.5546   23.4483 C.ar    1  UNL1        0.0020
     19 C          -5.7082  -16.1216   24.3908 C.ar    1  UNL1        0.0732
     20 C          -7.8183  -20.0731   19.6500 C.3     1  UNL1        0.0265
     21 C          -9.0572  -19.4019   20.1643 C.ar    1  UNL1       -0.0191
     22 C         -10.3316  -19.4745   19.3765 C.ar    1  UNL1       -0.0036
     23 C         -11.5705  -18.8033   19.8908 C.ar    1  UNL1        0.0094
     24 C         -11.5351  -18.0595   21.1929 C.ar    1  UNL1        0.0684
     25 BR        -12.7741  -17.3883   21.7071 Br      1  UNL1       -0.0458
     26 C         -10.2608  -17.9869   21.9806 C.ar    1  UNL1        0.1445
     27 C          -9.0218  -18.6581   21.4664 C.ar    1  UNL1        0.0331
     28 O         -10.2253  -17.2431   23.2828 O.3     1  UNL1       -0.4723
     29 C         -10.1125  -17.9972   24.5745 C.3     1  UNL1        0.2370
     30 C         -10.8038  -19.3189   24.7342 C.3     1  UNL1        0.1847
     31 O         -10.1083  -20.4495   25.4326 O.3     1  UNL1       -0.3784
     32 H          -9.3412  -20.7298   24.9092 H       1  UNL1        0.2106
@<TRIPOS>BOND
     1     9    10    2
     2    10    11   ar
     3    11    12   ar
     4    12    13   ar
     5    13    14   ar
     6    14    15   ar
     7    15    16   ar
     8    16    17   ar
     9    17     8    1
    10     8     7    1
    11     7     1    1
    12     1     2    1
    13     2     3    1
    14     3     4    1
    15     4    20    1
    16    20    21    1
    17    21    22   ar
    18    22    23   ar
    19    23    24   ar
    20    24    25    1
    21    24    26   ar
    22    26    28    1
    23    28    29    1
    24    29    30    1
    25    30    31    1
    26    26    27   ar
    27     4     5    1
    28     5     6    1
    29    17    18   ar
    30    18    19   ar
    31    19    10   ar
    32    19    14   ar
    33     6     1    1
    34    27    21   ar
    35    31    32    1
@<TRIPOS>MOLECULE
*****
 32 35 0 0 0
SMALL
GASTEIGER

@<TRIPOS>ATOM
      1 N           5.5967   -4.0034   20.6206 N.3     1  UNL1       -0.2724
      2 C           4.7974   -3.8795   21.8838 C.3     1  UNL1        0.0721
      3 C           5.4922   -3.8703   23.2131 C.3     1  UNL1        0.0177
      4 C           6.9863   -3.9851   23.2793 C.3     1  UNL1        0.0071
      5 C           7.7857   -4.1091   22.0161 C.3     1  UNL1        0.0177
      6 C           7.0908   -4.1182   20.6867 C.3     1  UNL1        0.0721
      7 C           4.9019   -4.0126   19.2913 C.3     1  UNL1        0.0768
      8 C           3.5227   -3.4372   19.1619 C.3     1  UNL1        0.0437
      9 O          -0.1512    0.1895   20.7742 O.2     1  UNL1       -0.2864
     10 C           0.8330    0.9421   19.9287 C.ar    1  UNL1        0.2017
     11 C           0.6528    2.4132   19.6976 C.ar    1  UNL1        0.0827
     12 C           1.6370    3.1657   18.8521 C.ar    1  UNL1        0.1828
     13 O           2.8016    2.4472   18.2376 O.2     1  UNL1       -0.4502
     14 C           2.9818    0.9761   18.4687 C.ar    1  UNL1        0.1484
     15 C           4.1464    0.2575   17.8542 C.ar    1  UNL1        0.0373
     16 C           4.3266   -1.2135   18.0853 C.ar    1  UNL1       -0.0011
     17 C           3.3424   -1.9661   18.9308 C.ar    1  UNL1       -0.0205
     18 C           2.1779   -1.2476   19.5453 C.ar    1  UNL1        0.0020
     19 C           1.9976    0.2236   19.3142 C.ar    1  UNL1        0.0732
     20 C           7.6811   -3.9759   24.6086 C.3     1  UNL1        0.0265
     21 C           7.8550   -5.2549   25.3729 C.ar    1  UNL1       -0.0191
     22 C           8.0218   -6.5514   24.6372 C.ar    1  UNL1       -0.0036
     23 C           8.1957   -7.8304   25.4015 C.ar    1  UNL1        0.0094
     24 C           8.2027   -7.8128   26.9013 C.ar    1  UNL1        0.0684
     25 BR          8.3765   -9.0918   27.6656 Br      1  UNL1       -0.0458
     26 C           8.0358   -6.5163   27.6369 C.ar    1  UNL1        0.1445
     27 C           7.8620   -5.2373   26.8727 C.ar    1  UNL1        0.0331
     28 O           8.0428   -6.4987   29.1369 O.3     1  UNL1       -0.4723
     29 C           6.9540   -5.7869   29.8836 C.3     1  UNL1        0.2370
     30 C           7.2526   -5.1284   31.1979 C.3     1  UNL1        0.1847
     31 O           6.4521   -5.4860   32.4150 O.3     1  UNL1       -0.3784
     32 H           5.5338   -5.1979   32.2941 H       1  UNL1        0.2106
@<TRIPOS>BOND
     1     9    10    2
     2    10    11   ar
     3    11    12   ar
     4    12    13   ar
     5    13    14   ar
     6    14    15   ar
     7    15    16   ar
     8    16    17   ar
     9    17     8    1
    10     8     7    1
    11     7     1    1
    12     1     2    1
    13     2     3    1
    14     3     4    1
    15     4    20    1
    16    20    21    1
    17    21    22   ar
    18    22    23   ar
    19    23    24   ar
    20    24    25    1
    21    24    26   ar
    22    26    28    1
    23    28    29    1
    24    29    30    1
    25    30    31    1
    26    26    27   ar
    27     4     5    1
    28     5     6    1
    29    17    18   ar
    30    18    19   ar
    31    19    10   ar
    32    19    14   ar
    33     6     1    1
    34    27    21   ar
    35    31    32    1
@<TRIPOS>MOLECULE
*****
 32 35 0 0 0
SMALL
GASTEIGER

@<TRIPOS>ATOM
      1 N          -5.8992  -15.7246   26.2197 N.3     1  UNL1       -0.2724
      2 C          -5.9533  -15.0092   24.9024 C.3     1  UNL1        0.0721
      3 C          -4.9715  -15.3525   23.8216 C.3     1  UNL1        0.0177
      4 C          -3.9356  -16.4114   24.0581 C.3     1  UNL1        0.0071
      5 C          -3.8815  -17.1268   25.3754 C.3     1  UNL1        0.0177
      6 C          -4.8634  -16.7833   26.4562 C.3     1  UNL1        0.0721
      7 C          -6.8810  -15.3812   27.3005 C.3     1  UNL1        0.0768
      8 C          -8.2112  -16.0723   27.3526 C.3     1  UNL1        0.0437
      9 O          -9.9176  -20.8190   25.4013 O.2     1  UNL1       -0.2864
     10 C         -10.2525  -19.7954   24.3573 C.ar    1  UNL1        0.2017
     11 C         -10.9303  -20.2143   23.0864 C.ar    1  UNL1        0.0827
     12 C         -11.2652  -19.1907   22.0424 C.ar    1  UNL1        0.1828
     13 O         -10.9223  -17.7482   22.2691 O.2     1  UNL1       -0.4502
     14 C         -10.2446  -17.3292   23.5400 C.ar    1  UNL1        0.1484
     15 C          -9.9017  -15.8866   23.7668 C.ar    1  UNL1        0.0373
     16 C          -9.2239  -15.4677   25.0377 C.ar    1  UNL1       -0.0011
     17 C          -8.8890  -16.4913   26.0817 C.ar    1  UNL1       -0.0205
     18 C          -9.2319  -17.9339   25.8549 C.ar    1  UNL1        0.0020
     19 C          -9.9097  -18.3529   24.5840 C.ar    1  UNL1        0.0732
     20 C          -2.9539  -16.7548   22.9773 C.3     1  UNL1        0.0265
     21 C          -3.2197  -17.9139   22.0631 C.ar    1  UNL1       -0.0191
     22 C          -2.2112  -18.2928   21.0195 C.ar    1  UNL1       -0.0036
     23 C          -2.4771  -19.4520   20.1054 C.ar    1  UNL1        0.0094
     24 C          -3.7515  -20.2323   20.2349 C.ar    1  UNL1        0.0684
     25 BR         -4.0174  -21.3914   19.3208 Br      1  UNL1       -0.0458
     26 C          -4.7601  -19.8534   21.2785 C.ar    1  UNL1        0.1445
     27 C          -4.4942  -18.6942   22.1926 C.ar    1  UNL1        0.0331
     28 O          -6.0346  -20.6337   21.4081 O.3     1  UNL1       -0.4723
     29 C          -7.2867  -19.9528   21.8754 C.3     1  UNL1        0.2370
     30 C          -7.9671  -18.9471   20.9946 C.3     1  UNL1        0.1847
     31 O          -7.5579  -17.5049   21.0480 O.3     1  UNL1       -0.3784
     32 H          -7.7819  -17.1373   21.9172 H       1  UNL1        0.2106
@<TRIPOS>BOND
     1     9    10    2
     2    10    11   ar
     3    11    12   ar
     4    12    13   ar
     5    13    14   ar
     6    14    15   ar
     7    15    16   ar
     8    16    17   ar
     9    17     8    1
    10     8     7    1
    11     7     1    1
    12     1     2    1
    13     2     3    1
    14     3     4    1
    15     4    20    1
    16    20    21    1
    17    21    22   ar
    18    22    23   ar
    19    23    24   ar
    20    24    25    1
    21    24    26   ar
    22    26    28    1
    23    28    29    1
    24    29    30    1
    25    30    31    1
    26    26    27   ar
    27     4     5    1
    28     5     6    1
    29    17    18   ar
    30    18    19   ar
    31    19    10   ar
    32    19    14   ar
    33     6     1    1
    34    27    21   ar
    35    31    32    1
@<TRIPOS>MOLECULE
*****
 32 35 0 0 0
SMALL
GASTEIGER

@<TRIPOS>ATOM
      1 N           5.5920   -3.9706   20.6060 N.3     1  UNL1       -0.2724
      2 C           4.8076   -3.8140   21.8749 C.3     1  UNL1        0.0721
      3 C           5.5145   -3.8092   23.1978 C.3     1  UNL1        0.0177
      4 C           7.0058   -3.9610   23.2519 C.3     1  UNL1        0.0071
      5 C           7.7903   -4.1176   21.9830 C.3     1  UNL1        0.0177
      6 C           7.0833   -4.1224   20.6600 C.3     1  UNL1        0.0721
      7 C           4.8851   -3.9754   19.2830 C.3     1  UNL1        0.0768
      8 C           3.6106   -3.2035   19.1108 C.3     1  UNL1        0.0437
      9 O           7.0262    0.2260   16.6978 O.2     1  UNL1       -0.2864
     10 C           5.9429    1.0717   17.2987 C.ar    1  UNL1        0.2017
     11 C           5.9843    2.5633   17.1462 C.ar    1  UNL1        0.0827
     12 C           4.9009    3.4090   17.7472 C.ar    1  UNL1        0.1828
     13 O           3.7762    2.7632   18.5007 O.2     1  UNL1       -0.4502
     14 C           3.7348    1.2715   18.6532 C.ar    1  UNL1        0.1484
     15 C           2.6101    0.6256   19.4067 C.ar    1  UNL1        0.0373
     16 C           2.5687   -0.8661   19.5592 C.ar    1  UNL1       -0.0011
     17 C           3.6520   -1.7118   18.9583 C.ar    1  UNL1       -0.0205
     18 C           4.7767   -1.0659   18.2048 C.ar    1  UNL1        0.0020
     19 C           4.8182    0.4258   18.0522 C.ar    1  UNL1        0.0732
     20 C           7.7127   -3.9562   24.5748 C.3     1  UNL1        0.0265
     21 C           7.9070   -5.2399   25.3261 C.ar    1  UNL1       -0.0191
     22 C           7.9009   -6.5473   24.5910 C.ar    1  UNL1       -0.0036
     23 C           8.0952   -7.8310   25.3423 C.ar    1  UNL1        0.0094
     24 C           8.2955   -7.8073   26.8286 C.ar    1  UNL1        0.0684
     25 BR          8.4898   -9.0910   27.5798 Br      1  UNL1       -0.0458
     26 C           8.3016   -6.4998   27.5637 C.ar    1  UNL1        0.1445
     27 C           8.1073   -5.2161   26.8124 C.ar    1  UNL1        0.0331
     28 O           8.5019   -6.4760   29.0501 O.3     1  UNL1       -0.4723
     29 C           7.5294   -5.7436   29.9263 C.3     1  UNL1        0.2370
     30 C           7.6707   -5.8051   31.4184 C.3     1  UNL1        0.1847
     31 O           6.4973   -6.1953   32.2674 O.3     1  UNL1       -0.3784
     32 H           5.8077   -5.5167   32.1975 H       1  UNL1        0.2106
@<TRIPOS>BOND
     1     9    10    2
     2    10    11   ar
     3    11    12   ar
     4    12    13   ar
     5    13    14   ar
     6    14    15   ar
     7    15    16   ar
     8    16    17   ar
     9    17     8    1
    10     8     7    1
    11     7     1    1
    12     1     2    1
    13     2     3    1
    14     3     4    1
    15     4    20    1
    16    20    21    1
    17    21    22   ar
    18    22    23   ar
    19    23    24   ar
    20    24    25    1
    21    24    26   ar
    22    26    28    1
    23    28    29    1
    24    29    30    1
    25    30    31    1
    26    26    27   ar
    27     4     5    1
    28     5     6    1
    29    17    18   ar
    30    18    19   ar
    31    19    10   ar
    32    19    14   ar
    33     6     1    1
    34    27    21   ar
    35    31    32    1
@<TRIPOS>MOLECULE
*****
 32 35 0 0 0
SMALL
GASTEIGER

@<TRIPOS>ATOM
      1 N           2.7993    1.0663   18.2618 N.3     1  UNL1       -0.2724
      2 C           1.3246    0.7919   18.2616 C.3     1  UNL1        0.0721
      3 C           0.3552    1.9025   18.5385 C.3     1  UNL1        0.0177
      4 C           0.8604    3.2875   18.8156 C.3     1  UNL1        0.0071
      5 C           2.3351    3.5618   18.8158 C.3     1  UNL1        0.0177
      6 C           3.3046    2.4511   18.5389 C.3     1  UNL1        0.0721
      7 C           3.7688   -0.0443   17.9850 C.3     1  UNL1        0.0768
      8 C           3.5110   -1.4181   18.5293 C.3     1  UNL1        0.0437
      9 O           7.2910   -4.5573   20.7894 O.2     1  UNL1       -0.2864
     10 C           6.5239   -3.9468   21.9247 C.ar    1  UNL1        0.2017
     11 C           6.8936   -4.2738   23.3411 C.ar    1  UNL1        0.0827
     12 C           6.1265   -3.6633   24.4765 C.ar    1  UNL1        0.1828
     13 O           4.9898   -2.7259   24.1953 O.2     1  UNL1       -0.4502
     14 C           4.6201   -2.3990   22.7789 C.ar    1  UNL1        0.1484
     15 C           3.4833   -1.4616   22.4976 C.ar    1  UNL1        0.0373
     16 C           3.1137   -1.1346   21.0812 C.ar    1  UNL1       -0.0011
     17 C           3.8807   -1.7451   19.9459 C.ar    1  UNL1       -0.0205
     18 C           5.0175   -2.6824   20.2270 C.ar    1  UNL1        0.0020
     19 C           5.3872   -3.0094   21.6435 C.ar    1  UNL1        0.0732
     20 C          -0.1091    4.3980   19.0924 C.3     1  UNL1        0.0265
     21 C          -1.5850    4.1432   19.0100 C.ar    1  UNL1       -0.0191
     22 C          -2.2994    4.2900   17.6993 C.ar    1  UNL1       -0.0036
     23 C          -3.7753    4.0351   17.6169 C.ar    1  UNL1        0.0094
     24 C          -4.5368    3.6335   18.8452 C.ar    1  UNL1        0.0684
     25 BR         -6.0127    3.3786   18.7628 Br      1  UNL1       -0.0458
     26 C          -3.8224    3.4867   20.1559 C.ar    1  UNL1        0.1445
     27 C          -2.3465    3.7415   20.2383 C.ar    1  UNL1        0.0331
     28 O          -4.5839    3.0850   21.3843 O.3     1  UNL1       -0.4723
     29 C          -5.1909    4.1348   22.2671 C.3     1  UNL1        0.2370
     30 C          -6.6355    4.0408   22.6600 C.3     1  UNL1        0.1847
     31 O          -7.6627    4.8669   21.9442 O.3     1  UNL1       -0.3784
     32 H          -7.5058    5.8067   22.1262 H       1  UNL1        0.2106
@<TRIPOS>BOND
     1     9    10    2
     2    10    11   ar
     3    11    12   ar
     4    12    13   ar
     5    13    14   ar
     6    14    15   ar
     7    15    16   ar
     8    16    17   ar
     9    17     8    1
    10     8     7    1
    11     7     1    1
    12     1     2    1
    13     2     3    1
    14     3     4    1
    15     4    20    1
    16    20    21    1
    17    21    22   ar
    18    22    23   ar
    19    23    24   ar
    20    24    25    1
    21    24    26   ar
    22    26    28    1
    23    28    29    1
    24    29    30    1
    25    30    31    1
    26    26    27   ar
    27     4     5    1
    28     5     6    1
    29    17    18   ar
    30    18    19   ar
    31    19    10   ar
    32    19    14   ar
    33     6     1    1
    34    27    21   ar
    35    31    32    1
