@<TRIPOS>MOLECULE
*****
 31 34 0 0 0
SMALL
GASTEIGER

@<TRIPOS>ATOM
      1 C          -1.4691    3.1629   25.4031 C.ar    1  UNL1        0.1388
      2 C          -0.4272    2.0862   25.3319 C.ar    1  UNL1        0.0384
      3 C           0.1237    1.6624   24.0026 C.ar    1  UNL1        0.0221
      4 C          -0.3672    2.3153   22.7446 C.ar    1  UNL1        0.0825
      5 C          -1.4091    3.3920   22.8158 C.ar    1  UNL1        0.0194
      6 C          -1.9600    3.8158   24.1451 C.ar    1  UNL1        0.0382
      7 C          -1.6982    3.8506   21.4172 C.ar    1  UNL1        0.0144
      8 C          -0.8349    3.0573   20.4816 C.ar    1  UNL1        0.0970
      9 N          -0.0123    2.1084   21.3020 N.ar    1  UNL1       -0.2080
     10 S           0.9893    1.1252   20.7727 S.O2    1  UNL1        0.0860
     11 O          -0.1121    0.1385   20.5213 O.2     1  UNL1       -0.1476
     12 O           2.0907    2.1120   21.0240 O.2     1  UNL1       -0.1476
     13 C           1.9910    0.1421   20.2434 C.ar    1  UNL1        0.1277
     14 C           2.4663    0.2458   18.8245 C.ar    1  UNL1        0.0201
     15 C           3.4680   -0.7373   18.2952 C.ar    1  UNL1       -0.0029
     16 C           3.9943   -1.8242   19.1849 C.ar    1  UNL1       -0.0224
     17 C           3.5190   -1.9280   20.6039 C.ar    1  UNL1       -0.0029
     18 C           2.5174   -0.9448   21.1331 C.ar    1  UNL1        0.0201
     19 C           4.9960   -2.8074   18.6557 C.3     1  UNL1        0.0224
     20 C           6.2869   -2.3198   18.0675 C.3     1  UNL1        0.0047
     21 C           4.7068   -4.2780   18.7147 C.3     1  UNL1        0.0047
     22 C          -3.4281    4.0938   26.8334 C.3     1  UNL1        0.2525
     23 O          -2.0200    3.5867   26.7323 O.3     1  UNL1       -0.4714
     24 C          -2.6784    4.9155   21.0233 C.3     1  UNL1        0.1008
     25 N          -3.9996    5.0158   21.7264 N.3     1  UNL1       -0.2665
     26 C          -4.9809    3.8844   21.6439 C.3     1  UNL1        0.0899
     27 C          -6.3021    3.9846   22.3469 C.3     1  UNL1        0.0897
     28 N          -6.6421    5.2164   23.1326 N.3     1  UNL1       -0.2691
     29 C          -7.9633    5.3167   23.8357 C.3     1  UNL1        0.0897
     30 C          -5.6607    6.3479   23.2151 C.3     1  UNL1        0.0897
     31 C          -4.3394    6.2476   22.5120 C.3     1  UNL1        0.0899
@<TRIPOS>BOND
     1    22    23    1
     2    23     1    1
     3     1     2   ar
     4     2     3   ar
     5     3     4   ar
     6     4     5   ar
     7     5     6   ar
     8     5     7   ar
     9     7    24    1
    10    24    25    1
    11    25    26    1
    12    26    27    1
    13    27    28    1
    14    28    29    1
    15    28    30    1
    16    30    31    1
    17     7     8   ar
    18     8     9   ar
    19     9    10    1
    20    10    11    2
    21    10    12    2
    22    10    13    1
    23    13    14   ar
    24    14    15   ar
    25    15    16   ar
    26    16    19    1
    27    19    20    1
    28    19    21    1
    29    16    17   ar
    30    17    18   ar
    31     6     1   ar
    32    31    25    1
    33    18    13   ar
    34     9     4   ar
@<TRIPOS>MOLECULE
*****
 31 34 0 0 0
SMALL
GASTEIGER

@<TRIPOS>ATOM
      1 C         -10.7986   -5.1829   18.1771 C.ar    1  UNL1        0.1388
      2 C         -10.7893   -3.8798   18.9200 C.ar    1  UNL1        0.0384
      3 C         -12.0213   -3.0246   18.9496 C.ar    1  UNL1        0.0221
      4 C         -13.2625   -3.4724   18.2364 C.ar    1  UNL1        0.0825
      5 C         -13.2718   -4.7754   17.4935 C.ar    1  UNL1        0.0194
      6 C         -12.0398   -5.6307   17.4638 C.ar    1  UNL1        0.0382
      7 C         -14.6327   -4.9544   16.8885 C.ar    1  UNL1        0.0144
      8 C         -15.4645   -3.7620   17.2575 C.ar    1  UNL1        0.0970
      9 N         -14.6176   -2.8460   18.0905 N.ar    1  UNL1       -0.2080
     10 S         -15.0500   -1.5341   18.6751 S.O2    1  UNL1        0.0860
     11 O         -14.8045   -0.8650   17.3553 O.2     1  UNL1       -0.1476
     12 O         -15.2955   -2.2031   19.9950 O.2     1  UNL1       -0.1476
     13 C         -15.4824   -0.2221   19.2598 C.ar    1  UNL1        0.1277
     14 C         -14.8677    1.0558   18.7711 C.ar    1  UNL1        0.0201
     15 C         -15.3001    2.3678   19.3558 C.ar    1  UNL1       -0.0029
     16 C         -16.3473    2.4018   20.4292 C.ar    1  UNL1       -0.0224
     17 C         -16.9620    1.1238   20.9179 C.ar    1  UNL1       -0.0029
     18 C         -16.5296   -0.1881   20.3332 C.ar    1  UNL1        0.0201
     19 C         -16.7797    3.7137   21.0139 C.3     1  UNL1        0.0224
     20 C         -18.0679    4.3431   20.5729 C.3     1  UNL1        0.0047
     21 C         -15.9240    4.3961   22.0396 C.3     1  UNL1        0.0047
     22 C          -9.5798   -7.3946   18.7875 C.3     1  UNL1        0.2525
     23 O          -9.5667   -6.0381   18.1474 O.3     1  UNL1       -0.4714
     24 C         -15.0828   -6.1210   16.0600 C.3     1  UNL1        0.1008
     25 N         -15.5848   -7.3664   16.7285 N.3     1  UNL1       -0.2665
     26 C         -17.0598   -7.6132   16.8441 C.3     1  UNL1        0.0899
     27 C         -17.5619   -8.8585   17.5126 C.3     1  UNL1        0.0897
     28 N         -16.5889   -9.8573   18.0656 N.3     1  UNL1       -0.2691
     29 C         -17.0909  -11.1027   18.7341 C.3     1  UNL1        0.0897
     30 C         -15.1138   -9.6106   17.9499 C.3     1  UNL1        0.0897
     31 C         -14.6117   -8.3652   17.2814 C.3     1  UNL1        0.0899
@<TRIPOS>BOND
     1    22    23    1
     2    23     1    1
     3     1     2   ar
     4     2     3   ar
     5     3     4   ar
     6     4     5   ar
     7     5     6   ar
     8     5     7   ar
     9     7    24    1
    10    24    25    1
    11    25    26    1
    12    26    27    1
    13    27    28    1
    14    28    29    1
    15    28    30    1
    16    30    31    1
    17     7     8   ar
    18     8     9   ar
    19     9    10    1
    20    10    11    2
    21    10    12    2
    22    10    13    1
    23    13    14   ar
    24    14    15   ar
    25    15    16   ar
    26    16    19    1
    27    19    20    1
    28    19    21    1
    29    16    17   ar
    30    17    18   ar
    31     6     1   ar
    32    31    25    1
    33    18    13   ar
    34     9     4   ar
@<TRIPOS>MOLECULE
*****
 31 34 0 0 0
SMALL
GASTEIGER

@<TRIPOS>ATOM
      1 C          -2.3189    5.5604   17.3831 C.ar    1  UNL1        0.1388
      2 C          -1.4997    4.5225   16.6750 C.ar    1  UNL1        0.0384
      3 C          -0.6935    3.5353   17.4661 C.ar    1  UNL1        0.0221
      4 C          -0.7067    3.5861   18.9651 C.ar    1  UNL1        0.0825
      5 C          -1.5260    4.6241   19.6731 C.ar    1  UNL1        0.0194
      6 C          -2.3321    5.6112   18.8821 C.ar    1  UNL1        0.0382
      7 C          -1.3438    4.4307   21.1495 C.ar    1  UNL1        0.0144
      8 C          -0.4119    3.2733   21.3538 C.ar    1  UNL1        0.0970
      9 N          -0.0181    2.7513   20.0038 N.ar    1  UNL1       -0.2080
     10 S           0.9025    1.5971   19.7390 S.O2    1  UNL1        0.0860
     11 O          -0.1530    0.6452   20.2183 O.2     1  UNL1       -0.1476
     12 O           1.9580    2.5490   19.2596 O.2     1  UNL1       -0.1476
     13 C           1.8233    0.4428   19.4741 C.ar    1  UNL1        0.1277
     14 C           1.9071   -0.6899   20.4537 C.ar    1  UNL1        0.0201
     15 C           2.8278   -1.8441   20.1888 C.ar    1  UNL1       -0.0029
     16 C           3.6647   -1.8655   18.9442 C.ar    1  UNL1       -0.0224
     17 C           3.5809   -0.7327   17.9645 C.ar    1  UNL1       -0.0029
     18 C           2.6602    0.4215   18.2295 C.ar    1  UNL1        0.0201
     19 C           4.5855   -3.0196   18.6793 C.3     1  UNL1        0.0224
     20 C           4.1208   -4.4232   18.9325 C.3     1  UNL1        0.0047
     21 C           5.9709   -2.7702   18.1612 C.3     1  UNL1        0.0047
     22 C          -4.6078    6.3666   16.4550 C.3     1  UNL1        0.2525
     23 O          -3.1251    6.5476   16.5921 O.3     1  UNL1       -0.4714
     24 C          -1.9815    5.2509   22.2315 C.3     1  UNL1        0.1008
     25 N          -3.4298    5.0527   22.5678 N.3     1  UNL1       -0.2665
     26 C          -4.0989    3.7456   22.2615 C.3     1  UNL1        0.0899
     27 C          -5.5471    3.5473   22.5978 C.3     1  UNL1        0.0897
     28 N          -6.3265    4.6562   23.2405 N.3     1  UNL1       -0.2691
     29 C          -7.7748    4.4580   23.5768 C.3     1  UNL1        0.0897
     30 C          -5.6574    5.9634   23.5468 C.3     1  UNL1        0.0897
     31 C          -4.2091    6.1616   23.2105 C.3     1  UNL1        0.0899
@<TRIPOS>BOND
     1    22    23    1
     2    23     1    1
     3     1     2   ar
     4     2     3   ar
     5     3     4   ar
     6     4     5   ar
     7     5     6   ar
     8     5     7   ar
     9     7    24    1
    10    24    25    1
    11    25    26    1
    12    26    27    1
    13    27    28    1
    14    28    29    1
    15    28    30    1
    16    30    31    1
    17     7     8   ar
    18     8     9   ar
    19     9    10    1
    20    10    11    2
    21    10    12    2
    22    10    13    1
    23    13    14   ar
    24    14    15   ar
    25    15    16   ar
    26    16    19    1
    27    19    20    1
    28    19    21    1
    29    16    17   ar
    30    17    18   ar
    31     6     1   ar
    32    31    25    1
    33    18    13   ar
    34     9     4   ar
@<TRIPOS>MOLECULE
*****
 31 34 0 0 0
SMALL
GASTEIGER

@<TRIPOS>ATOM
      1 C          -1.3758    3.1011   25.6256 C.ar    1  UNL1        0.1388
      2 C          -0.4755    1.9050   25.7193 C.ar    1  UNL1        0.0384
      3 C           0.1845    1.3645   24.4855 C.ar    1  UNL1        0.0221
      4 C          -0.0560    2.0200   23.1579 C.ar    1  UNL1        0.0825
      5 C          -0.9563    3.2161   23.0642 C.ar    1  UNL1        0.0194
      6 C          -1.6162    3.7566   24.2981 C.ar    1  UNL1        0.0382
      7 C          -1.0042    3.6489   21.6288 C.ar    1  UNL1        0.0144
      8 C          -0.1335    2.7203   20.8354 C.ar    1  UNL1        0.0970
      9 N           0.4526    1.7136   21.7804 N.ar    1  UNL1       -0.2080
     10 S           1.3837    0.5966   21.4126 S.O2    1  UNL1        0.0860
     11 O           0.2370   -0.1615   20.8122 O.2     1  UNL1       -0.1476
     12 O           2.5303    1.3547   22.0130 O.2     1  UNL1       -0.1476
     13 C           2.3149   -0.5204   21.0448 C.ar    1  UNL1        0.1277
     14 C           2.3984   -0.9896   19.6226 C.ar    1  UNL1        0.0201
     15 C           3.3296   -2.1067   19.2548 C.ar    1  UNL1       -0.0029
     16 C           4.1772   -2.7544   20.3093 C.ar    1  UNL1       -0.0224
     17 C           4.0936   -2.2851   21.7316 C.ar    1  UNL1       -0.0029
     18 C           3.1624   -1.1681   22.0993 C.ar    1  UNL1        0.0201
     19 C           5.1084   -3.8714   19.9416 C.3     1  UNL1        0.0224
     20 C           6.4863   -3.9242   20.5319 C.3     1  UNL1        0.0047
     21 C           4.6616   -4.9355   18.9834 C.3     1  UNL1        0.0047
     22 C          -2.6112    5.0267   26.8566 C.3     1  UNL1        0.2525
     23 O          -2.0357    3.6416   26.8595 O.3     1  UNL1       -0.4714
     24 C          -1.7856    4.8070   21.0827 C.3     1  UNL1        0.1008
     25 N          -3.1327    4.5777   20.4639 N.3     1  UNL1       -0.2665
     26 C          -4.3731    4.7117   21.2965 C.3     1  UNL1        0.0899
     27 C          -5.7202    4.4824   20.6778 C.3     1  UNL1        0.0897
     28 N          -5.8268    4.1190   19.2263 N.3     1  UNL1       -0.2691
     29 C          -7.1739    3.8897   18.6076 C.3     1  UNL1        0.0897
     30 C          -4.5863    3.9850   18.3937 C.3     1  UNL1        0.0897
     31 C          -3.2392    4.2143   19.0125 C.3     1  UNL1        0.0899
@<TRIPOS>BOND
     1    22    23    1
     2    23     1    1
     3     1     2   ar
     4     2     3   ar
     5     3     4   ar
     6     4     5   ar
     7     5     6   ar
     8     5     7   ar
     9     7    24    1
    10    24    25    1
    11    25    26    1
    12    26    27    1
    13    27    28    1
    14    28    29    1
    15    28    30    1
    16    30    31    1
    17     7     8   ar
    18     8     9   ar
    19     9    10    1
    20    10    11    2
    21    10    12    2
    22    10    13    1
    23    13    14   ar
    24    14    15   ar
    25    15    16   ar
    26    16    19    1
    27    19    20    1
    28    19    21    1
    29    16    17   ar
    30    17    18   ar
    31     6     1   ar
    32    31    25    1
    33    18    13   ar
    34     9     4   ar
@<TRIPOS>MOLECULE
*****
 31 34 0 0 0
SMALL
GASTEIGER

@<TRIPOS>ATOM
      1 C           8.7351   -0.2917   19.4046 C.ar    1  UNL1        0.1388
      2 C           9.4776   -0.8667   20.5743 C.ar    1  UNL1        0.0384
      3 C           8.8523   -1.9521   21.3995 C.ar    1  UNL1        0.0221
      4 C           7.4846   -2.4625   21.0550 C.ar    1  UNL1        0.0825
      5 C           6.7421   -1.8876   19.8854 C.ar    1  UNL1        0.0194
      6 C           7.3674   -0.8022   19.0602 C.ar    1  UNL1        0.0382
      7 C           5.4183   -2.5862   19.7878 C.ar    1  UNL1        0.0144
      8 C           5.3426   -3.5929   20.8972 C.ar    1  UNL1        0.0970
      9 N           6.6197   -3.5164   21.6804 N.ar    1  UNL1       -0.2080
     10 S           6.9703   -4.3480   22.8786 S.O2    1  UNL1        0.0860
     11 O           6.1335   -3.4533   23.7443 O.2     1  UNL1       -0.1476
     12 O           7.8071   -5.2426   22.0129 O.2     1  UNL1       -0.1476
     13 C           7.3209   -5.1795   24.0768 C.ar    1  UNL1        0.1277
     14 C           8.1358   -6.4278   23.9109 C.ar    1  UNL1        0.0201
     15 C           8.4864   -7.2594   25.1091 C.ar    1  UNL1       -0.0029
     16 C           8.0221   -6.8425   26.4732 C.ar    1  UNL1       -0.0224
     17 C           7.2072   -5.5942   26.6390 C.ar    1  UNL1       -0.0029
     18 C           6.8566   -4.7627   25.4408 C.ar    1  UNL1        0.0201
     19 C           8.3727   -7.6741   27.6714 C.3     1  UNL1        0.0224
     20 C           8.6413   -7.0127   28.9906 C.3     1  UNL1        0.0047
     21 C           8.4547   -9.1669   27.5503 C.3     1  UNL1        0.0047
     22 C           8.5296    1.5577   17.5916 C.3     1  UNL1        0.2525
     23 O           9.3604    0.7937   18.5794 O.3     1  UNL1       -0.4714
     24 C           4.3566   -2.3241   18.7612 C.3     1  UNL1        0.1008
     25 N           3.3223   -1.2655   19.0053 N.3     1  UNL1       -0.2665
     26 C           3.2311   -0.0807   18.0899 C.3     1  UNL1        0.0899
     27 C           2.1968    0.9779   18.3340 C.3     1  UNL1        0.0897
     28 N           1.2536    0.8517   19.4936 N.3     1  UNL1       -0.2691
     29 C           0.2193    1.9103   19.7377 C.3     1  UNL1        0.0897
     30 C           1.3448   -0.3332   20.4090 C.3     1  UNL1        0.0897
     31 C           2.3791   -1.3918   20.1649 C.3     1  UNL1        0.0899
@<TRIPOS>BOND
     1    22    23    1
     2    23     1    1
     3     1     2   ar
     4     2     3   ar
     5     3     4   ar
     6     4     5   ar
     7     5     6   ar
     8     5     7   ar
     9     7    24    1
    10    24    25    1
    11    25    26    1
    12    26    27    1
    13    27    28    1
    14    28    29    1
    15    28    30    1
    16    30    31    1
    17     7     8   ar
    18     8     9   ar
    19     9    10    1
    20    10    11    2
    21    10    12    2
    22    10    13    1
    23    13    14   ar
    24    14    15   ar
    25    15    16   ar
    26    16    19    1
    27    19    20    1
    28    19    21    1
    29    16    17   ar
    30    17    18   ar
    31     6     1   ar
    32    31    25    1
    33    18    13   ar
    34     9     4   ar
@<TRIPOS>MOLECULE
*****
 31 34 0 0 0
SMALL
GASTEIGER

@<TRIPOS>ATOM
      1 C           2.2688    3.8955   36.0123 C.ar    1  UNL1        0.1388
      2 C           1.4064    4.5267   34.9598 C.ar    1  UNL1        0.0384
      3 C           1.2866    3.8897   33.6070 C.ar    1  UNL1        0.0221
      4 C           2.0292    2.6215   33.3068 C.ar    1  UNL1        0.0825
      5 C           2.8916    1.9903   34.3593 C.ar    1  UNL1        0.0194
      6 C           3.0114    2.6273   35.7120 C.ar    1  UNL1        0.0382
      7 C           3.5001    0.7491   33.7769 C.ar    1  UNL1        0.0144
      8 C           3.0138    0.6132   32.3645 C.ar    1  UNL1        0.0970
      9 N           2.1047    1.7704   32.0739 N.ar    1  UNL1       -0.2080
     10 S           1.3955    2.0309   30.7781 S.O2    1  UNL1        0.0860
     11 O           0.1714    1.3469   31.3105 O.2     1  UNL1       -0.1476
     12 O           2.6197    2.7149   30.2457 O.2     1  UNL1       -0.1476
     13 C           0.6865    2.2914   29.4821 C.ar    1  UNL1        0.1277
     14 C           0.8624    3.6062   28.7820 C.ar    1  UNL1        0.0201
     15 C           0.1533    3.8666   27.4860 C.ar    1  UNL1       -0.0029
     16 C          -0.7317    2.8122   26.8903 C.ar    1  UNL1       -0.0224
     17 C          -0.9077    1.4974   27.5905 C.ar    1  UNL1       -0.0029
     18 C          -0.1986    1.2369   28.8864 C.ar    1  UNL1        0.0201
     19 C          -1.4408    3.0726   25.5944 C.3     1  UNL1        0.0224
     20 C          -0.7405    2.8198   24.2922 C.3     1  UNL1        0.0047
     21 C          -2.8502    3.5859   25.6007 C.3     1  UNL1        0.0047
     22 C           3.2407    3.8942   38.4217 C.3     1  UNL1        0.2525
     23 O           2.3886    4.5325   37.3650 O.3     1  UNL1       -0.4714
     24 C           4.4315   -0.1911   34.4830 C.3     1  UNL1        0.1008
     25 N           5.3674   -1.0553   33.6910 N.3     1  UNL1       -0.2665
     26 C           4.9272   -2.4138   33.2324 C.3     1  UNL1        0.0899
     27 C           5.8632   -3.2780   32.4404 C.3     1  UNL1        0.0897
     28 N           7.2395   -2.7835   32.1070 N.3     1  UNL1       -0.2691
     29 C           8.1755   -3.6476   31.3150 C.3     1  UNL1        0.0897
     30 C           7.6798   -1.4248   32.5656 C.3     1  UNL1        0.0897
     31 C           6.7438   -0.5607   33.3576 C.3     1  UNL1        0.0899
@<TRIPOS>BOND
     1    22    23    1
     2    23     1    1
     3     1     2   ar
     4     2     3   ar
     5     3     4   ar
     6     4     5   ar
     7     5     6   ar
     8     5     7   ar
     9     7    24    1
    10    24    25    1
    11    25    26    1
    12    26    27    1
    13    27    28    1
    14    28    29    1
    15    28    30    1
    16    30    31    1
    17     7     8   ar
    18     8     9   ar
    19     9    10    1
    20    10    11    2
    21    10    12    2
    22    10    13    1
    23    13    14   ar
    24    14    15   ar
    25    15    16   ar
    26    16    19    1
    27    19    20    1
    28    19    21    1
    29    16    17   ar
    30    17    18   ar
    31     6     1   ar
    32    31    25    1
    33    18    13   ar
    34     9     4   ar
@<TRIPOS>MOLECULE
*****
 31 34 0 0 0
SMALL
GASTEIGER

@<TRIPOS>ATOM
      1 C         -10.7433   -5.7087   18.6161 C.ar    1  UNL1        0.1388
      2 C         -10.6483   -4.2653   19.0127 C.ar    1  UNL1        0.0384
      3 C         -11.8799   -3.4092   19.0286 C.ar    1  UNL1        0.0221
      4 C         -13.2065   -3.9966   18.6479 C.ar    1  UNL1        0.0825
      5 C         -13.3015   -5.4401   18.2513 C.ar    1  UNL1        0.0194
      6 C         -12.0699   -6.2961   18.2354 C.ar    1  UNL1        0.0382
      7 C         -14.7356   -5.7387   17.9284 C.ar    1  UNL1        0.0144
      8 C         -15.5269   -4.4798   18.1255 C.ar    1  UNL1        0.0970
      9 N         -14.5819   -3.4031   18.5702 N.ar    1  UNL1       -0.2080
     10 S         -14.9479   -1.9823   18.8823 S.O2    1  UNL1        0.0860
     11 O         -15.3949   -2.3985   20.2523 O.2     1  UNL1       -0.1476
     12 O         -14.5010   -1.5662   17.5122 O.2     1  UNL1       -0.1476
     13 C         -15.3140   -0.5615   19.1943 C.ar    1  UNL1        0.1277
     14 C         -16.3880   -0.2670   20.1991 C.ar    1  UNL1        0.0201
     15 C         -16.7540    1.1538   20.5112 C.ar    1  UNL1       -0.0029
     16 C         -16.0460    2.2801   19.8184 C.ar    1  UNL1       -0.0224
     17 C         -14.9719    1.9856   18.8135 C.ar    1  UNL1       -0.0029
     18 C         -14.6059    0.5648   18.5015 C.ar    1  UNL1        0.0201
     19 C         -16.4119    3.7009   20.1304 C.3     1  UNL1        0.0224
     20 C         -15.4641    4.8120   19.7882 C.3     1  UNL1        0.0047
     21 C         -17.7257    4.0106   20.7846 C.3     1  UNL1        0.0047
     22 C          -9.6321   -8.0488   18.4187 C.3     1  UNL1        0.2525
     23 O          -9.5116   -6.5648   18.6002 O.3     1  UNL1       -0.4714
     24 C         -15.2824   -7.0636   17.4862 C.3     1  UNL1        0.1008
     25 N         -16.5433   -7.5969   18.0990 N.3     1  UNL1       -0.2665
     26 C         -16.6254   -7.8087   19.5817 C.3     1  UNL1        0.0899
     27 C         -17.8864   -8.3420   20.1945 C.3     1  UNL1        0.0897
     28 N         -19.0653   -8.6636   19.3246 N.3     1  UNL1       -0.2691
     29 C         -20.3263   -9.1969   19.9375 C.3     1  UNL1        0.0897
     30 C         -18.9832   -8.4518   17.8419 C.3     1  UNL1        0.0897
     31 C         -17.7223   -7.9185   17.2290 C.3     1  UNL1        0.0899
@<TRIPOS>BOND
     1    22    23    1
     2    23     1    1
     3     1     2   ar
     4     2     3   ar
     5     3     4   ar
     6     4     5   ar
     7     5     6   ar
     8     5     7   ar
     9     7    24    1
    10    24    25    1
    11    25    26    1
    12    26    27    1
    13    27    28    1
    14    28    29    1
    15    28    30    1
    16    30    31    1
    17     7     8   ar
    18     8     9   ar
    19     9    10    1
    20    10    11    2
    21    10    12    2
    22    10    13    1
    23    13    14   ar
    24    14    15   ar
    25    15    16   ar
    26    16    19    1
    27    19    20    1
    28    19    21    1
    29    16    17   ar
    30    17    18   ar
    31     6     1   ar
    32    31    25    1
    33    18    13   ar
    34     9     4   ar
@<TRIPOS>MOLECULE
*****
 31 34 0 0 0
SMALL
GASTEIGER

@<TRIPOS>ATOM
      1 C          -0.0776    2.8965   26.8005 C.ar    1  UNL1        0.1388
      2 C           0.8259    1.7332   26.5169 C.ar    1  UNL1        0.0384
      3 C           1.1248    1.3439   25.0995 C.ar    1  UNL1        0.0221
      4 C           0.5203    2.1178   23.9657 C.ar    1  UNL1        0.0825
      5 C          -0.3831    3.2812   24.2494 C.ar    1  UNL1        0.0194
      6 C          -0.6820    3.6705   25.6668 C.ar    1  UNL1        0.0382
      7 C          -0.8301    3.8519   22.9361 C.ar    1  UNL1        0.0144
      8 C          -0.2029    3.0413   21.8409 C.ar    1  UNL1        0.0970
      9 N           0.6317    1.9696   22.4772 N.ar    1  UNL1       -0.2080
     10 S           1.4364    0.9318   21.7524 S.O2    1  UNL1        0.0860
     11 O           2.6977    1.5160   22.3163 O.2     1  UNL1       -0.1476
     12 O           0.1751    0.3477   21.1885 O.2     1  UNL1       -0.1476
     13 C           2.2411   -0.1060   21.0274 C.ar    1  UNL1        0.1277
     14 C           3.0084   -1.1361   21.8020 C.ar    1  UNL1        0.0201
     15 C           3.8130   -2.1740   21.0770 C.ar    1  UNL1       -0.0029
     16 C           3.8503   -2.1816   19.5775 C.ar    1  UNL1       -0.0224
     17 C           3.0830   -1.1514   18.8030 C.ar    1  UNL1       -0.0029
     18 C           2.2784   -0.1136   19.5279 C.ar    1  UNL1        0.0201
     19 C           4.6550   -3.2193   18.8526 C.3     1  UNL1        0.0224
     20 C           5.8833   -2.8187   18.0905 C.3     1  UNL1        0.0047
     21 C           4.2313   -4.6578   18.8896 C.3     1  UNL1        0.0047
     22 C           0.6681    3.1107   29.2801 C.3     1  UNL1        0.2525
     23 O          -0.3765    3.2859   28.2180 O.3     1  UNL1       -0.4714
     24 C          -1.7439    5.0269   22.7507 C.3     1  UNL1        0.1008
     25 N          -3.2259    4.8566   22.9074 N.3     1  UNL1       -0.2665
     26 C          -3.8723    3.5502   22.5530 C.3     1  UNL1        0.0899
     27 C          -5.3543    3.3799   22.7097 C.3     1  UNL1        0.0897
     28 N          -6.1900    4.5159   23.2207 N.3     1  UNL1       -0.2691
     29 C          -7.6720    4.3455   23.3773 C.3     1  UNL1        0.0897
     30 C          -5.5435    5.8223   23.5750 C.3     1  UNL1        0.0897
     31 C          -4.0615    5.9927   23.4184 C.3     1  UNL1        0.0899
@<TRIPOS>BOND
     1    22    23    1
     2    23     1    1
     3     1     2   ar
     4     2     3   ar
     5     3     4   ar
     6     4     5   ar
     7     5     6   ar
     8     5     7   ar
     9     7    24    1
    10    24    25    1
    11    25    26    1
    12    26    27    1
    13    27    28    1
    14    28    29    1
    15    28    30    1
    16    30    31    1
    17     7     8   ar
    18     8     9   ar
    19     9    10    1
    20    10    11    2
    21    10    12    2
    22    10    13    1
    23    13    14   ar
    24    14    15   ar
    25    15    16   ar
    26    16    19    1
    27    19    20    1
    28    19    21    1
    29    16    17   ar
    30    17    18   ar
    31     6     1   ar
    32    31    25    1
    33    18    13   ar
    34     9     4   ar
@<TRIPOS>MOLECULE
*****
 31 34 0 0 0
SMALL
GASTEIGER

@<TRIPOS>ATOM
      1 C          -2.3880    5.1832   17.9422 C.ar    1  UNL1        0.1388
      2 C          -1.4913    4.2691   17.1609 C.ar    1  UNL1        0.0384
      3 C          -0.6432    3.2593   17.8758 C.ar    1  UNL1        0.0221
      4 C          -0.6918    3.1636   19.3719 C.ar    1  UNL1        0.0825
      5 C          -1.5885    4.0776   20.1532 C.ar    1  UNL1        0.0194
      6 C          -2.4365    5.0875   19.4383 C.ar    1  UNL1        0.0382
      7 C          -1.4266    3.7531   21.6087 C.ar    1  UNL1        0.0144
      8 C          -0.4299    2.6384   21.7270 C.ar    1  UNL1        0.0970
      9 N           0.0243    2.2741   20.3445 N.ar    1  UNL1       -0.2080
     10 S           1.0197    1.2075   19.9960 S.O2    1  UNL1        0.0860
     11 O           0.0083    0.1528   20.3350 O.2     1  UNL1       -0.1476
     12 O           2.0310    2.2621   19.6570 O.2     1  UNL1       -0.1476
     13 C           2.0152    0.1409   19.6473 C.ar    1  UNL1        0.1277
     14 C           2.6651    0.1345   18.2956 C.ar    1  UNL1        0.0201
     15 C           3.6606   -0.9321   17.9469 C.ar    1  UNL1       -0.0029
     16 C           4.0061   -1.9923   18.9503 C.ar    1  UNL1       -0.0224
     17 C           3.3561   -1.9859   20.3021 C.ar    1  UNL1       -0.0029
     18 C           2.3607   -0.9193   20.6507 C.ar    1  UNL1        0.0201
     19 C           5.0015   -3.0588   18.6017 C.3     1  UNL1        0.0224
     20 C           4.6294   -4.5055   18.7381 C.3     1  UNL1        0.0047
     21 C           6.3691   -2.6787   18.1168 C.3     1  UNL1        0.0047
     22 C          -4.7287    6.1545   17.3700 C.3     1  UNL1        0.2525
     23 O          -3.2360    6.1930   17.2273 O.3     1  UNL1       -0.4714
     24 C          -2.1367    4.4252   22.7462 C.3     1  UNL1        0.1008
     25 N          -1.5877    4.3231   24.1383 N.3     1  UNL1       -0.2665
     26 C          -2.0851    3.2528   25.0641 C.3     1  UNL1        0.0899
     27 C          -1.5360    3.1506   26.4563 C.3     1  UNL1        0.0897
     28 N          -0.4895    4.1188   26.9227 N.3     1  UNL1       -0.2691
     29 C           0.0596    4.0166   28.3148 C.3     1  UNL1        0.0897
     30 C           0.0079    5.1891   25.9968 C.3     1  UNL1        0.0897
     31 C          -0.5411    5.2913   24.6047 C.3     1  UNL1        0.0899
@<TRIPOS>BOND
     1    22    23    1
     2    23     1    1
     3     1     2   ar
     4     2     3   ar
     5     3     4   ar
     6     4     5   ar
     7     5     6   ar
     8     5     7   ar
     9     7    24    1
    10    24    25    1
    11    25    26    1
    12    26    27    1
    13    27    28    1
    14    28    29    1
    15    28    30    1
    16    30    31    1
    17     7     8   ar
    18     8     9   ar
    19     9    10    1
    20    10    11    2
    21    10    12    2
    22    10    13    1
    23    13    14   ar
    24    14    15   ar
    25    15    16   ar
    26    16    19    1
    27    19    20    1
    28    19    21    1
    29    16    17   ar
    30    17    18   ar
    31     6     1   ar
    32    31    25    1
    33    18    13   ar
    34     9     4   ar
