@<TRIPOS>MOLECULE
*****
 27 30 0 0 0
SMALL
GASTEIGER

@<TRIPOS>ATOM
      1 N          -8.8319  -15.8785   23.6513 N.3     1  UNL1       -0.3206
      2 C          -8.1808  -17.1104   23.0955 C.3     1  UNL1        0.0750
      3 C          -6.7212  -17.0964   22.7500 C.3     1  UNL1        0.1079
      4 N          -6.0703  -18.3282   22.1942 N.pl3   1  UNL1       -0.2917
      5 C          -6.8788  -19.5738   21.9838 C.3     1  UNL1        0.0926
      6 C          -8.3385  -19.5879   22.3293 C.3     1  UNL1        0.0273
      7 C          -8.9895  -18.3561   22.8851 C.3     1  UNL1        0.0422
      8 H          -8.1399  -15.1331   23.7273 H       1  UNL1        0.1189
      9 H          -9.2140  -16.0831   24.5746 H       1  UNL1        0.1189
     10 C          -4.6106  -18.3141   21.8487 C.ar    1  UNL1        0.1364
     11 C          -3.5819  -18.2859   22.9399 C.ar    1  UNL1        0.0535
     12 C          -2.1222  -18.2718   22.5945 C.ar    1  UNL1        0.0873
     13 N          -1.6914  -18.2860   21.1577 N.ar    1  UNL1       -0.2547
     14 C          -0.3355  -18.2773   20.5164 C.ar    1  UNL1        0.2081
     15 N          -0.5263  -18.3002   19.0288 N.ar    1  UNL1       -0.1236
     16 N          -2.0001  -18.3230   18.7507 N.ar    1  UNL1       -0.1079
     17 C          -2.7202  -18.3142   20.0665 C.ar    1  UNL1        0.2581
     18 N          -4.1798  -18.3283   20.4120 N.ar    1  UNL1       -0.1949
     19 C         -10.4491  -18.3701   23.2305 C.ar    1  UNL1        0.0087
     20 C         -11.4698  -18.0213   22.1882 C.ar    1  UNL1        0.0300
     21 C         -12.9295  -18.0353   22.5338 C.ar    1  UNL1        0.1672
     22 F         -13.9502  -17.6866   21.4915 F       1  UNL1       -0.2018
     23 C         -13.3683  -18.3981   23.9214 C.ar    1  UNL1        0.1696
     24 F         -14.8279  -18.4121   24.2670 F       1  UNL1       -0.2017
     25 C         -12.3475  -18.7469   24.9637 C.ar    1  UNL1        0.0612
     26 C         -10.8879  -18.7329   24.6183 C.ar    1  UNL1        0.1386
     27 F          -9.8672  -19.0816   25.6606 F       1  UNL1       -0.2044
@<TRIPOS>BOND
     1     2     1    1
     2     2     3    1
     3     3     4    1
     4     4    10    1
     5    10    11   ar
     6    11    12   ar
     7    12    13   ar
     8    13    14   ar
     9    14    15   ar
    10    15    16   ar
    11    16    17   ar
    12    17    18   ar
    13     4     5    1
    14     5     6    1
    15     6     7    1
    16     7    19    1
    17    19    20   ar
    18    20    21   ar
    19    21    22    1
    20    21    23   ar
    21    23    24    1
    22    23    25   ar
    23    25    26   ar
    24    26    27    1
    25     7     2    1
    26    26    19   ar
    27    18    10   ar
    28    17    13   ar
    29     1     8    1
    30     1     9    1
@<TRIPOS>MOLECULE
*****
 27 30 0 0 0
SMALL
GASTEIGER

@<TRIPOS>ATOM
      1 N          -5.1046  -17.0154   23.1093 N.3     1  UNL1       -0.3206
      2 C          -6.1398  -17.7642   22.3232 C.3     1  UNL1        0.0750
      3 C          -7.5877  -17.6626   22.7018 C.3     1  UNL1        0.1079
      4 N          -8.6228  -18.4114   21.9158 N.pl3   1  UNL1       -0.2917
      5 C          -8.2100  -19.2619   20.7513 C.3     1  UNL1        0.0926
      6 C          -6.7621  -19.3636   20.3726 C.3     1  UNL1        0.0273
      7 C          -5.7270  -18.6147   21.1586 C.3     1  UNL1        0.0422
      8 H          -5.5587  -16.4932   23.8586 H       1  UNL1        0.1189
      9 H          -4.6127  -16.3679   22.4934 H       1  UNL1        0.1189
     10 C         -10.0707  -18.3097   22.2945 C.ar    1  UNL1        0.1364
     11 C         -11.0812  -17.8611   21.2809 C.ar    1  UNL1        0.0535
     12 C         -12.5292  -17.7594   21.6596 C.ar    1  UNL1        0.0873
     13 N         -12.9663  -18.1064   23.0519 N.ar    1  UNL1       -0.2547
     14 C         -14.3137  -18.1024   23.7111 C.ar    1  UNL1        0.2081
     15 N         -14.1358  -18.5485   25.1321 N.ar    1  UNL1       -0.1236
     16 N         -12.6784  -18.8282   25.3512 N.ar    1  UNL1       -0.1079
     17 C         -11.9557  -18.5550   24.0655 C.ar    1  UNL1        0.2581
     18 N         -10.5078  -18.6566   23.6868 N.ar    1  UNL1       -0.1949
     19 C          -4.2792  -18.7164   20.7800 C.ar    1  UNL1        0.0087
     20 C          -3.7966  -18.1159   19.4929 C.ar    1  UNL1        0.0300
     21 C          -2.3487  -18.2176   19.1144 C.ar    1  UNL1        0.1672
     22 F          -1.8661  -17.6172   17.8273 F       1  UNL1       -0.2018
     23 C          -1.3835  -18.9197   20.0228 C.ar    1  UNL1        0.1696
     24 F           0.0645  -19.0214   19.6443 F       1  UNL1       -0.2017
     25 C          -1.8660  -19.5201   21.3099 C.ar    1  UNL1        0.0612
     26 C          -3.3139  -19.4185   21.6885 C.ar    1  UNL1        0.1386
     27 F          -3.7965  -20.0189   22.9756 F       1  UNL1       -0.2044
@<TRIPOS>BOND
     1     2     1    1
     2     2     3    1
     3     3     4    1
     4     4    10    1
     5    10    11   ar
     6    11    12   ar
     7    12    13   ar
     8    13    14   ar
     9    14    15   ar
    10    15    16   ar
    11    16    17   ar
    12    17    18   ar
    13     4     5    1
    14     5     6    1
    15     6     7    1
    16     7    19    1
    17    19    20   ar
    18    20    21   ar
    19    21    22    1
    20    21    23   ar
    21    23    24    1
    22    23    25   ar
    23    25    26   ar
    24    26    27    1
    25     7     2    1
    26    26    19   ar
    27    18    10   ar
    28    17    13   ar
    29     1     8    1
    30     1     9    1
@<TRIPOS>MOLECULE
*****
 27 30 0 0 0
SMALL
GASTEIGER

@<TRIPOS>ATOM
      1 N         -11.7362   -2.6204   16.7796 N.3     1  UNL1       -0.3206
      2 C         -12.7672   -2.6276   17.8692 C.3     1  UNL1        0.0750
      3 C         -13.5592   -1.3875   18.1604 C.3     1  UNL1        0.1079
      4 N         -14.5902   -1.3947   19.2499 N.pl3   1  UNL1       -0.2917
      5 C         -14.8291   -2.6419   20.0482 C.3     1  UNL1        0.0926
      6 C         -14.0370   -3.8821   19.7570 C.3     1  UNL1        0.0273
      7 C         -13.0061   -3.8749   18.6674 C.3     1  UNL1        0.0422
      8 H         -11.7072   -1.6981   16.3450 H       1  UNL1        0.1189
      9 H         -11.9785   -3.3196   16.0776 H       1  UNL1        0.1189
     10 C         -15.3822   -0.1545   19.5412 C.ar    1  UNL1        0.1364
     11 C         -14.9986    1.1475   18.9029 C.ar    1  UNL1        0.0535
     12 C         -15.7907    2.3877   19.1942 C.ar    1  UNL1        0.0873
     13 N         -16.9663    2.3256   20.1236 N.ar    1  UNL1       -0.2547
     14 C         -17.9282    3.3749   20.5967 C.ar    1  UNL1        0.2081
     15 N         -18.9063    2.7212   21.5273 N.ar    1  UNL1       -0.1236
     16 N         -18.5489    1.2680   21.6294 N.ar    1  UNL1       -0.1079
     17 C         -17.3499    1.0235   20.7619 C.ar    1  UNL1        0.2581
     18 N         -16.5579   -0.2166   20.4707 N.ar    1  UNL1       -0.1949
     19 C         -12.2140   -5.1150   18.3762 C.ar    1  UNL1        0.0087
     20 C         -10.9664   -5.4083   19.1555 C.ar    1  UNL1        0.0300
     21 C         -10.1744   -6.6485   18.8642 C.ar    1  UNL1        0.1672
     22 F          -8.9268   -6.9418   19.6436 F       1  UNL1       -0.2018
     23 C         -10.6299   -7.5951   17.7937 C.ar    1  UNL1        0.1696
     24 F          -9.8379   -8.8353   17.5024 F       1  UNL1       -0.2017
     25 C         -11.8775   -7.3018   17.0143 C.ar    1  UNL1        0.0612
     26 C         -12.6696   -6.0617   17.3056 C.ar    1  UNL1        0.1386
     27 F         -13.9172   -5.7683   16.5262 F       1  UNL1       -0.2044
@<TRIPOS>BOND
     1     2     1    1
     2     2     3    1
     3     3     4    1
     4     4    10    1
     5    10    11   ar
     6    11    12   ar
     7    12    13   ar
     8    13    14   ar
     9    14    15   ar
    10    15    16   ar
    11    16    17   ar
    12    17    18   ar
    13     4     5    1
    14     5     6    1
    15     6     7    1
    16     7    19    1
    17    19    20   ar
    18    20    21   ar
    19    21    22    1
    20    21    23   ar
    21    23    24    1
    22    23    25   ar
    23    25    26   ar
    24    26    27    1
    25     7     2    1
    26    26    19   ar
    27    18    10   ar
    28    17    13   ar
    29     1     8    1
    30     1     9    1
@<TRIPOS>MOLECULE
*****
 27 30 0 0 0
SMALL
GASTEIGER

@<TRIPOS>ATOM
      1 N           3.8882   -3.1652   33.3848 N.3     1  UNL1       -0.3206
      2 C           4.8125   -2.0051   33.6088 C.3     1  UNL1        0.0750
      3 C           4.4909   -0.9814   34.6570 C.3     1  UNL1        0.1079
      4 N           5.4151    0.1785   34.8810 N.pl3   1  UNL1       -0.2917
      5 C           6.6610    0.3148   34.0569 C.3     1  UNL1        0.0926
      6 C           6.9826   -0.7089   33.0087 C.3     1  UNL1        0.0273
      7 C           6.0584   -1.8689   32.7847 C.3     1  UNL1        0.0422
      8 H           3.0985   -3.0996   34.0270 H       1  UNL1        0.1189
      9 H           4.3904   -4.0372   33.5514 H       1  UNL1        0.1189
     10 C           5.0934    1.2022   35.9292 C.ar    1  UNL1        0.1364
     11 C           5.7813    2.5350   35.9120 C.ar    1  UNL1        0.0535
     12 C           5.4596    3.5587   36.9602 C.ar    1  UNL1        0.0873
     13 N           4.4500    3.2494   38.0256 N.ar    1  UNL1       -0.2547
     14 C           3.9315    4.0536   39.1808 C.ar    1  UNL1        0.2081
     15 N           2.9232    3.2177   39.9119 N.ar    1  UNL1       -0.1236
     16 N           2.8184    1.8970   39.2085 N.ar    1  UNL1       -0.1079
     17 C           3.7621    1.9166   38.0427 C.ar    1  UNL1        0.2581
     18 N           4.0838    0.8930   36.9945 N.ar    1  UNL1       -0.1949
     19 C           6.3800   -2.8925   31.7366 C.ar    1  UNL1        0.0087
     20 C           6.8787   -4.2483   32.1404 C.ar    1  UNL1        0.0300
     21 C           7.2003   -5.2720   31.0922 C.ar    1  UNL1        0.1672
     22 F           7.6990   -6.6278   31.4961 F       1  UNL1       -0.2018
     23 C           7.0232   -4.9399   29.6403 C.ar    1  UNL1        0.1696
     24 F           7.3449   -5.9636   28.5920 F       1  UNL1       -0.2017
     25 C           6.5245   -3.5841   29.2364 C.ar    1  UNL1        0.0612
     26 C           6.2029   -2.5604   30.2845 C.ar    1  UNL1        0.1386
     27 F           5.7042   -1.2047   29.8806 F       1  UNL1       -0.2044
@<TRIPOS>BOND
     1     2     1    1
     2     2     3    1
     3     3     4    1
     4     4    10    1
     5    10    11   ar
     6    11    12   ar
     7    12    13   ar
     8    13    14   ar
     9    14    15   ar
    10    15    16   ar
    11    16    17   ar
    12    17    18   ar
    13     4     5    1
    14     5     6    1
    15     6     7    1
    16     7    19    1
    17    19    20   ar
    18    20    21   ar
    19    21    22    1
    20    21    23   ar
    21    23    24    1
    22    23    25   ar
    23    25    26   ar
    24    26    27    1
    25     7     2    1
    26    26    19   ar
    27    18    10   ar
    28    17    13   ar
    29     1     8    1
    30     1     9    1
@<TRIPOS>MOLECULE
*****
 27 30 0 0 0
SMALL
GASTEIGER

@<TRIPOS>ATOM
      1 N         -14.0477   -4.8355   20.5879 N.3     1  UNL1       -0.3206
      2 C         -13.8162   -3.6493   19.6993 C.3     1  UNL1        0.0750
      3 C         -14.5667   -2.3733   19.9410 C.3     1  UNL1        0.1079
      4 N         -14.3352   -1.1872   19.0524 N.pl3   1  UNL1       -0.2917
      5 C         -13.3532   -1.2771   17.9222 C.3     1  UNL1        0.0926
      6 C         -12.6026   -2.5532   17.6804 C.3     1  UNL1        0.0273
      7 C         -12.8341   -3.7393   18.5690 C.3     1  UNL1        0.0422
      8 H         -14.7414   -4.5987   21.2971 H       1  UNL1        0.1189
      9 H         -13.1723   -5.0960   21.0421 H       1  UNL1        0.1189
     10 C         -15.0857    0.0889   19.2942 C.ar    1  UNL1        0.1364
     11 C         -16.4469    0.0507   19.9232 C.ar    1  UNL1        0.0535
     12 C         -17.1975    1.3268   20.1650 C.ar    1  UNL1        0.0873
     13 N         -16.5868    2.6409   19.7777 N.ar    1  UNL1       -0.2547
     14 C         -17.0842    4.0514   19.8922 C.ar    1  UNL1        0.2081
     15 N         -16.0304    4.9613   19.3339 N.ar    1  UNL1       -0.1236
     16 N         -14.8817    4.1131   18.8744 N.ar    1  UNL1       -0.1079
     17 C         -15.2255    2.6791   19.1487 C.ar    1  UNL1        0.2581
     18 N         -14.4750    1.4030   18.9069 N.ar    1  UNL1       -0.1949
     19 C         -12.0836   -5.0153   18.3273 C.ar    1  UNL1        0.0087
     20 C         -10.8513   -5.3233   19.1252 C.ar    1  UNL1        0.0300
     21 C         -10.1008   -6.5994   18.8834 C.ar    1  UNL1        0.1672
     22 F          -8.8686   -6.9074   19.6813 F       1  UNL1       -0.2018
     23 C         -10.5826   -7.5674   17.8439 C.ar    1  UNL1        0.1696
     24 F          -9.8320   -8.8435   17.6021 F       1  UNL1       -0.2017
     25 C         -11.8148   -7.2594   17.0460 C.ar    1  UNL1        0.0612
     26 C         -12.5653   -5.9834   17.2877 C.ar    1  UNL1        0.1386
     27 F         -13.7976   -5.6754   16.4898 F       1  UNL1       -0.2044
@<TRIPOS>BOND
     1     2     1    1
     2     2     3    1
     3     3     4    1
     4     4    10    1
     5    10    11   ar
     6    11    12   ar
     7    12    13   ar
     8    13    14   ar
     9    14    15   ar
    10    15    16   ar
    11    16    17   ar
    12    17    18   ar
    13     4     5    1
    14     5     6    1
    15     6     7    1
    16     7    19    1
    17    19    20   ar
    18    20    21   ar
    19    21    22    1
    20    21    23   ar
    21    23    24    1
    22    23    25   ar
    23    25    26   ar
    24    26    27    1
    25     7     2    1
    26    26    19   ar
    27    18    10   ar
    28    17    13   ar
    29     1     8    1
    30     1     9    1
@<TRIPOS>MOLECULE
*****
 27 30 0 0 0
SMALL
GASTEIGER

@<TRIPOS>ATOM
      1 N         -13.8210   -4.8993   20.8309 N.3     1  UNL1       -0.3206
      2 C         -13.8029   -3.7492   19.8680 C.3     1  UNL1        0.0750
      3 C         -14.5837   -2.5049   20.1712 C.3     1  UNL1        0.1079
      4 N         -14.5656   -1.3549   19.2084 N.pl3   1  UNL1       -0.2917
      5 C         -13.7668   -1.4492   17.9424 C.3     1  UNL1        0.0926
      6 C         -12.9860   -2.6936   17.6391 C.3     1  UNL1        0.0273
      7 C         -13.0041   -3.8436   18.6019 C.3     1  UNL1        0.0422
      8 H         -14.4098   -4.6645   21.6300 H       1  UNL1        0.1189
      9 H         -12.8716   -5.0888   21.1521 H       1  UNL1        0.1189
     10 C         -15.3464   -0.1105   19.5117 C.ar    1  UNL1        0.1364
     11 C         -14.9966    1.1792   18.8304 C.ar    1  UNL1        0.0535
     12 C         -15.7774    2.4236   19.1337 C.ar    1  UNL1        0.0873
     13 N         -16.9081    2.3781   20.1183 N.ar    1  UNL1       -0.2547
     14 C         -17.8496    3.4350   20.6150 C.ar    1  UNL1        0.2081
     15 N         -18.7813    2.7984   21.6032 N.ar    1  UNL1       -0.1236
     16 N         -18.4156    1.3481   21.7174 N.ar    1  UNL1       -0.1079
     17 C         -17.2579    1.0884   20.7996 C.ar    1  UNL1        0.2581
     18 N         -16.4771   -0.1559   20.4963 N.ar    1  UNL1       -0.1949
     19 C         -12.2233   -5.0879   18.2987 C.ar    1  UNL1        0.0087
     20 C         -12.8753   -6.2223   17.5651 C.ar    1  UNL1        0.0300
     21 C         -12.0944   -7.4667   17.2619 C.ar    1  UNL1        0.1672
     22 F         -12.7464   -8.6011   16.5284 F       1  UNL1       -0.2018
     23 C         -10.6618   -7.5767   17.6923 C.ar    1  UNL1        0.1696
     24 F          -9.8809   -8.8211   17.3891 F       1  UNL1       -0.2017
     25 C         -10.0098   -6.4423   18.4258 C.ar    1  UNL1        0.0612
     26 C         -10.7906   -5.1979   18.7291 C.ar    1  UNL1        0.1386
     27 F         -10.1386   -4.0636   19.4626 F       1  UNL1       -0.2044
@<TRIPOS>BOND
     1     2     1    1
     2     2     3    1
     3     3     4    1
     4     4    10    1
     5    10    11   ar
     6    11    12   ar
     7    12    13   ar
     8    13    14   ar
     9    14    15   ar
    10    15    16   ar
    11    16    17   ar
    12    17    18   ar
    13     4     5    1
    14     5     6    1
    15     6     7    1
    16     7    19    1
    17    19    20   ar
    18    20    21   ar
    19    21    22    1
    20    21    23   ar
    21    23    24    1
    22    23    25   ar
    23    25    26   ar
    24    26    27    1
    25     7     2    1
    26    26    19   ar
    27    18    10   ar
    28    17    13   ar
    29     1     8    1
    30     1     9    1
@<TRIPOS>MOLECULE
*****
 27 30 0 0 0
SMALL
GASTEIGER

@<TRIPOS>ATOM
      1 N           3.3956   -0.0175   17.4932 N.3     1  UNL1       -0.3206
      2 C           2.4859    0.1847   18.6687 C.3     1  UNL1        0.0750
      3 C           1.3988    1.2163   18.6070 C.3     1  UNL1        0.1079
      4 N           0.4892    1.4185   19.7825 N.pl3   1  UNL1       -0.2917
      5 C           0.6667    0.5892   21.0196 C.3     1  UNL1        0.0926
      6 C           1.7539   -0.4425   21.0813 C.3     1  UNL1        0.0273
      7 C           2.6635   -0.6447   19.9059 C.3     1  UNL1        0.0422
      8 H           3.1337    0.6255   16.7460 H       1  UNL1        0.1189
      9 H           3.3122   -0.9779   17.1600 H       1  UNL1        0.1189
     10 C          -0.5980    2.4502   19.7207 C.ar    1  UNL1        0.1364
     11 C          -0.6018    3.4710   18.6218 C.ar    1  UNL1        0.0535
     12 C          -1.6889    4.5027   18.5600 C.ar    1  UNL1        0.0873
     13 N          -2.7723    4.5135   19.5974 N.ar    1  UNL1       -0.2547
     14 C          -3.9653    5.4013   19.7934 C.ar    1  UNL1        0.2081
     15 N          -4.6989    4.9292   21.0137 N.ar    1  UNL1       -0.1236
     16 N          -3.9593    3.7496   21.5718 N.ar    1  UNL1       -0.1079
     17 C          -2.7686    3.4926   20.6964 C.ar    1  UNL1        0.2581
     18 N          -1.6814    2.4610   20.7581 N.ar    1  UNL1       -0.1949
     19 C           3.7507   -1.6763   19.9675 C.ar    1  UNL1        0.0087
     20 C           3.5360   -3.0295   19.3570 C.ar    1  UNL1        0.0300
     21 C           4.6232   -4.0612   19.4188 C.ar    1  UNL1        0.1672
     22 F           4.4086   -5.4144   18.8083 F       1  UNL1       -0.2018
     23 C           5.9250   -3.7396   20.0909 C.ar    1  UNL1        0.1696
     24 F           7.0122   -4.7712   20.1526 F       1  UNL1       -0.2017
     25 C           6.1397   -2.3864   20.7014 C.ar    1  UNL1        0.0612
     26 C           5.0525   -1.3548   20.6397 C.ar    1  UNL1        0.1386
     27 F           5.2672   -0.0016   21.2502 F       1  UNL1       -0.2044
@<TRIPOS>BOND
     1     2     1    1
     2     2     3    1
     3     3     4    1
     4     4    10    1
     5    10    11   ar
     6    11    12   ar
     7    12    13   ar
     8    13    14   ar
     9    14    15   ar
    10    15    16   ar
    11    16    17   ar
    12    17    18   ar
    13     4     5    1
    14     5     6    1
    15     6     7    1
    16     7    19    1
    17    19    20   ar
    18    20    21   ar
    19    21    22    1
    20    21    23   ar
    21    23    24    1
    22    23    25   ar
    23    25    26   ar
    24    26    27    1
    25     7     2    1
    26    26    19   ar
    27    18    10   ar
    28    17    13   ar
    29     1     8    1
    30     1     9    1
