@<TRIPOS>MOLECULE
*****
 29 32 0 0 0
SMALL
GASTEIGER

@<TRIPOS>ATOM
      1 C           0.0469    5.0834   27.5971 C.3     1  UNL1        0.0233
      2 C          -0.0632    3.6535   28.0367 C.3     1  UNL1        0.0953
      3 C           0.8545    3.1222   29.0975 C.3     1  UNL1        0.1106
      4 N           0.7443    1.6923   29.5372 N.pl3   1  UNL1       -0.3041
      5 C          -0.2836    0.7937   28.9160 C.3     1  UNL1        0.1123
      6 C          -1.2013    1.3251   27.8552 C.3     1  UNL1        0.1149
      7 N          -1.0912    2.7549   27.4155 N.pl3   1  UNL1       -0.2777
      8 C          -2.0090    3.2863   26.3546 C.ar    1  UNL1        0.2035
      9 N          -3.2962    3.9522   26.7414 N.ar    1  UNL1       -0.2133
     10 C          -4.2140    4.4835   25.6806 C.ar    1  UNL1        0.1065
     11 C          -3.8446    4.3489   24.2330 C.ar    1  UNL1        0.0815
     12 C          -2.5574    3.6829   23.8462 C.ar    1  UNL1        0.2646
     13 O          -2.1879    3.5483   22.3987 O.2     1  UNL1       -0.2668
     14 N          -1.6395    3.1516   24.9071 N.ar    1  UNL1       -0.2667
     15 C          -0.3523    2.4857   24.5204 C.3     1  UNL1        0.1363
     16 C          -5.5012    5.1494   26.0673 C.ar    1  UNL1        0.1024
     17 C          -6.5449    5.4260   25.0261 C.ar    1  UNL1        0.0414
     18 C          -7.8322    6.0919   25.4128 C.ar    1  UNL1        0.1023
     19 N          -8.0757    6.4813   26.8408 N.ar    1  UNL1       -0.2224
     20 C          -7.0320    6.2048   27.8821 C.ar    1  UNL1        0.1989
     21 N          -5.7447    5.5388   27.4953 N.ar    1  UNL1       -0.2224
     22 C           1.6622    1.1610   30.5980 C.ar    1  UNL1        0.0480
     23 C           1.8262    1.9059   31.8896 C.ar    1  UNL1        0.0152
     24 C           2.7439    1.3747   32.9505 C.ar    1  UNL1        0.0115
     25 C           3.4978    0.0984   32.7198 C.ar    1  UNL1        0.0685
     26 C           3.3337   -0.6464   31.4282 C.ar    1  UNL1        0.0115
     27 C           2.4159   -0.1151   30.3673 C.ar    1  UNL1        0.0152
     28 C           4.4155   -0.4328   33.7806 C.1     1  UNL1        0.1004
     29 N           5.3333   -0.9640   34.8415 N.1     1  UNL1       -0.1908
@<TRIPOS>BOND
     1     2     1    1
     2     2     3    1
     3     3     4    1
     4     4    22    1
     5    22    23   ar
     6    23    24   ar
     7    24    25   ar
     8    25    28    1
     9    28    29    3
    10    25    26   ar
    11    26    27   ar
    12     4     5    1
    13     5     6    1
    14     6     7    1
    15     7     8    1
    16     8     9   ar
    17     9    10   ar
    18    10    16    1
    19    16    17   ar
    20    17    18   ar
    21    18    19   ar
    22    19    20   ar
    23    20    21   ar
    24    10    11   ar
    25    11    12   ar
    26    12    13    2
    27    12    14   ar
    28    14    15    1
    29     7     2    1
    30    14     8   ar
    31    27    22   ar
    32    21    16   ar
@<TRIPOS>MOLECULE
*****
 29 32 0 0 0
SMALL
GASTEIGER

@<TRIPOS>ATOM
      1 C           1.5935    3.2144   22.2434 C.3     1  UNL1        0.0233
      2 C           1.5901    1.8382   21.6466 C.3     1  UNL1        0.0953
      3 C           2.6091    0.8283   22.0845 C.3     1  UNL1        0.1106
      4 N           2.6056   -0.5479   21.4878 N.pl3   1  UNL1       -0.3041
      5 C           1.5833   -0.9141   20.4531 C.3     1  UNL1        0.1123
      6 C           0.5643    0.0958   20.0152 C.3     1  UNL1        0.1149
      7 N           0.5677    1.4719   20.6120 N.pl3   1  UNL1       -0.2777
      8 C          -0.4513    2.4819   20.1740 C.ar    1  UNL1        0.2035
      9 N          -1.7441    2.6160   20.9227 N.ar    1  UNL1       -0.2133
     10 C          -2.7631    3.6258   20.4849 C.ar    1  UNL1        0.1065
     11 C          -2.4893    4.5017   19.2982 C.ar    1  UNL1        0.0815
     12 C          -1.1965    4.3675   18.5495 C.ar    1  UNL1        0.2646
     13 O          -0.9226    5.2433   17.3629 O.2     1  UNL1       -0.2668
     14 N          -0.1774    3.3576   18.9874 N.ar    1  UNL1       -0.2667
     15 C           1.1154    3.2235   18.2387 C.3     1  UNL1        0.1363
     16 C          -4.0560    3.7600   21.2336 C.ar    1  UNL1        0.1024
     17 C          -5.2963    4.2019   20.5152 C.ar    1  UNL1        0.0414
     18 C          -6.5892    4.3361   21.2639 C.ar    1  UNL1        0.1023
     19 N          -6.6417    4.0282   22.7310 N.ar    1  UNL1       -0.2224
     20 C          -5.4013    3.5862   23.4495 C.ar    1  UNL1        0.1989
     21 N          -4.1084    3.4521   22.7007 N.ar    1  UNL1       -0.2224
     22 C           3.6247   -1.5578   21.9257 C.ar    1  UNL1        0.0480
     23 C           4.2515   -2.4759   20.9187 C.ar    1  UNL1        0.0152
     24 C           5.2705   -3.4858   21.3566 C.ar    1  UNL1        0.0115
     25 C           5.6627   -3.5776   22.8015 C.ar    1  UNL1        0.0685
     26 C           5.0358   -2.6595   23.8085 C.ar    1  UNL1        0.0115
     27 C           4.0168   -1.6495   23.3706 C.ar    1  UNL1        0.0152
     28 C           6.6816   -4.5875   23.2394 C.1     1  UNL1        0.1004
     29 N           7.7006   -5.5974   23.6773 N.1     1  UNL1       -0.1908
@<TRIPOS>BOND
     1     2     1    1
     2     2     3    1
     3     3     4    1
     4     4    22    1
     5    22    23   ar
     6    23    24   ar
     7    24    25   ar
     8    25    28    1
     9    28    29    3
    10    25    26   ar
    11    26    27   ar
    12     4     5    1
    13     5     6    1
    14     6     7    1
    15     7     8    1
    16     8     9   ar
    17     9    10   ar
    18    10    16    1
    19    16    17   ar
    20    17    18   ar
    21    18    19   ar
    22    19    20   ar
    23    20    21   ar
    24    10    11   ar
    25    11    12   ar
    26    12    13    2
    27    12    14   ar
    28    14    15    1
    29     7     2    1
    30    14     8   ar
    31    27    22   ar
    32    21    16   ar
@<TRIPOS>MOLECULE
*****
 29 32 0 0 0
SMALL
GASTEIGER

@<TRIPOS>ATOM
      1 C          -0.1246    2.8381   18.1861 C.3     1  UNL1        0.0233
      2 C          -0.4278    2.8625   19.6549 C.3     1  UNL1        0.0953
      3 C          -1.8068    3.2120   20.1304 C.3     1  UNL1        0.1106
      4 N          -2.1101    3.2364   21.5992 N.pl3   1  UNL1       -0.3041
      5 C          -1.0343    2.9113   22.5926 C.3     1  UNL1        0.1123
      6 C           0.3448    2.5617   22.1172 C.3     1  UNL1        0.1149
      7 N           0.6480    2.5373   20.6483 N.pl3   1  UNL1       -0.2777
      8 C           2.0271    2.1877   20.1729 C.ar    1  UNL1        0.2035
      9 N           2.3909    0.7556   19.9149 N.ar    1  UNL1       -0.2133
     10 C           3.7699    0.4060   19.4395 C.ar    1  UNL1        0.1065
     11 C           4.7852    1.4885   19.2221 C.ar    1  UNL1        0.0815
     12 C           4.4214    2.9207   19.4801 C.ar    1  UNL1        0.2646
     13 O           5.4367    4.0033   19.2628 O.2     1  UNL1       -0.2668
     14 N           3.0423    3.2703   19.9555 N.ar    1  UNL1       -0.2667
     15 C           2.6786    4.7025   20.2135 C.3     1  UNL1        0.1363
     16 C           4.1336   -1.0262   19.1815 C.ar    1  UNL1        0.1024
     17 C           3.2088   -2.1247   19.6150 C.ar    1  UNL1        0.0414
     18 C           3.5726   -3.5569   19.3570 C.ar    1  UNL1        0.1023
     19 N           4.8612   -3.8905   18.6655 N.ar    1  UNL1       -0.2224
     20 C           5.7861   -2.7920   18.2320 C.ar    1  UNL1        0.1989
     21 N           5.4223   -1.3598   18.4900 N.ar    1  UNL1       -0.2224
     22 C          -3.4892    3.5860   22.0746 C.ar    1  UNL1        0.0480
     23 C          -4.5584    3.9356   21.0823 C.ar    1  UNL1        0.0152
     24 C          -5.9374    4.2851   21.5576 C.ar    1  UNL1        0.0115
     25 C          -6.2473    4.2852   23.0253 C.ar    1  UNL1        0.0685
     26 C          -5.1781    3.9356   24.0176 C.ar    1  UNL1        0.0115
     27 C          -3.7990    3.5860   23.5422 C.ar    1  UNL1        0.0152
     28 C          -7.6264    4.6347   23.5007 C.1     1  UNL1        0.1004
     29 N          -9.0054    4.9843   23.9760 N.1     1  UNL1       -0.1908
@<TRIPOS>BOND
     1     2     1    1
     2     2     3    1
     3     3     4    1
     4     4    22    1
     5    22    23   ar
     6    23    24   ar
     7    24    25   ar
     8    25    28    1
     9    28    29    3
    10    25    26   ar
    11    26    27   ar
    12     4     5    1
    13     5     6    1
    14     6     7    1
    15     7     8    1
    16     8     9   ar
    17     9    10   ar
    18    10    16    1
    19    16    17   ar
    20    17    18   ar
    21    18    19   ar
    22    19    20   ar
    23    20    21   ar
    24    10    11   ar
    25    11    12   ar
    26    12    13    2
    27    12    14   ar
    28    14    15    1
    29     7     2    1
    30    14     8   ar
    31    27    22   ar
    32    21    16   ar
@<TRIPOS>MOLECULE
*****
 29 32 0 0 0
SMALL
GASTEIGER

@<TRIPOS>ATOM
      1 C           6.8264    1.3143   33.1146 C.3     1  UNL1        0.0233
      2 C           6.1441   -0.0211   33.0792 C.3     1  UNL1        0.0953
      3 C           6.6488   -1.0971   32.1642 C.3     1  UNL1        0.1106
      4 N           5.9665   -2.4325   32.1288 N.pl3   1  UNL1       -0.3041
      5 C           4.7796   -2.6919   33.0086 C.3     1  UNL1        0.1123
      6 C           4.2750   -1.6158   33.9236 C.3     1  UNL1        0.1149
      7 N           4.9572   -0.2804   33.9590 N.pl3   1  UNL1       -0.2777
      8 C           4.4525    0.7957   34.8741 C.ar    1  UNL1        0.2035
      9 N           3.4200    1.7696   34.3888 N.ar    1  UNL1       -0.2133
     10 C           2.9153    2.8456   35.3038 C.ar    1  UNL1        0.1065
     11 C           3.4430    2.9478   36.7042 C.ar    1  UNL1        0.0815
     12 C           4.4755    1.9739   37.1895 C.ar    1  UNL1        0.2646
     13 O           5.0033    2.0760   38.5899 O.2     1  UNL1       -0.2668
     14 N           4.9802    0.8978   36.2744 N.ar    1  UNL1       -0.2667
     15 C           6.0127   -0.0761   36.7597 C.3     1  UNL1        0.1363
     16 C           1.8828    3.8195   34.8185 C.ar    1  UNL1        0.1024
     17 C           1.4911    4.9865   35.6756 C.ar    1  UNL1        0.0414
     18 C           0.4587    5.9604   35.1903 C.ar    1  UNL1        0.1023
     19 N          -0.1821    5.7673   33.8479 N.ar    1  UNL1       -0.2224
     20 C           0.2096    4.6003   32.9907 C.ar    1  UNL1        0.1989
     21 N           1.2420    3.6264   33.4760 N.ar    1  UNL1       -0.2224
     22 C           6.4713   -3.5086   31.2137 C.ar    1  UNL1        0.0480
     23 C           6.5415   -3.2640   29.7355 C.ar    1  UNL1        0.0152
     24 C           7.0462   -4.3400   28.8204 C.ar    1  UNL1        0.0115
     25 C           7.4807   -5.6607   29.3835 C.ar    1  UNL1        0.0685
     26 C           7.4104   -5.9053   30.8617 C.ar    1  UNL1        0.0115
     27 C           6.9057   -4.8292   31.7769 C.ar    1  UNL1        0.0152
     28 C           7.9854   -6.7367   28.4684 C.1     1  UNL1        0.1004
     29 N           8.4901   -7.8127   27.5533 N.1     1  UNL1       -0.1908
@<TRIPOS>BOND
     1     2     1    1
     2     2     3    1
     3     3     4    1
     4     4    22    1
     5    22    23   ar
     6    23    24   ar
     7    24    25   ar
     8    25    28    1
     9    28    29    3
    10    25    26   ar
    11    26    27   ar
    12     4     5    1
    13     5     6    1
    14     6     7    1
    15     7     8    1
    16     8     9   ar
    17     9    10   ar
    18    10    16    1
    19    16    17   ar
    20    17    18   ar
    21    18    19   ar
    22    19    20   ar
    23    20    21   ar
    24    10    11   ar
    25    11    12   ar
    26    12    13    2
    27    12    14   ar
    28    14    15    1
    29     7     2    1
    30    14     8   ar
    31    27    22   ar
    32    21    16   ar
@<TRIPOS>MOLECULE
*****
 29 32 0 0 0
SMALL
GASTEIGER

@<TRIPOS>ATOM
      1 C           6.2023    0.2370   21.5880 C.3     1  UNL1        0.0233
      2 C           5.7762   -1.1425   21.9945 C.3     1  UNL1        0.0953
      3 C           6.4736   -1.8406   23.1241 C.3     1  UNL1        0.1106
      4 N           6.0475   -3.2202   23.5306 N.pl3   1  UNL1       -0.3041
      5 C           4.9239   -3.9017   22.8074 C.3     1  UNL1        0.1123
      6 C           4.2264   -3.2036   21.6778 C.3     1  UNL1        0.1149
      7 N           4.6526   -1.8240   21.2713 N.pl3   1  UNL1       -0.2777
      8 C           3.9551   -1.1259   20.1415 C.ar    1  UNL1        0.2035
      9 N           2.8519   -0.1511   20.4292 N.ar    1  UNL1       -0.2133
     10 C           2.1544    0.5470   19.2996 C.ar    1  UNL1        0.1065
     11 C           2.5600    0.2702   17.8822 C.ar    1  UNL1        0.0815
     12 C           3.6632   -0.7046   17.5945 C.ar    1  UNL1        0.2646
     13 O           4.0688   -0.9814   16.1772 O.2     1  UNL1       -0.2668
     14 N           4.3607   -1.4027   18.7242 N.ar    1  UNL1       -0.2667
     15 C           5.4639   -2.3776   18.4366 C.3     1  UNL1        0.1363
     16 C           1.0513    1.5218   19.5872 C.ar    1  UNL1        0.1024
     17 C           0.5336    2.4119   18.4965 C.ar    1  UNL1        0.0414
     18 C          -0.5695    3.3868   18.7842 C.ar    1  UNL1        0.1023
     19 N          -1.1550    3.4715   20.1625 N.ar    1  UNL1       -0.2224
     20 C          -0.6374    2.5813   21.2533 C.ar    1  UNL1        0.1989
     21 N           0.4657    1.6065   20.9657 N.ar    1  UNL1       -0.2224
     22 C           6.7450   -3.9183   24.6604 C.ar    1  UNL1        0.0480
     23 C           7.5236   -5.1736   24.3998 C.ar    1  UNL1        0.0152
     24 C           8.2211   -5.8717   25.5294 C.ar    1  UNL1        0.0115
     25 C           8.1400   -5.3144   26.9197 C.ar    1  UNL1        0.0685
     26 C           7.3614   -4.0591   27.1803 C.ar    1  UNL1        0.0115
     27 C           6.6639   -3.3610   26.0506 C.ar    1  UNL1        0.0152
     28 C           8.8375   -6.0125   28.0494 C.1     1  UNL1        0.1004
     29 N           9.5350   -6.7106   29.1790 N.1     1  UNL1       -0.1908
@<TRIPOS>BOND
     1     2     1    1
     2     2     3    1
     3     3     4    1
     4     4    22    1
     5    22    23   ar
     6    23    24   ar
     7    24    25   ar
     8    25    28    1
     9    28    29    3
    10    25    26   ar
    11    26    27   ar
    12     4     5    1
    13     5     6    1
    14     6     7    1
    15     7     8    1
    16     8     9   ar
    17     9    10   ar
    18    10    16    1
    19    16    17   ar
    20    17    18   ar
    21    18    19   ar
    22    19    20   ar
    23    20    21   ar
    24    10    11   ar
    25    11    12   ar
    26    12    13    2
    27    12    14   ar
    28    14    15    1
    29     7     2    1
    30    14     8   ar
    31    27    22   ar
    32    21    16   ar
@<TRIPOS>MOLECULE
*****
 29 32 0 0 0
SMALL
GASTEIGER

@<TRIPOS>ATOM
      1 C           6.0564    1.5823   32.1476 C.3     1  UNL1        0.0233
      2 C           5.6157    0.1722   32.4072 C.3     1  UNL1        0.0953
      3 C           6.2628   -0.9633   31.6712 C.3     1  UNL1        0.1106
      4 N           5.8221   -2.3734   31.9307 N.pl3   1  UNL1       -0.3041
      5 C           4.7344   -2.6480   32.9264 C.3     1  UNL1        0.1123
      6 C           4.0873   -1.5125   33.6625 C.3     1  UNL1        0.1149
      7 N           4.5280   -0.1024   33.4029 N.pl3   1  UNL1       -0.2777
      8 C           3.8809    1.0331   34.1391 C.ar    1  UNL1        0.2035
      9 N           4.3358    1.3851   35.5244 N.ar    1  UNL1       -0.2133
     10 C           3.6888    2.5205   36.2605 C.ar    1  UNL1        0.1065
     11 C           2.5867    3.3042   35.6114 C.ar    1  UNL1        0.0815
     12 C           2.1317    2.9523   34.2260 C.ar    1  UNL1        0.2646
     13 O           1.0297    3.7358   33.5768 O.2     1  UNL1       -0.2668
     14 N           2.7788    1.8167   33.4899 N.ar    1  UNL1       -0.2667
     15 C           2.3238    1.4648   32.1045 C.3     1  UNL1        0.1363
     16 C           4.1438    2.8724   37.6459 C.ar    1  UNL1        0.1024
     17 C           5.4039    2.2733   38.1963 C.ar    1  UNL1        0.0414
     18 C           5.8589    2.6252   39.5816 C.ar    1  UNL1        0.1023
     19 N           5.0537    3.5763   40.4165 N.ar    1  UNL1       -0.2224
     20 C           3.7935    4.1755   39.8661 C.ar    1  UNL1        0.1989
     21 N           3.3385    3.8236   38.4808 N.ar    1  UNL1       -0.2224
     22 C           6.4692   -3.5090   31.1946 C.ar    1  UNL1        0.0480
     23 C           6.8794   -4.7467   31.9361 C.ar    1  UNL1        0.0152
     24 C           7.5265   -5.8822   31.2001 C.ar    1  UNL1        0.0115
     25 C           7.7634   -5.7800   29.7224 C.ar    1  UNL1        0.0685
     26 C           7.3533   -4.5424   28.9808 C.ar    1  UNL1        0.0115
     27 C           6.7062   -3.4068   29.7170 C.ar    1  UNL1        0.0152
     28 C           8.4105   -6.9156   28.9863 C.1     1  UNL1        0.1004
     29 N           9.0576   -8.0511   28.2502 N.1     1  UNL1       -0.1908
@<TRIPOS>BOND
     1     2     1    1
     2     2     3    1
     3     3     4    1
     4     4    22    1
     5    22    23   ar
     6    23    24   ar
     7    24    25   ar
     8    25    28    1
     9    28    29    3
    10    25    26   ar
    11    26    27   ar
    12     4     5    1
    13     5     6    1
    14     6     7    1
    15     7     8    1
    16     8     9   ar
    17     9    10   ar
    18    10    16    1
    19    16    17   ar
    20    17    18   ar
    21    18    19   ar
    22    19    20   ar
    23    20    21   ar
    24    10    11   ar
    25    11    12   ar
    26    12    13    2
    27    12    14   ar
    28    14    15    1
    29     7     2    1
    30    14     8   ar
    31    27    22   ar
    32    21    16   ar
@<TRIPOS>MOLECULE
*****
 29 32 0 0 0
SMALL
GASTEIGER

@<TRIPOS>ATOM
      1 C          -0.9914    0.2530   29.2102 C.3     1  UNL1        0.0233
      2 C          -0.2902    1.1986   28.2806 C.3     1  UNL1        0.0953
      3 C          -0.9059    1.5437   26.9570 C.3     1  UNL1        0.1106
      4 N          -0.2048    2.4893   26.0274 N.pl3   1  UNL1       -0.3041
      5 C           1.1121    3.0899   26.4213 C.3     1  UNL1        0.1123
      6 C           1.7278    2.7448   27.7448 C.3     1  UNL1        0.1149
      7 N           1.0266    1.7992   28.6745 N.pl3   1  UNL1       -0.2777
      8 C           1.6424    1.4542   29.9981 C.ar    1  UNL1        0.2035
      9 N           1.4355    2.3554   31.1792 N.ar    1  UNL1       -0.2133
     10 C           2.0512    2.0104   32.5027 C.ar    1  UNL1        0.1065
     11 C           2.8739    0.7641   32.6452 C.ar    1  UNL1        0.0815
     12 C           3.0807   -0.1371   31.4641 C.ar    1  UNL1        0.2646
     13 O           3.9033   -1.3833   31.6066 O.2     1  UNL1       -0.2668
     14 N           2.4649    0.2080   30.1405 N.ar    1  UNL1       -0.2667
     15 C           2.6718   -0.6933   28.9594 C.3     1  UNL1        0.1363
     16 C           1.8444    2.9116   33.6839 C.ar    1  UNL1        0.1024
     17 C           1.1721    4.2404   33.5047 C.ar    1  UNL1        0.0414
     18 C           0.9652    5.1416   34.6858 C.ar    1  UNL1        0.1023
     19 N           1.4307    4.7140   36.0461 N.ar    1  UNL1       -0.2224
     20 C           2.1030    3.3851   36.2253 C.ar    1  UNL1        0.1989
     21 N           2.3099    2.4839   35.0442 N.ar    1  UNL1       -0.2224
     22 C          -0.8205    2.8343   24.7038 C.ar    1  UNL1        0.0480
     23 C          -0.0493    2.6107   23.4368 C.ar    1  UNL1        0.0152
     24 C          -0.6650    2.9557   22.1132 C.ar    1  UNL1        0.0115
     25 C          -2.0520    3.5244   22.0566 C.ar    1  UNL1        0.0685
     26 C          -2.8231    3.7480   23.3236 C.ar    1  UNL1        0.0115
     27 C          -2.2074    3.4030   24.6472 C.ar    1  UNL1        0.0152
     28 C          -2.6677    3.8694   20.7331 C.1     1  UNL1        0.1004
     29 N          -3.2833    4.2144   19.4095 N.1     1  UNL1       -0.1908
@<TRIPOS>BOND
     1     2     1    1
     2     2     3    1
     3     3     4    1
     4     4    22    1
     5    22    23   ar
     6    23    24   ar
     7    24    25   ar
     8    25    28    1
     9    28    29    3
    10    25    26   ar
    11    26    27   ar
    12     4     5    1
    13     5     6    1
    14     6     7    1
    15     7     8    1
    16     8     9   ar
    17     9    10   ar
    18    10    16    1
    19    16    17   ar
    20    17    18   ar
    21    18    19   ar
    22    19    20   ar
    23    20    21   ar
    24    10    11   ar
    25    11    12   ar
    26    12    13    2
    27    12    14   ar
    28    14    15    1
    29     7     2    1
    30    14     8   ar
    31    27    22   ar
    32    21    16   ar
@<TRIPOS>MOLECULE
*****
 29 32 0 0 0
SMALL
GASTEIGER

@<TRIPOS>ATOM
      1 C           2.3355    3.9369   29.1843 C.3     1  UNL1        0.0233
      2 C           1.1718    3.0997   28.7426 C.3     1  UNL1        0.0953
      3 C           0.3532    3.5190   27.5577 C.3     1  UNL1        0.1106
      4 N          -0.8105    2.6819   27.1160 N.pl3   1  UNL1       -0.3041
      5 C          -1.1555    1.4255   27.8591 C.3     1  UNL1        0.1123
      6 C          -0.3369    1.0062   29.0440 C.3     1  UNL1        0.1149
      7 N           0.8268    1.8433   29.4857 N.pl3   1  UNL1       -0.2777
      8 C           1.6454    1.4240   30.6707 C.ar    1  UNL1        0.2035
      9 N           2.6731    0.3409   30.5268 N.ar    1  UNL1       -0.2133
     10 C           3.4917   -0.0785   31.7116 C.ar    1  UNL1        0.1065
     11 C           3.2827    0.5853   33.0405 C.ar    1  UNL1        0.0815
     12 C           2.2550    1.6684   33.1844 C.ar    1  UNL1        0.2646
     13 O           2.0460    2.3322   34.5132 O.2     1  UNL1       -0.2668
     14 N           1.4364    2.0877   31.9995 N.ar    1  UNL1       -0.2667
     15 C           0.4087    3.1709   32.1434 C.3     1  UNL1        0.1363
     16 C           4.5194   -1.1616   31.5677 C.ar    1  UNL1        0.1024
     17 C           4.7913   -2.0942   32.7107 C.ar    1  UNL1        0.0414
     18 C           5.8190   -3.1773   32.5668 C.ar    1  UNL1        0.1023
     19 N           6.5748   -3.3279   31.2799 N.ar    1  UNL1       -0.2224
     20 C           6.3029   -2.3953   30.1369 C.ar    1  UNL1        0.1989
     21 N           5.2752   -1.3122   30.2808 N.ar    1  UNL1       -0.2224
     22 C          -1.6291    3.1013   25.9310 C.ar    1  UNL1        0.0480
     23 C          -1.0196    3.1010   24.5604 C.ar    1  UNL1        0.0152
     24 C          -1.8382    3.5204   23.3755 C.ar    1  UNL1        0.0115
     25 C          -3.2663    3.9400   23.5611 C.ar    1  UNL1        0.0685
     26 C          -3.8758    3.9402   24.9317 C.ar    1  UNL1        0.0115
     27 C          -3.0572    3.5208   26.1167 C.ar    1  UNL1        0.0152
     28 C          -4.0849    4.3593   22.3762 C.1     1  UNL1        0.1004
     29 N          -4.9035    4.7786   21.1913 N.1     1  UNL1       -0.1908
@<TRIPOS>BOND
     1     2     1    1
     2     2     3    1
     3     3     4    1
     4     4    22    1
     5    22    23   ar
     6    23    24   ar
     7    24    25   ar
     8    25    28    1
     9    28    29    3
    10    25    26   ar
    11    26    27   ar
    12     4     5    1
    13     5     6    1
    14     6     7    1
    15     7     8    1
    16     8     9   ar
    17     9    10   ar
    18    10    16    1
    19    16    17   ar
    20    17    18   ar
    21    18    19   ar
    22    19    20   ar
    23    20    21   ar
    24    10    11   ar
    25    11    12   ar
    26    12    13    2
    27    12    14   ar
    28    14    15    1
    29     7     2    1
    30    14     8   ar
    31    27    22   ar
    32    21    16   ar
@<TRIPOS>MOLECULE
*****
 29 32 0 0 0
SMALL
GASTEIGER

@<TRIPOS>ATOM
      1 C           2.4346    3.8446   29.4339 C.3     1  UNL1        0.0233
      2 C           1.2606    3.0074   29.0209 C.3     1  UNL1        0.0953
      3 C           0.4037    3.4348   27.8664 C.3     1  UNL1        0.1106
      4 N          -0.7704    2.5976   27.4534 N.pl3   1  UNL1       -0.3041
      5 C          -1.0876    1.3330   28.1949 C.3     1  UNL1        0.1123
      6 C          -0.2308    0.9056   29.3495 C.3     1  UNL1        0.1149
      7 N           0.9433    1.7428   29.7625 N.pl3   1  UNL1       -0.2777
      8 C           1.8002    1.3153   30.9171 C.ar    1  UNL1        0.2035
      9 N           1.7052    2.0365   32.2290 N.ar    1  UNL1       -0.2133
     10 C           2.5620    1.6090   33.3836 C.ar    1  UNL1        0.1065
     11 C           3.5138    0.4604   33.2264 C.ar    1  UNL1        0.0815
     12 C           3.6088   -0.2608   31.9146 C.ar    1  UNL1        0.2646
     13 O           4.5606   -1.4094   31.7573 O.2     1  UNL1       -0.2668
     14 N           2.7520    0.1667   30.7599 N.ar    1  UNL1       -0.2667
     15 C           2.8469   -0.5545   29.4481 C.3     1  UNL1        0.1363
     16 C           2.4670    2.3302   34.6954 C.ar    1  UNL1        0.1024
     17 C           3.1531    1.7747   35.9081 C.ar    1  UNL1        0.0414
     18 C           3.0581    2.4959   37.2199 C.ar    1  UNL1        0.1023
     19 N           2.2770    3.7726   37.3190 N.ar    1  UNL1       -0.2224
     20 C           1.5909    4.3282   36.1063 C.ar    1  UNL1        0.1989
     21 N           1.6859    3.6070   34.7945 N.ar    1  UNL1       -0.2224
     22 C          -1.6272    3.0251   26.2987 C.ar    1  UNL1        0.0480
     23 C          -1.0951    2.9421   24.8988 C.ar    1  UNL1        0.0152
     24 C          -1.9519    3.3696   23.7442 C.ar    1  UNL1        0.0115
     25 C          -3.3409    3.8800   23.9895 C.ar    1  UNL1        0.0685
     26 C          -3.8731    3.9630   25.3895 C.ar    1  UNL1        0.0115
     27 C          -3.0162    3.5355   26.5441 C.ar    1  UNL1        0.0152
     28 C          -4.1977    4.3075   22.8349 C.1     1  UNL1        0.1004
     29 N          -5.0545    4.7349   21.6803 N.1     1  UNL1       -0.1908
@<TRIPOS>BOND
     1     2     1    1
     2     2     3    1
     3     3     4    1
     4     4    22    1
     5    22    23   ar
     6    23    24   ar
     7    24    25   ar
     8    25    28    1
     9    28    29    3
    10    25    26   ar
    11    26    27   ar
    12     4     5    1
    13     5     6    1
    14     6     7    1
    15     7     8    1
    16     8     9   ar
    17     9    10   ar
    18    10    16    1
    19    16    17   ar
    20    17    18   ar
    21    18    19   ar
    22    19    20   ar
    23    20    21   ar
    24    10    11   ar
    25    11    12   ar
    26    12    13    2
    27    12    14   ar
    28    14    15    1
    29     7     2    1
    30    14     8   ar
    31    27    22   ar
    32    21    16   ar
