@<TRIPOS>MOLECULE
*****
 28 32 0 0 0
SMALL
GASTEIGER

@<TRIPOS>ATOM
      1 C           6.7884   -4.0196   23.1788 C.ar    1  UNL1        0.1385
      2 C           6.5277   -2.5813   23.5156 C.ar    1  UNL1        0.0384
      3 C           6.4113   -2.1561   24.9493 C.ar    1  UNL1        0.0203
      4 C           6.5556   -3.1690   26.0462 C.ar    1  UNL1        0.0602
      5 C           6.8163   -4.6072   25.7094 C.ar    1  UNL1        0.0204
      6 C           6.9327   -5.0325   24.2757 C.ar    1  UNL1        0.0384
      7 C           6.9122   -5.3743   26.9948 C.ar    1  UNL1        0.0234
      8 C           6.7108   -4.4101   28.1261 C.ar    1  UNL1        0.1143
      9 N           6.4904   -3.0472   27.5399 N.ar    1  UNL1       -0.3219
     10 C           6.2588   -1.8713   28.4418 C.3     1  UNL1        0.1276
     11 C           6.2476   -2.0584   29.9301 C.3     1  UNL1        0.1182
     12 N           6.4680   -3.4213   30.5163 N.am    1  UNL1       -0.2729
     13 C           6.6996   -4.5973   29.6143 C.2     1  UNL1        0.2650
     14 O           6.9200   -5.9603   30.2006 O.2     1  UNL1       -0.2683
     15 O           6.9047   -4.4449   21.7450 O.3     1  UNL1       -0.4791
     16 N           5.5833   -1.6680   18.4599 N.3     1  UNL1       -0.2737
     17 C           4.5671   -2.4678   19.2199 C.3     1  UNL1        0.0758
     18 C           5.0076   -3.3935   20.3150 C.3     1  UNL1        0.0609
     19 C           6.4642   -3.5193   20.6500 C.3     1  UNL1        0.1687
     20 C           7.4804   -2.7194   19.8900 C.3     1  UNL1        0.0609
     21 C           7.0399   -1.7938   18.7949 C.3     1  UNL1        0.0758
     22 C           6.0905    0.2889   16.8279 C.3     1  UNL1        0.0173
     23 C           5.1428   -0.7423   17.3649 C.3     1  UNL1        0.0576
     24 C           3.7544   -0.8479   16.8067 C.3     1  UNL1        0.0173
     25 C           6.4568   -3.6084   32.0046 C.3     1  UNL1        0.0938
     26 C           5.5863   -2.7394   32.8632 C.3     1  UNL1        0.0199
     27 C           5.3938   -1.4944   33.6773 C.3     1  UNL1        0.0018
     28 C           4.2713   -2.4794   33.5363 C.3     1  UNL1        0.0018
@<TRIPOS>BOND
     1    22    23    1
     2    23    24    1
     3    23    16    1
     4    16    17    1
     5    17    18    1
     6    18    19    1
     7    19    15    1
     8    15     1    1
     9     1     2   ar
    10     2     3   ar
    11     3     4   ar
    12     4     5   ar
    13     5     6   ar
    14     5     7   ar
    15     7     8   ar
    16     8     9   ar
    17     9    10    1
    18    10    11    1
    19    11    12    1
    20    12    25    1
    21    25    26    1
    22    26    27    1
    23    27    28    1
    24    12    13   am
    25    13    14    2
    26    19    20    1
    27    20    21    1
    28    21    16    1
    29     6     1   ar
    30    13     8    1
    31     9     4   ar
    32    28    26    1
@<TRIPOS>MOLECULE
*****
 28 32 0 0 0
SMALL
GASTEIGER

@<TRIPOS>ATOM
      1 C         -15.8592    0.9653   19.5431 C.ar    1  UNL1        0.1385
      2 C         -16.4137   -0.3203   20.0813 C.ar    1  UNL1        0.0384
      3 C         -15.6667   -1.6044   19.8738 C.ar    1  UNL1        0.0203
      4 C         -14.3652   -1.6029   19.1282 C.ar    1  UNL1        0.0602
      5 C         -13.8106   -0.3173   18.5900 C.ar    1  UNL1        0.0204
      6 C         -14.5576    0.9668   18.7975 C.ar    1  UNL1        0.0384
      7 C         -12.5145   -0.6243   17.9003 C.ar    1  UNL1        0.0234
      8 C         -12.2679   -2.0997   18.0123 C.ar    1  UNL1        0.1143
      9 N         -13.4117   -2.7045   18.7711 N.ar    1  UNL1       -0.3219
     10 C         -13.4373   -4.1801   19.0390 C.3     1  UNL1        0.1276
     11 C         -12.3190   -5.0509   18.5480 C.3     1  UNL1        0.1182
     12 N         -11.1752   -4.4461   17.7891 N.am    1  UNL1       -0.2729
     13 C         -11.1497   -2.9704   17.5213 C.2     1  UNL1        0.2650
     14 O         -10.0058   -2.3656   16.7624 O.2     1  UNL1       -0.2683
     15 O         -16.6062    2.2495   19.7506 O.3     1  UNL1       -0.4791
     16 N         -16.3334    4.3993   23.6944 N.3     1  UNL1       -0.2737
     17 C         -15.4929    4.8480   22.5360 C.3     1  UNL1        0.0758
     18 C         -15.5838    4.1314   21.2213 C.3     1  UNL1        0.0609
     19 C         -16.5152    2.9661   21.0652 C.3     1  UNL1        0.1687
     20 C         -17.3558    2.5173   22.2237 C.3     1  UNL1        0.0609
     21 C         -17.2648    3.2339   23.5383 C.3     1  UNL1        0.0758
     22 C         -17.4355    5.8480   25.5482 C.3     1  UNL1        0.0173
     23 C         -16.2425    5.1159   25.0090 C.3     1  UNL1        0.0576
     24 C         -14.9585    5.1004   25.7844 C.3     1  UNL1        0.0173
     25 C         -10.0569   -5.3170   17.2981 C.3     1  UNL1        0.0938
     26 C          -9.9005   -6.7096   17.8329 C.3     1  UNL1        0.0199
     27 C          -9.3888   -7.6467   18.8865 C.3     1  UNL1        0.0018
     28 C         -10.1414   -8.1847   17.7058 C.3     1  UNL1        0.0018
@<TRIPOS>BOND
     1    22    23    1
     2    23    24    1
     3    23    16    1
     4    16    17    1
     5    17    18    1
     6    18    19    1
     7    19    15    1
     8    15     1    1
     9     1     2   ar
    10     2     3   ar
    11     3     4   ar
    12     4     5   ar
    13     5     6   ar
    14     5     7   ar
    15     7     8   ar
    16     8     9   ar
    17     9    10    1
    18    10    11    1
    19    11    12    1
    20    12    25    1
    21    25    26    1
    22    26    27    1
    23    27    28    1
    24    12    13   am
    25    13    14    2
    26    19    20    1
    27    20    21    1
    28    21    16    1
    29     6     1   ar
    30    13     8    1
    31     9     4   ar
    32    28    26    1
@<TRIPOS>MOLECULE
*****
 28 32 0 0 0
SMALL
GASTEIGER

@<TRIPOS>ATOM
      1 C          -1.6800    3.6672   19.7228 C.ar    1  UNL1        0.1385
      2 C          -1.0376    3.7490   18.3698 C.ar    1  UNL1        0.0384
      3 C           0.1127    2.8482   18.0301 C.ar    1  UNL1        0.0203
      4 C           0.6206    1.8657   19.0434 C.ar    1  UNL1        0.0602
      5 C          -0.0218    1.7840   20.3964 C.ar    1  UNL1        0.0204
      6 C          -1.1721    2.6847   20.7361 C.ar    1  UNL1        0.0384
      7 C           0.6902    0.7246   21.1843 C.ar    1  UNL1        0.0234
      8 C           1.7727    0.1517   20.3183 C.ar    1  UNL1        0.1143
      9 N           1.7297    0.8569   18.9951 N.ar    1  UNL1       -0.3219
     10 C           2.7060    0.4894   17.9173 C.3     1  UNL1        0.1276
     11 C           3.7253   -0.5834   18.1627 C.3     1  UNL1        0.1182
     12 N           3.7682   -1.2886   19.4858 N.am    1  UNL1       -0.2729
     13 C           2.7919   -0.9211   20.5637 C.2     1  UNL1        0.2650
     14 O           2.8349   -1.6264   21.8869 O.2     1  UNL1       -0.2683
     15 O          -2.8304    4.5680   20.0625 O.3     1  UNL1       -0.4791
     16 N          -4.4054    4.7145   24.2753 N.3     1  UNL1       -0.2737
     17 C          -5.1333    3.9231   23.2296 C.3     1  UNL1        0.0758
     18 C          -4.6084    3.8742   21.8253 C.3     1  UNL1        0.0609
     19 C          -3.3554    4.6168   21.4667 C.3     1  UNL1        0.1687
     20 C          -2.6274    5.4083   22.5126 C.3     1  UNL1        0.0609
     21 C          -3.1524    5.4572   23.9168 C.3     1  UNL1        0.0758
     22 C          -6.1900    5.5190   25.9835 C.3     1  UNL1        0.0173
     23 C          -4.9304    4.7634   25.6795 C.3     1  UNL1        0.0576
     24 C          -4.1957    4.0566   26.7800 C.3     1  UNL1        0.0173
     25 C           4.7876   -2.3615   19.7312 C.3     1  UNL1        0.0938
     26 C           4.4328   -3.8003   19.4988 C.3     1  UNL1        0.0199
     27 C           4.6356   -5.0834   18.7488 C.3     1  UNL1        0.0018
     28 C           3.6157   -5.0093   19.8463 C.3     1  UNL1        0.0018
@<TRIPOS>BOND
     1    22    23    1
     2    23    24    1
     3    23    16    1
     4    16    17    1
     5    17    18    1
     6    18    19    1
     7    19    15    1
     8    15     1    1
     9     1     2   ar
    10     2     3   ar
    11     3     4   ar
    12     4     5   ar
    13     5     6   ar
    14     5     7   ar
    15     7     8   ar
    16     8     9   ar
    17     9    10    1
    18    10    11    1
    19    11    12    1
    20    12    25    1
    21    25    26    1
    22    26    27    1
    23    27    28    1
    24    12    13   am
    25    13    14    2
    26    19    20    1
    27    20    21    1
    28    21    16    1
    29     6     1   ar
    30    13     8    1
    31     9     4   ar
    32    28    26    1
@<TRIPOS>MOLECULE
*****
 28 32 0 0 0
SMALL
GASTEIGER

@<TRIPOS>ATOM
      1 C           7.5403   -4.8203   23.5658 C.ar    1  UNL1        0.1385
      2 C           7.6413   -6.1576   24.2376 C.ar    1  UNL1        0.0384
      3 C           7.5344   -6.2569   25.7305 C.ar    1  UNL1        0.0203
      4 C           7.3266   -5.0188   26.5515 C.ar    1  UNL1        0.0602
      5 C           7.2256   -3.6816   25.8797 C.ar    1  UNL1        0.0204
      6 C           7.3325   -3.5823   24.3868 C.ar    1  UNL1        0.0384
      7 C           7.0216   -2.6431   26.9426 C.ar    1  UNL1        0.0234
      8 C           6.9965   -3.3385   28.2714 C.ar    1  UNL1        0.1143
      9 N           7.1850   -4.8069   28.0297 N.ar    1  UNL1       -0.3219
     10 C           7.2033   -5.7611   29.1868 C.3     1  UNL1        0.1276
     11 C           7.0332   -5.2471   30.5857 C.3     1  UNL1        0.1182
     12 N           6.8447   -3.7787   30.8274 N.am    1  UNL1       -0.2729
     13 C           6.8263   -2.8244   29.6702 C.2     1  UNL1        0.2650
     14 O           6.6378   -1.3560   29.9120 O.2     1  UNL1       -0.2683
     15 O           7.6472   -4.7210   22.0728 O.3     1  UNL1       -0.4791
     16 N           4.7247   -2.1889   19.7713 N.3     1  UNL1       -0.2737
     17 C           4.2460   -3.0376   20.9117 C.3     1  UNL1        0.0758
     18 C           5.2202   -3.8817   21.6789 C.3     1  UNL1        0.0609
     19 C           6.6730   -3.8770   21.3057 C.3     1  UNL1        0.1687
     20 C           7.1517   -3.0282   20.1652 C.3     1  UNL1        0.0609
     21 C           6.1775   -2.1842   19.3981 C.3     1  UNL1        0.0758
     22 C           4.0245   -0.9987   17.5706 C.3     1  UNL1        0.0173
     23 C           3.7505   -1.3449   19.0042 C.3     1  UNL1        0.0576
     24 C           2.5022   -0.8470   19.6705 C.3     1  UNL1        0.0173
     25 C           6.6745   -3.2646   32.2263 C.3     1  UNL1        0.0938
     26 C           5.3591   -2.6875   32.6584 C.3     1  UNL1        0.0199
     27 C           4.1678   -2.7087   33.5696 C.3     1  UNL1        0.0018
     28 C           4.2721   -1.6668   32.4956 C.3     1  UNL1        0.0018
@<TRIPOS>BOND
     1    22    23    1
     2    23    24    1
     3    23    16    1
     4    16    17    1
     5    17    18    1
     6    18    19    1
     7    19    15    1
     8    15     1    1
     9     1     2   ar
    10     2     3   ar
    11     3     4   ar
    12     4     5   ar
    13     5     6   ar
    14     5     7   ar
    15     7     8   ar
    16     8     9   ar
    17     9    10    1
    18    10    11    1
    19    11    12    1
    20    12    25    1
    21    25    26    1
    22    26    27    1
    23    27    28    1
    24    12    13   am
    25    13    14    2
    26    19    20    1
    27    20    21    1
    28    21    16    1
    29     6     1   ar
    30    13     8    1
    31     9     4   ar
    32    28    26    1
@<TRIPOS>MOLECULE
*****
 28 32 0 0 0
SMALL
GASTEIGER

@<TRIPOS>ATOM
      1 C           6.5846   -3.4476   29.7574 C.ar    1  UNL1        0.1385
      2 C           5.9673   -2.1550   29.3125 C.ar    1  UNL1        0.0384
      3 C           5.8063   -1.8651   27.8497 C.ar    1  UNL1        0.0203
      4 C           6.2626   -2.8678   26.8317 C.ar    1  UNL1        0.0602
      5 C           6.8799   -4.1605   27.2766 C.ar    1  UNL1        0.0204
      6 C           7.0409   -4.4504   28.7394 C.ar    1  UNL1        0.0384
      7 C           7.2327   -4.9513   26.0518 C.ar    1  UNL1        0.0234
      8 C           6.8335   -4.1474   24.8500 C.ar    1  UNL1        0.1143
      9 N           6.2339   -2.8597   25.3319 N.ar    1  UNL1       -0.3219
     10 C           5.7393   -1.8462   24.3430 C.3     1  UNL1        0.1276
     11 C           5.8443   -2.1204   22.8720 C.3     1  UNL1        0.1182
     12 N           6.4439   -3.4081   22.3900 N.am    1  UNL1       -0.2729
     13 C           6.9385   -4.4216   23.3791 C.2     1  UNL1        0.2650
     14 O           7.5382   -5.7094   22.8970 O.2     1  UNL1       -0.2683
     15 O           6.7456   -3.7376   31.2203 O.3     1  UNL1       -0.4791
     16 N           5.3362   -0.7488   34.2750 N.3     1  UNL1       -0.2737
     17 C           4.4144   -1.8365   33.8090 C.3     1  UNL1        0.0758
     18 C           4.8842   -2.8328   32.7907 C.3     1  UNL1        0.0609
     19 C           6.2758   -2.7414   32.2385 C.3     1  UNL1        0.1687
     20 C           7.1977   -1.6537   32.7046 C.3     1  UNL1        0.0609
     21 C           6.7279   -0.6574   33.7228 C.3     1  UNL1        0.0758
     22 C           5.1937    0.0486   36.7435 C.3     1  UNL1        0.0173
     23 C           4.8664    0.2474   35.2932 C.3     1  UNL1        0.0576
     24 C           4.0693    1.4424   34.8611 C.3     1  UNL1        0.0173
     25 C           6.5489   -3.6823   20.9190 C.3     1  UNL1        0.0938
     26 C           5.3084   -3.9203   20.1100 C.3     1  UNL1        0.0199
     27 C           3.8804   -3.5878   19.7933 C.3     1  UNL1        0.0018
     28 C           4.5877   -4.6649   19.0255 C.3     1  UNL1        0.0018
@<TRIPOS>BOND
     1    22    23    1
     2    23    24    1
     3    23    16    1
     4    16    17    1
     5    17    18    1
     6    18    19    1
     7    19    15    1
     8    15     1    1
     9     1     2   ar
    10     2     3   ar
    11     3     4   ar
    12     4     5   ar
    13     5     6   ar
    14     5     7   ar
    15     7     8   ar
    16     8     9   ar
    17     9    10    1
    18    10    11    1
    19    11    12    1
    20    12    25    1
    21    25    26    1
    22    26    27    1
    23    27    28    1
    24    12    13   am
    25    13    14    2
    26    19    20    1
    27    20    21    1
    28    21    16    1
    29     6     1   ar
    30    13     8    1
    31     9     4   ar
    32    28    26    1
@<TRIPOS>MOLECULE
*****
 28 32 0 0 0
SMALL
GASTEIGER

@<TRIPOS>ATOM
      1 C          -0.5357    2.8538   20.1196 C.ar    1  UNL1        0.1385
      2 C          -0.3171    2.2821   21.4890 C.ar    1  UNL1        0.0384
      3 C           0.7021    1.2014   21.6966 C.ar    1  UNL1        0.0203
      4 C           1.5027    0.6923   20.5347 C.ar    1  UNL1        0.0602
      5 C           1.2841    1.2640   19.1653 C.ar    1  UNL1        0.0204
      6 C           0.2649    2.3448   18.9578 C.ar    1  UNL1        0.0384
      7 C           2.2158    0.5677   18.2182 C.ar    1  UNL1        0.0234
      8 C           3.0102   -0.4344   19.0023 C.ar    1  UNL1        0.1143
      9 N           2.5695   -0.3574   20.4340 N.ar    1  UNL1       -0.3219
     10 C           3.1966   -1.2530   21.4609 C.3     1  UNL1        0.1276
     11 C           4.2643   -2.2256   21.0561 C.3     1  UNL1        0.1182
     12 N           4.7050   -2.3026   19.6244 N.am    1  UNL1       -0.2729
     13 C           4.0780   -1.4069   18.5975 C.2     1  UNL1        0.2650
     14 O           4.5187   -1.4840   17.1657 O.2     1  UNL1       -0.2683
     15 O          -1.5550    3.9346   19.9120 O.3     1  UNL1       -0.4791
     16 N          -5.0033    4.3550   22.7724 N.3     1  UNL1       -0.2737
     17 C          -5.0632    3.3401   21.6696 C.3     1  UNL1        0.0758
     18 C          -3.9137    3.1999   20.7161 C.3     1  UNL1        0.0609
     19 C          -2.7044    4.0748   20.8654 C.3     1  UNL1        0.1687
     20 C          -2.6446    5.0897   21.9683 C.3     1  UNL1        0.0609
     21 C          -3.7940    5.2298   22.9218 C.3     1  UNL1        0.0758
     22 C          -5.8929    4.6997   25.1890 C.3     1  UNL1        0.0173
     23 C          -6.1527    4.4951   23.7259 C.3     1  UNL1        0.0576
     24 C          -7.5621    4.4306   23.2163 C.3     1  UNL1        0.0173
     25 C           5.7729   -3.2752   19.2196 C.3     1  UNL1        0.0938
     26 C           6.9767   -3.4734   20.0922 C.3     1  UNL1        0.0199
     27 C           8.3815   -3.1078   20.4702 C.3     1  UNL1        0.0018
     28 C           7.6571   -4.1823   21.2256 C.3     1  UNL1        0.0018
@<TRIPOS>BOND
     1    22    23    1
     2    23    24    1
     3    23    16    1
     4    16    17    1
     5    17    18    1
     6    18    19    1
     7    19    15    1
     8    15     1    1
     9     1     2   ar
    10     2     3   ar
    11     3     4   ar
    12     4     5   ar
    13     5     6   ar
    14     5     7   ar
    15     7     8   ar
    16     8     9   ar
    17     9    10    1
    18    10    11    1
    19    11    12    1
    20    12    25    1
    21    25    26    1
    22    26    27    1
    23    27    28    1
    24    12    13   am
    25    13    14    2
    26    19    20    1
    27    20    21    1
    28    21    16    1
    29     6     1   ar
    30    13     8    1
    31     9     4   ar
    32    28    26    1
@<TRIPOS>MOLECULE
*****
 28 32 0 0 0
SMALL
GASTEIGER

@<TRIPOS>ATOM
      1 C           1.7390    1.4033   26.7962 C.ar    1  UNL1        0.1385
      2 C           0.7279    1.8973   25.8044 C.ar    1  UNL1        0.0384
      3 C           0.7970    1.4467   24.3754 C.ar    1  UNL1        0.0203
      4 C           1.8771    0.5022   23.9381 C.ar    1  UNL1        0.0602
      5 C           2.8882    0.0082   24.9299 C.ar    1  UNL1        0.0204
      6 C           2.8192    0.4588   26.3589 C.ar    1  UNL1        0.0384
      7 C           3.8316   -0.9104   24.2116 C.ar    1  UNL1        0.0234
      8 C           3.4036   -0.9843   22.7758 C.ar    1  UNL1        0.1143
      9 N           2.1956   -0.1112   22.6068 N.ar    1  UNL1       -0.3219
     10 C           1.5418    0.0124   21.2625 C.3     1  UNL1        0.1276
     11 C           2.0959   -0.7370   20.0872 C.3     1  UNL1        0.1182
     12 N           3.3039   -1.6100   20.2563 N.am    1  UNL1       -0.2729
     13 C           3.9577   -1.7337   21.6006 C.2     1  UNL1        0.2650
     14 O           5.1658   -2.6068   21.7696 O.2     1  UNL1       -0.2683
     15 O           1.6700    1.8539   28.2253 O.3     1  UNL1       -0.4791
     16 N           4.1113   -0.2477   31.3675 N.3     1  UNL1       -0.2737
     17 C           4.5965    1.0448   30.7810 C.3     1  UNL1        0.0758
     18 C           3.7827    1.7454   29.7335 C.3     1  UNL1        0.0609
     19 C           2.4838    1.1534   29.2727 C.3     1  UNL1        0.1687
     20 C           1.9986   -0.1392   29.8593 C.3     1  UNL1        0.0609
     21 C           2.8124   -0.8397   30.9066 C.3     1  UNL1        0.0758
     22 C           6.1322   -0.2771   33.0000 C.3     1  UNL1        0.0173
     23 C           4.9251   -0.9482   32.4149 C.3     1  UNL1        0.0576
     24 C           4.5317   -2.3200   32.8772 C.3     1  UNL1        0.0173
     25 C           3.8581   -2.3595   19.0810 C.3     1  UNL1        0.0938
     26 C           3.9487   -3.8562   19.1209 C.3     1  UNL1        0.0199
     27 C           3.4370   -5.1758   19.6177 C.3     1  UNL1        0.0018
     28 C           4.6175   -5.1290   18.6934 C.3     1  UNL1        0.0018
@<TRIPOS>BOND
     1    22    23    1
     2    23    24    1
     3    23    16    1
     4    16    17    1
     5    17    18    1
     6    18    19    1
     7    19    15    1
     8    15     1    1
     9     1     2   ar
    10     2     3   ar
    11     3     4   ar
    12     4     5   ar
    13     5     6   ar
    14     5     7   ar
    15     7     8   ar
    16     8     9   ar
    17     9    10    1
    18    10    11    1
    19    11    12    1
    20    12    25    1
    21    25    26    1
    22    26    27    1
    23    27    28    1
    24    12    13   am
    25    13    14    2
    26    19    20    1
    27    20    21    1
    28    21    16    1
    29     6     1   ar
    30    13     8    1
    31     9     4   ar
    32    28    26    1
@<TRIPOS>MOLECULE
*****
 28 32 0 0 0
SMALL
GASTEIGER

@<TRIPOS>ATOM
      1 C           3.0945    0.8486   29.3907 C.ar    1  UNL1        0.1385
      2 C           4.0287   -0.2329   29.8462 C.ar    1  UNL1        0.0384
      3 C           4.3212   -0.4050   31.3073 C.ar    1  UNL1        0.0203
      4 C           3.6796    0.5045   32.3129 C.ar    1  UNL1        0.0602
      5 C           2.7454    1.5860   31.8574 C.ar    1  UNL1        0.0204
      6 C           2.4528    1.7581   30.3963 C.ar    1  UNL1        0.0384
      7 C           2.2650    2.3251   33.0710 C.ar    1  UNL1        0.0234
      8 C           2.9024    1.7003   34.2767 C.ar    1  UNL1        0.1143
      9 N           3.7766    0.5751   33.8081 N.ar    1  UNL1       -0.3219
     10 C           4.5481   -0.2397   34.8034 C.3     1  UNL1        0.1276
     11 C           4.4453    0.0706   36.2674 C.3     1  UNL1        0.1182
     12 N           3.5710    1.1958   36.7359 N.am    1  UNL1       -0.2729
     13 C           2.7995    2.0107   35.7405 C.2     1  UNL1        0.2650
     14 O           1.9252    3.1360   36.2092 O.2     1  UNL1       -0.2683
     15 O           2.8019    1.0207   27.9296 O.3     1  UNL1       -0.4791
     16 N          -0.8542    3.2938   26.6195 N.3     1  UNL1       -0.2737
     17 C          -0.9768    1.8646   27.0582 C.3     1  UNL1        0.0758
     18 C           0.2419    1.1069   27.4949 C.3     1  UNL1        0.0609
     19 C           1.5832    1.7784   27.4929 C.3     1  UNL1        0.1687
     20 C           1.7058    3.2076   27.0542 C.3     1  UNL1        0.0609
     21 C           0.4871    3.9652   26.6175 C.3     1  UNL1        0.0758
     22 C          -2.8999    3.5462   25.0379 C.3     1  UNL1        0.0173
     23 C          -2.0729    4.0514   26.1828 C.3     1  UNL1        0.0576
     24 C          -2.4646    5.3144   26.8911 C.3     1  UNL1        0.0173
     25 C           3.4682    1.5062   38.1999 C.3     1  UNL1        0.0938
     26 C           2.2123    1.1752   38.9504 C.3     1  UNL1        0.0199
     27 C           0.9234    1.6109   39.5820 C.3     1  UNL1        0.0018
     28 C           1.3259    0.1663   39.6184 C.3     1  UNL1        0.0018
@<TRIPOS>BOND
     1    22    23    1
     2    23    24    1
     3    23    16    1
     4    16    17    1
     5    17    18    1
     6    18    19    1
     7    19    15    1
     8    15     1    1
     9     1     2   ar
    10     2     3   ar
    11     3     4   ar
    12     4     5   ar
    13     5     6   ar
    14     5     7   ar
    15     7     8   ar
    16     8     9   ar
    17     9    10    1
    18    10    11    1
    19    11    12    1
    20    12    25    1
    21    25    26    1
    22    26    27    1
    23    27    28    1
    24    12    13   am
    25    13    14    2
    26    19    20    1
    27    20    21    1
    28    21    16    1
    29     6     1   ar
    30    13     8    1
    31     9     4   ar
    32    28    26    1
@<TRIPOS>MOLECULE
*****
 28 32 0 0 0
SMALL
GASTEIGER

@<TRIPOS>ATOM
      1 C           8.0885   -5.3502   25.2719 C.ar    1  UNL1        0.1385
      2 C           8.7553   -5.6400   23.9599 C.ar    1  UNL1        0.0384
      3 C           8.1953   -5.0678   22.6915 C.ar    1  UNL1        0.0203
      4 C           6.9686   -4.2057   22.7350 C.ar    1  UNL1        0.0602
      5 C           6.3018   -3.9159   24.0470 C.ar    1  UNL1        0.0204
      6 C           6.8617   -4.4882   25.3154 C.ar    1  UNL1        0.0384
      7 C           5.1147   -3.0387   23.7798 C.ar    1  UNL1        0.0234
      8 C           5.0478   -2.7864   22.3027 C.ar    1  UNL1        0.1143
      9 N           6.1936   -3.5076   21.6569 N.ar    1  UNL1       -0.3219
     10 C           6.3832   -3.4355   20.1708 C.3     1  UNL1        0.1276
     11 C           5.4270   -2.6422   19.3303 C.3     1  UNL1        0.1182
     12 N           4.2813   -1.9210   19.9761 N.am    1  UNL1       -0.2729
     13 C           4.0916   -1.9931   21.4623 C.2     1  UNL1        0.2650
     14 O           2.9458   -1.2719   22.1081 O.2     1  UNL1       -0.2683
     15 O           8.6484   -5.9225   26.5404 O.3     1  UNL1       -0.4791
     16 N           7.7690   -3.9405   30.4835 N.3     1  UNL1       -0.2737
     17 C           8.8999   -3.4459   29.6312 C.3     1  UNL1        0.0758
     18 C           9.1931   -4.1066   28.3168 C.3     1  UNL1        0.0609
     19 C           8.3553   -5.2618   27.8547 C.3     1  UNL1        0.1687
     20 C           7.2243   -5.7564   28.7071 C.3     1  UNL1        0.0609
     21 C           6.9312   -5.0957   30.0214 C.3     1  UNL1        0.0758
     22 C           6.0858   -3.3131   32.3605 C.3     1  UNL1        0.0173
     23 C           7.4759   -3.2798   31.7978 C.3     1  UNL1        0.0576
     24 C           8.5729   -2.5857   32.5495 C.3     1  UNL1        0.0173
     25 C           3.3250   -1.1277   19.1356 C.3     1  UNL1        0.0938
     26 C           3.6141    0.3114   18.8265 C.3     1  UNL1        0.0199
     27 C           4.5866    1.4494   18.7303 C.3     1  UNL1        0.0018
     28 C           3.1425    1.6658   18.3871 C.3     1  UNL1        0.0018
@<TRIPOS>BOND
     1    22    23    1
     2    23    24    1
     3    23    16    1
     4    16    17    1
     5    17    18    1
     6    18    19    1
     7    19    15    1
     8    15     1    1
     9     1     2   ar
    10     2     3   ar
    11     3     4   ar
    12     4     5   ar
    13     5     6   ar
    14     5     7   ar
    15     7     8   ar
    16     8     9   ar
    17     9    10    1
    18    10    11    1
    19    11    12    1
    20    12    25    1
    21    25    26    1
    22    26    27    1
    23    27    28    1
    24    12    13   am
    25    13    14    2
    26    19    20    1
    27    20    21    1
    28    21    16    1
    29     6     1   ar
    30    13     8    1
    31     9     4   ar
    32    28    26    1
