@<TRIPOS>MOLECULE
*****
 32 36 0 0 0
SMALL
GASTEIGER

@<TRIPOS>ATOM
      1 C          -5.7517    5.2240   26.4631 C.3     1  UNL1        0.0243
      2 C          -5.9846    4.8708   25.0240 C.3     1  UNL1        0.1075
      3 C          -7.3081    4.8748   24.3182 C.3     1  UNL1        0.1638
      4 O          -7.0763    4.4580   22.8960 O.3     1  UNL1       -0.3342
      5 C          -5.6095    4.1964   22.7229 C.3     1  UNL1        0.2176
      6 C          -4.8010    3.7588   21.5376 C.3     1  UNL1        0.1572
      7 N          -3.3178    3.5763   21.6675 N.ar    1  UNL1       -0.3156
      8 C          -2.5094    3.1387   20.4822 C.ar    1  UNL1        0.0840
      9 C          -1.0262    2.9562   20.6121 C.ar    1  UNL1        0.1125
     10 C          -0.3514    3.2113   21.9273 C.ar    1  UNL1        0.2364
     11 O           1.1318    3.0288   22.0572 O.2     1  UNL1       -0.2831
     12 C          -1.1599    3.6489   23.1126 C.ar    1  UNL1        0.1936
     13 O          -0.4852    3.9040   24.4277 O.3     1  UNL1       -0.5017
     14 C          -2.6431    3.8314   22.9826 C.ar    1  UNL1        0.1517
     15 C          -3.4516    4.2690   24.1680 C.2     1  UNL1        0.2698
     16 O          -2.7768    4.5241   25.4832 O.2     1  UNL1       -0.2681
     17 N          -4.9348    4.4515   24.0381 N.am    1  UNL1       -0.2504
     18 H           0.4413    3.7900   24.5089 H       1  UNL1        0.2924
     19 C          -0.2177    2.5186   19.4268 C.2     1  UNL1        0.2508
     20 O          -0.3503    3.2428   18.1198 O.2     1  UNL1       -0.2700
     21 N           0.7233    1.3569   19.5485 N.am    1  UNL1       -0.2968
     22 H           0.8103    0.8816   20.4062 H       1  UNL1        0.1501
     23 C           1.5318    0.9193   18.3632 C.3     1  UNL1        0.1166
     24 C           2.6603   -0.0525   18.5425 C.ar    1  UNL1       -0.0009
     25 C           2.6025   -1.0749   19.6386 C.ar    1  UNL1       -0.0009
     26 C           3.7309   -2.0468   19.8180 C.ar    1  UNL1        0.0239
     27 C           4.9172   -1.9962   18.9013 C.ar    1  UNL1        0.1431
     28 N           6.1703   -2.8179   18.8352 N.ar    1  UNL1       -0.0483
     29 O           7.0025   -2.3034   17.6982 O.2     1  UNL1       -0.2415
     30 N           6.2637   -1.1636   17.0617 N.ar    1  UNL1       -0.0483
     31 C           4.9749   -0.9738   17.8053 C.ar    1  UNL1        0.1429
     32 C           3.8465   -0.0019   17.6259 C.ar    1  UNL1        0.0215
@<TRIPOS>BOND
     1     2     1    1
     2     2     3    1
     3     3     4    1
     4     4     5    1
     5     5     6    1
     6     6     7    1
     7     7     8   ar
     8     8     9   ar
     9     9    19    1
    10    19    20    2
    11    19    21   am
    12    21    23    1
    13    23    24    1
    14    24    25   ar
    15    25    26   ar
    16    26    27   ar
    17    27    28   ar
    18    28    29   ar
    19    29    30   ar
    20    30    31   ar
    21    31    32   ar
    22     9    10   ar
    23    10    11    2
    24    10    12   ar
    25    12    13    1
    26    12    14   ar
    27    14    15    1
    28    15    16    2
    29    15    17   am
    30    17     2    1
    31    17     5    1
    32    14     7   ar
    33    32    24   ar
    34    31    27   ar
    35    21    22    1
    36    13    18    1
@<TRIPOS>MOLECULE
*****
 32 36 0 0 0
SMALL
GASTEIGER

@<TRIPOS>ATOM
      1 C           6.0996   -3.4240   32.5353 C.3     1  UNL1        0.0243
      2 C           6.1181   -2.5661   31.3050 C.3     1  UNL1        0.1075
      3 C           5.8862   -1.0849   31.2593 C.3     1  UNL1        0.1638
      4 O           5.9965   -0.6422   29.8304 O.3     1  UNL1       -0.3342
      5 C           6.2966   -1.8499   28.9929 C.3     1  UNL1        0.2176
      6 C           6.5111   -2.0205   27.5181 C.3     1  UNL1        0.1572
      7 N           6.8008   -3.3802   26.9548 N.ar    1  UNL1       -0.3156
      8 C           7.0153   -3.5508   25.4799 C.ar    1  UNL1        0.0840
      9 C           7.3049   -4.9104   24.9166 C.ar    1  UNL1        0.1125
     10 C           7.3801   -6.0995   25.8279 C.ar    1  UNL1        0.2364
     11 O           7.6698   -7.4592   25.2645 O.2     1  UNL1       -0.2831
     12 C           7.1656   -5.9289   27.3026 C.ar    1  UNL1        0.1936
     13 O           7.2407   -7.1179   28.2140 O.3     1  UNL1       -0.5017
     14 C           6.8759   -4.5692   27.8660 C.ar    1  UNL1        0.1517
     15 C           6.6614   -4.3986   29.3408 C.2     1  UNL1        0.2698
     16 O           6.7366   -5.5877   30.2522 O.2     1  UNL1       -0.2681
     17 N           6.3717   -3.0389   29.9042 N.am    1  UNL1       -0.2504
     18 H           7.4217   -7.9673   27.8621 H       1  UNL1        0.2924
     19 C           7.5195   -5.0811   23.4418 C.2     1  UNL1        0.2508
     20 O           8.3487   -6.2222   22.9316 O.2     1  UNL1       -0.2700
     21 N           6.9048   -4.1106   22.4773 N.am    1  UNL1       -0.2968
     22 H           6.3606   -3.3616   22.8121 H       1  UNL1        0.1501
     23 C           7.1193   -4.2812   21.0025 C.3     1  UNL1        0.1166
     24 C           6.2821   -3.5067   20.0283 C.ar    1  UNL1       -0.0009
     25 C           4.7965   -3.7102   19.9884 C.ar    1  UNL1       -0.0009
     26 C           3.9592   -2.9358   19.0143 C.ar    1  UNL1        0.0239
     27 C           4.6075   -1.9577   18.0798 C.ar    1  UNL1        0.1431
     28 N           4.0447   -1.0584   17.0195 N.ar    1  UNL1       -0.0483
     29 O           5.1824   -0.2990   16.4040 O.2     1  UNL1       -0.2415
     30 N           6.4484   -0.7291   17.0839 N.ar    1  UNL1       -0.0483
     31 C           6.0931   -1.7542   18.1196 C.ar    1  UNL1        0.1429
     32 C           6.9304   -2.5287   19.0939 C.ar    1  UNL1        0.0215
@<TRIPOS>BOND
     1     2     1    1
     2     2     3    1
     3     3     4    1
     4     4     5    1
     5     5     6    1
     6     6     7    1
     7     7     8   ar
     8     8     9   ar
     9     9    19    1
    10    19    20    2
    11    19    21   am
    12    21    23    1
    13    23    24    1
    14    24    25   ar
    15    25    26   ar
    16    26    27   ar
    17    27    28   ar
    18    28    29   ar
    19    29    30   ar
    20    30    31   ar
    21    31    32   ar
    22     9    10   ar
    23    10    11    2
    24    10    12   ar
    25    12    13    1
    26    12    14   ar
    27    14    15    1
    28    15    16    2
    29    15    17   am
    30    17     2    1
    31    17     5    1
    32    14     7   ar
    33    32    24   ar
    34    31    27   ar
    35    21    22    1
    36    13    18    1
@<TRIPOS>MOLECULE
*****
 32 36 0 0 0
SMALL
GASTEIGER

@<TRIPOS>ATOM
      1 C           7.9406   -6.4433   29.1659 C.3     1  UNL1        0.0243
      2 C           7.2650   -5.1427   28.8467 C.3     1  UNL1        0.1075
      3 C           6.7360   -4.1557   29.8447 C.3     1  UNL1        0.1638
      4 O           6.1438   -3.0037   29.0882 O.3     1  UNL1       -0.3342
      5 C           6.3067   -3.2788   27.6227 C.3     1  UNL1        0.2176
      6 C           5.9137   -2.4963   26.4048 C.3     1  UNL1        0.1572
      7 N           6.2135   -3.0358   25.0377 N.ar    1  UNL1       -0.3156
      8 C           5.8204   -2.2532   23.8198 C.ar    1  UNL1        0.0840
      9 C           6.1203   -2.7927   22.4527 C.ar    1  UNL1        0.1125
     10 C           6.8132   -4.1147   22.3033 C.ar    1  UNL1        0.2364
     11 O           7.1130   -4.6543   20.9362 O.2     1  UNL1       -0.2831
     12 C           7.2062   -4.8972   23.5212 C.ar    1  UNL1        0.1936
     13 O           7.8991   -6.2192   23.3720 O.3     1  UNL1       -0.5017
     14 C           6.9064   -4.3577   24.8884 C.ar    1  UNL1        0.1517
     15 C           7.2995   -5.1403   26.1063 C.2     1  UNL1        0.2698
     16 O           7.9924   -6.4623   25.9570 O.2     1  UNL1       -0.2681
     17 N           6.9996   -4.6007   27.4734 N.am    1  UNL1       -0.2504
     18 H           8.0864   -6.5562   22.5180 H       1  UNL1        0.2924
     19 C           5.7272   -2.0103   21.2348 C.2     1  UNL1        0.2508
     20 O           6.2481   -0.6174   21.0378 O.2     1  UNL1       -0.2700
     21 N           4.8133   -2.6206   20.2139 N.am    1  UNL1       -0.2968
     22 H           4.4714   -3.5347   20.3432 H       1  UNL1        0.1501
     23 C           4.4202   -1.8381   18.9960 C.3     1  UNL1        0.1166
     24 C           3.3816   -0.7609   19.0996 C.ar    1  UNL1       -0.0009
     25 C           3.5432    0.5138   18.3256 C.ar    1  UNL1       -0.0009
     26 C           2.5047    1.5911   18.4291 C.ar    1  UNL1        0.0239
     27 C           1.3042    1.3937   19.3067 C.ar    1  UNL1        0.1431
     28 N           0.1249    2.2707   19.6063 N.ar    1  UNL1       -0.0483
     29 O          -0.7658    1.5381   20.5654 O.2     1  UNL1       -0.2415
     30 N          -0.1368    0.2083   20.8587 N.ar    1  UNL1       -0.0483
     31 C           1.1426    0.1191   20.0807 C.ar    1  UNL1        0.1429
     32 C           2.1812   -0.9583   19.9772 C.ar    1  UNL1        0.0215
@<TRIPOS>BOND
     1     2     1    1
     2     2     3    1
     3     3     4    1
     4     4     5    1
     5     5     6    1
     6     6     7    1
     7     7     8   ar
     8     8     9   ar
     9     9    19    1
    10    19    20    2
    11    19    21   am
    12    21    23    1
    13    23    24    1
    14    24    25   ar
    15    25    26   ar
    16    26    27   ar
    17    27    28   ar
    18    28    29   ar
    19    29    30   ar
    20    30    31   ar
    21    31    32   ar
    22     9    10   ar
    23    10    11    2
    24    10    12   ar
    25    12    13    1
    26    12    14   ar
    27    14    15    1
    28    15    16    2
    29    15    17   am
    30    17     2    1
    31    17     5    1
    32    14     7   ar
    33    32    24   ar
    34    31    27   ar
    35    21    22    1
    36    13    18    1
@<TRIPOS>MOLECULE
*****
 32 36 0 0 0
SMALL
GASTEIGER

@<TRIPOS>ATOM
      1 C           6.1463   -3.2502   20.8455 C.3     1  UNL1        0.0243
      2 C           5.4728   -2.5807   19.6844 C.3     1  UNL1        0.1075
      3 C           5.8092   -2.7788   18.2361 C.3     1  UNL1        0.1638
      4 O           4.8890   -1.9162   17.4242 O.3     1  UNL1       -0.3342
      5 C           3.9839   -1.1849   18.3708 C.3     1  UNL1        0.2176
      6 C           2.8777   -0.1981   18.1413 C.3     1  UNL1        0.1572
      7 N           2.1324    0.3779   19.3086 N.ar    1  UNL1       -0.3156
      8 C           1.0262    1.3647   19.0790 C.ar    1  UNL1        0.0840
      9 C           0.2809    1.9408   20.2463 C.ar    1  UNL1        0.1125
     10 C           0.6417    1.5301   21.6432 C.ar    1  UNL1        0.2364
     11 O          -0.1036    2.1062   22.8105 O.2     1  UNL1       -0.2831
     12 C           1.7478    0.5433   21.8727 C.ar    1  UNL1        0.1936
     13 O           2.1086    0.1326   23.2696 O.3     1  UNL1       -0.5017
     14 C           2.4932   -0.0328   20.7054 C.ar    1  UNL1        0.1517
     15 C           3.5994   -1.0196   20.9349 C.2     1  UNL1        0.2698
     16 O           3.9601   -1.4303   22.3318 O.2     1  UNL1       -0.2681
     17 N           4.3447   -1.5957   19.7676 N.am    1  UNL1       -0.2504
     18 H           1.6431    0.4924   23.9987 H       1  UNL1        0.2924
     19 C          -0.8252    2.9276   20.0168 C.2     1  UNL1        0.2508
     20 O          -0.5278    4.2531   19.3806 O.2     1  UNL1       -0.2700
     21 N          -2.2288    2.5890   20.4235 N.am    1  UNL1       -0.2968
     22 H          -2.4239    1.7190   20.8411 H       1  UNL1        0.1501
     23 C          -3.3349    3.5757   20.1940 C.3     1  UNL1        0.1166
     24 C          -4.3424    3.8377   21.2740 C.ar    1  UNL1       -0.0009
     25 C          -4.1147    3.3045   22.6574 C.ar    1  UNL1       -0.0009
     26 C          -5.1221    3.5663   23.7374 C.ar    1  UNL1        0.0239
     27 C          -6.3574    4.3614   23.4341 C.ar    1  UNL1        0.1431
     28 N          -7.5184    4.7770   24.2880 N.ar    1  UNL1       -0.0483
     29 O          -8.4637    5.5671   23.4323 O.2     1  UNL1       -0.2415
     30 N          -7.8868    5.6398   22.0496 N.ar    1  UNL1       -0.0483
     31 C          -6.5851    4.8946   22.0507 C.ar    1  UNL1        0.1429
     32 C          -5.5776    4.6328   20.9706 C.ar    1  UNL1        0.0215
@<TRIPOS>BOND
     1     2     1    1
     2     2     3    1
     3     3     4    1
     4     4     5    1
     5     5     6    1
     6     6     7    1
     7     7     8   ar
     8     8     9   ar
     9     9    19    1
    10    19    20    2
    11    19    21   am
    12    21    23    1
    13    23    24    1
    14    24    25   ar
    15    25    26   ar
    16    26    27   ar
    17    27    28   ar
    18    28    29   ar
    19    29    30   ar
    20    30    31   ar
    21    31    32   ar
    22     9    10   ar
    23    10    11    2
    24    10    12   ar
    25    12    13    1
    26    12    14   ar
    27    14    15    1
    28    15    16    2
    29    15    17   am
    30    17     2    1
    31    17     5    1
    32    14     7   ar
    33    32    24   ar
    34    31    27   ar
    35    21    22    1
    36    13    18    1
@<TRIPOS>MOLECULE
*****
 32 36 0 0 0
SMALL
GASTEIGER

@<TRIPOS>ATOM
      1 C           6.9055   -2.4527   32.5244 C.3     1  UNL1        0.0243
      2 C           6.8660   -3.7309   31.7404 C.3     1  UNL1        0.1075
      3 C           6.7335   -5.1117   32.3113 C.3     1  UNL1        0.1638
      4 O           6.7377   -6.0869   31.1716 O.3     1  UNL1       -0.3342
      5 C           6.8728   -5.3088   29.8963 C.3     1  UNL1        0.2176
      6 C           6.9339   -5.7381   28.4603 C.3     1  UNL1        0.1572
      7 N           7.0743   -4.7113   27.3759 N.ar    1  UNL1       -0.3156
      8 C           7.1354   -5.1406   25.9399 C.ar    1  UNL1        0.0840
      9 C           7.2758   -4.1138   24.8555 C.ar    1  UNL1        0.1125
     10 C           7.3551   -2.6577   25.2070 C.ar    1  UNL1        0.2364
     11 O           7.4955   -1.6309   24.1226 O.2     1  UNL1       -0.2831
     12 C           7.2940   -2.2284   26.6429 C.ar    1  UNL1        0.1936
     13 O           7.3733   -0.7724   26.9945 O.3     1  UNL1       -0.5017
     14 C           7.1536   -3.2553   27.7274 C.ar    1  UNL1        0.1517
     15 C           7.0925   -2.8260   29.1634 C.2     1  UNL1        0.2698
     16 O           7.1719   -1.3698   29.5149 O.2     1  UNL1       -0.2681
     17 N           6.9521   -3.8528   30.2478 N.am    1  UNL1       -0.2504
     18 H           7.4610   -0.1310   26.3171 H       1  UNL1        0.2924
     19 C           7.3369   -4.5431   23.4195 C.2     1  UNL1        0.2508
     20 O           7.8395   -5.9117   23.0666 O.2     1  UNL1       -0.2700
     21 N           6.8953   -3.6038   22.3365 N.am    1  UNL1       -0.2968
     22 H           6.5654   -2.7057   22.5682 H       1  UNL1        0.1501
     23 C           6.9564   -4.0331   20.9006 C.3     1  UNL1        0.1166
     24 C           6.1972   -3.2693   19.8565 C.ar    1  UNL1       -0.0009
     25 C           4.7320   -3.5227   19.6590 C.ar    1  UNL1       -0.0009
     26 C           3.9727   -2.7590   18.6150 C.ar    1  UNL1        0.0239
     27 C           4.6786   -1.7416   17.7683 C.ar    1  UNL1        0.1431
     28 N           4.1966   -0.8420   16.6692 N.ar    1  UNL1       -0.0483
     29 O           5.3638   -0.0325   16.1873 O.2     1  UNL1       -0.2415
     30 N           6.5672   -0.4318   16.9887 N.ar    1  UNL1       -0.0483
     31 C           6.1438   -1.4881   17.9658 C.ar    1  UNL1        0.1429
     32 C           6.9031   -2.2519   19.0099 C.ar    1  UNL1        0.0215
@<TRIPOS>BOND
     1     2     1    1
     2     2     3    1
     3     3     4    1
     4     4     5    1
     5     5     6    1
     6     6     7    1
     7     7     8   ar
     8     8     9   ar
     9     9    19    1
    10    19    20    2
    11    19    21   am
    12    21    23    1
    13    23    24    1
    14    24    25   ar
    15    25    26   ar
    16    26    27   ar
    17    27    28   ar
    18    28    29   ar
    19    29    30   ar
    20    30    31   ar
    21    31    32   ar
    22     9    10   ar
    23    10    11    2
    24    10    12   ar
    25    12    13    1
    26    12    14   ar
    27    14    15    1
    28    15    16    2
    29    15    17   am
    30    17     2    1
    31    17     5    1
    32    14     7   ar
    33    32    24   ar
    34    31    27   ar
    35    21    22    1
    36    13    18    1
@<TRIPOS>MOLECULE
*****
 32 36 0 0 0
SMALL
GASTEIGER

@<TRIPOS>ATOM
      1 C           6.8989   -3.8006   31.9632 C.3     1  UNL1        0.0243
      2 C           7.2396   -4.6772   30.7947 C.3     1  UNL1        0.1075
      3 C           7.9180   -6.0133   30.8629 C.3     1  UNL1        0.1638
      4 O           8.0594   -6.5335   29.4631 O.3     1  UNL1       -0.3342
      5 C           7.4683   -5.5189   28.5297 C.3     1  UNL1        0.2176
      6 C           7.3259   -5.4914   27.0368 C.3     1  UNL1        0.1572
      7 N           6.6769   -4.3168   26.3667 N.ar    1  UNL1       -0.3156
      8 C           6.5346   -4.2894   24.8737 C.ar    1  UNL1        0.0840
      9 C           5.8855   -3.1147   24.2037 C.ar    1  UNL1        0.1125
     10 C           5.3788   -1.9675   25.0266 C.ar    1  UNL1        0.2364
     11 O           4.7298   -0.7928   24.3566 O.2     1  UNL1       -0.2831
     12 C           5.5212   -1.9949   26.5195 C.ar    1  UNL1        0.1936
     13 O           5.0145   -0.8477   27.3425 O.3     1  UNL1       -0.5017
     14 C           6.1702   -3.1697   27.1896 C.ar    1  UNL1        0.1517
     15 C           6.3126   -3.1971   28.6827 C.2     1  UNL1        0.2698
     16 O           5.8059   -2.0498   29.5056 O.2     1  UNL1       -0.2681
     17 N           6.9616   -4.3717   29.3527 N.am    1  UNL1       -0.2504
     18 H           4.6091   -0.1140   26.9240 H       1  UNL1        0.2924
     19 C           5.7432   -3.0873   22.7107 C.2     1  UNL1        0.2508
     20 O           5.2127   -4.2886   21.9856 O.2     1  UNL1       -0.2700
     21 N           6.1313   -1.8586   21.9428 N.am    1  UNL1       -0.2968
     22 H           6.4794   -1.0702   22.4186 H       1  UNL1        0.1501
     23 C           5.9889   -1.8312   20.4498 C.3     1  UNL1        0.1166
     24 C           4.7724   -1.2165   19.8236 C.ar    1  UNL1       -0.0009
     25 C           4.7842   -0.8426   18.3710 C.ar    1  UNL1       -0.0009
     26 C           3.5678   -0.2280   17.7446 C.ar    1  UNL1        0.0239
     27 C           2.3393    0.0129   18.5710 C.ar    1  UNL1        0.1431
     28 N           1.0005    0.5982   18.2320 N.ar    1  UNL1       -0.0483
     29 O           0.1611    0.5860   19.4751 O.2     1  UNL1       -0.2415
     30 N           0.9812   -0.0067   20.5823 N.ar    1  UNL1       -0.0483
     31 C           2.3274   -0.3609   20.0236 C.ar    1  UNL1        0.1429
     32 C           3.5439   -0.9756   20.6499 C.ar    1  UNL1        0.0215
@<TRIPOS>BOND
     1     2     1    1
     2     2     3    1
     3     3     4    1
     4     4     5    1
     5     5     6    1
     6     6     7    1
     7     7     8   ar
     8     8     9   ar
     9     9    19    1
    10    19    20    2
    11    19    21   am
    12    21    23    1
    13    23    24    1
    14    24    25   ar
    15    25    26   ar
    16    26    27   ar
    17    27    28   ar
    18    28    29   ar
    19    29    30   ar
    20    30    31   ar
    21    31    32   ar
    22     9    10   ar
    23    10    11    2
    24    10    12   ar
    25    12    13    1
    26    12    14   ar
    27    14    15    1
    28    15    16    2
    29    15    17   am
    30    17     2    1
    31    17     5    1
    32    14     7   ar
    33    32    24   ar
    34    31    27   ar
    35    21    22    1
    36    13    18    1
@<TRIPOS>MOLECULE
*****
 32 36 0 0 0
SMALL
GASTEIGER

@<TRIPOS>ATOM
      1 C           1.8036    0.5958   18.1983 C.3     1  UNL1        0.0243
      2 C           3.0264   -0.2729   18.1826 C.3     1  UNL1        0.1075
      3 C           3.7805   -0.7118   16.9625 C.3     1  UNL1        0.1638
      4 O           4.9299   -1.5654   17.4101 O.3     1  UNL1       -0.3342
      5 C           4.8862   -1.6540   18.9068 C.3     1  UNL1        0.2176
      6 C           5.7656   -2.3589   19.8967 C.3     1  UNL1        0.1572
      7 N           5.4685   -2.2650   21.3640 N.ar    1  UNL1       -0.3156
      8 C           6.3480   -2.9699   22.3538 C.ar    1  UNL1        0.0840
      9 C           6.0510   -2.8760   23.8211 C.ar    1  UNL1        0.1125
     10 C           4.8745   -2.0772   24.2986 C.ar    1  UNL1        0.2364
     11 O           4.5775   -1.9833   25.7659 O.2     1  UNL1       -0.2831
     12 C           3.9951   -1.3723   23.3088 C.ar    1  UNL1        0.1936
     13 O           2.8187   -0.5736   23.7862 O.3     1  UNL1       -0.5017
     14 C           4.2922   -1.4663   21.8414 C.ar    1  UNL1        0.1517
     15 C           3.4127   -0.7613   20.8515 C.2     1  UNL1        0.2698
     16 O           2.2362    0.0374   21.3291 O.2     1  UNL1       -0.2681
     17 N           3.7097   -0.8553   19.3843 N.am    1  UNL1       -0.2504
     18 H           2.6331   -0.5149   24.7028 H       1  UNL1        0.2924
     19 C           6.9303   -3.5809   24.8109 C.2     1  UNL1        0.2508
     20 O           8.3760   -3.1999   24.9345 O.2     1  UNL1       -0.2700
     21 N           6.3642   -4.6667   25.6772 N.am    1  UNL1       -0.2968
     22 H           5.4154   -4.9167   25.5961 H       1  UNL1        0.1501
     23 C           7.2436   -5.3716   26.6671 C.3     1  UNL1        0.1166
     24 C           7.1184   -5.0683   28.1308 C.ar    1  UNL1       -0.0009
     25 C           7.5023   -6.1031   29.1466 C.ar    1  UNL1       -0.0009
     26 C           7.3771   -5.8000   30.6102 C.ar    1  UNL1        0.0239
     27 C           6.8681   -4.4619   31.0582 C.ar    1  UNL1        0.1431
     28 N           6.6385   -3.8806   32.4217 N.ar    1  UNL1       -0.0483
     29 O           6.1127   -2.4865   32.2486 O.2     1  UNL1       -0.2415
     30 N           6.0174   -2.2062   30.7781 N.ar    1  UNL1       -0.0483
     31 C           6.4843   -3.4272   30.0424 C.ar    1  UNL1        0.1429
     32 C           6.6094   -3.7303   28.5787 C.ar    1  UNL1        0.0215
@<TRIPOS>BOND
     1     2     1    1
     2     2     3    1
     3     3     4    1
     4     4     5    1
     5     5     6    1
     6     6     7    1
     7     7     8   ar
     8     8     9   ar
     9     9    19    1
    10    19    20    2
    11    19    21   am
    12    21    23    1
    13    23    24    1
    14    24    25   ar
    15    25    26   ar
    16    26    27   ar
    17    27    28   ar
    18    28    29   ar
    19    29    30   ar
    20    30    31   ar
    21    31    32   ar
    22     9    10   ar
    23    10    11    2
    24    10    12   ar
    25    12    13    1
    26    12    14   ar
    27    14    15    1
    28    15    16    2
    29    15    17   am
    30    17     2    1
    31    17     5    1
    32    14     7   ar
    33    32    24   ar
    34    31    27   ar
    35    21    22    1
    36    13    18    1
@<TRIPOS>MOLECULE
*****
 32 36 0 0 0
SMALL
GASTEIGER

@<TRIPOS>ATOM
      1 C           6.9570   -4.6489   31.4545 C.3     1  UNL1        0.0243
      2 C           6.5094   -3.4808   30.6268 C.3     1  UNL1        0.1075
      3 C           5.9779   -2.1801   31.1520 C.3     1  UNL1        0.1638
      4 O           5.6546   -1.3037   29.9783 O.3     1  UNL1       -0.3342
      5 C           5.9864   -2.0627   28.7278 C.3     1  UNL1        0.2176
      6 C           5.8757   -1.7025   27.2759 C.3     1  UNL1        0.1572
      7 N           6.2932   -2.6878   26.2248 N.ar    1  UNL1       -0.3156
      8 C           6.1825   -2.3275   24.7728 C.ar    1  UNL1        0.0840
      9 C           6.6001   -3.3128   23.7217 C.ar    1  UNL1        0.1125
     10 C           7.1283   -4.6583   24.1224 C.ar    1  UNL1        0.2364
     11 O           7.5459   -5.6436   23.0713 O.2     1  UNL1       -0.2831
     12 C           7.2390   -5.0185   25.5743 C.ar    1  UNL1        0.1936
     13 O           7.7672   -6.3640   25.9751 O.3     1  UNL1       -0.5017
     14 C           6.8214   -4.0332   26.6255 C.ar    1  UNL1        0.1517
     15 C           6.9322   -4.3935   28.0775 C.2     1  UNL1        0.2698
     16 O           7.4604   -5.7390   28.4782 O.2     1  UNL1       -0.2681
     17 N           6.5146   -3.4082   29.1286 N.am    1  UNL1       -0.2504
     18 H           8.0281   -6.9795   25.3185 H       1  UNL1        0.2924
     19 C           6.4894   -2.9526   22.2699 C.2     1  UNL1        0.2508
     20 O           7.2333   -1.7659   21.7327 O.2     1  UNL1       -0.2700
     21 N           5.6348   -3.7790   21.3551 N.am    1  UNL1       -0.2968
     22 H           5.1465   -4.5578   21.7077 H       1  UNL1        0.1501
     23 C           5.5241   -3.4188   19.9032 C.3     1  UNL1        0.1166
     24 C           4.5460   -2.3701   19.4631 C.ar    1  UNL1       -0.0009
     25 C           4.7902   -1.6000   18.1993 C.ar    1  UNL1       -0.0009
     26 C           3.8122   -0.5514   17.7591 C.ar    1  UNL1        0.0239
     27 C           2.5899   -0.2728   18.5827 C.ar    1  UNL1        0.1431
     28 N           1.4572    0.6939   18.4028 N.ar    1  UNL1       -0.0483
     29 O           0.5129    0.5212   19.5554 O.2     1  UNL1       -0.2415
     30 N           1.0620   -0.5522   20.4477 N.ar    1  UNL1       -0.0483
     31 C           2.3457   -1.0429   19.8465 C.ar    1  UNL1        0.1429
     32 C           3.3237   -2.0916   20.2868 C.ar    1  UNL1        0.0215
@<TRIPOS>BOND
     1     2     1    1
     2     2     3    1
     3     3     4    1
     4     4     5    1
     5     5     6    1
     6     6     7    1
     7     7     8   ar
     8     8     9   ar
     9     9    19    1
    10    19    20    2
    11    19    21   am
    12    21    23    1
    13    23    24    1
    14    24    25   ar
    15    25    26   ar
    16    26    27   ar
    17    27    28   ar
    18    28    29   ar
    19    29    30   ar
    20    30    31   ar
    21    31    32   ar
    22     9    10   ar
    23    10    11    2
    24    10    12   ar
    25    12    13    1
    26    12    14   ar
    27    14    15    1
    28    15    16    2
    29    15    17   am
    30    17     2    1
    31    17     5    1
    32    14     7   ar
    33    32    24   ar
    34    31    27   ar
    35    21    22    1
    36    13    18    1
@<TRIPOS>MOLECULE
*****
 32 36 0 0 0
SMALL
GASTEIGER

@<TRIPOS>ATOM
      1 C           1.3273    4.0472   37.3718 C.3     1  UNL1        0.0243
      2 C           2.4573    3.1371   37.7526 C.3     1  UNL1        0.1075
      3 C           3.0768    3.0227   39.1139 C.3     1  UNL1        0.1638
      4 O           4.1685    1.9966   39.0416 O.3     1  UNL1       -0.3342
      5 C           4.2238    1.4768   37.6356 C.3     1  UNL1        0.2176
      6 C           5.1004    0.4527   36.9779 C.3     1  UNL1        0.1572
      7 N           4.9195    0.1335   35.5234 N.ar    1  UNL1       -0.3156
      8 C           5.7962   -0.8906   34.8657 C.ar    1  UNL1        0.0840
      9 C           5.6153   -1.2098   33.4113 C.ar    1  UNL1        0.1125
     10 C           4.5577   -0.5049   32.6145 C.ar    1  UNL1        0.2364
     11 O           4.3768   -0.8241   31.1601 O.2     1  UNL1       -0.2831
     12 C           3.6810    0.5192   33.2723 C.ar    1  UNL1        0.1936
     13 O           2.6234    1.2241   32.4757 O.3     1  UNL1       -0.5017
     14 C           3.8620    0.8384   34.7268 C.ar    1  UNL1        0.1517
     15 C           2.9852    1.8625   35.3846 C.2     1  UNL1        0.2698
     16 O           1.9276    2.5674   34.5879 O.2     1  UNL1       -0.2681
     17 N           3.1662    2.1817   36.8390 N.am    1  UNL1       -0.2504
     18 H           2.5104    1.0247   31.5671 H       1  UNL1        0.2924
     19 C           6.4920   -2.2339   32.7535 C.2     1  UNL1        0.2508
     20 O           7.9840   -2.0856   32.8008 O.2     1  UNL1       -0.2700
     21 N           5.8767   -3.4062   32.0484 N.am    1  UNL1       -0.2968
     22 H           4.8976   -3.5035   32.0174 H       1  UNL1        0.1501
     23 C           6.7534   -4.4303   31.3906 C.3     1  UNL1        0.1166
     24 C           6.8037   -4.5248   29.8944 C.ar    1  UNL1       -0.0009
     25 C           6.4902   -3.3212   29.0560 C.ar    1  UNL1       -0.0009
     26 C           6.5405   -3.4155   27.5599 C.ar    1  UNL1        0.0239
     27 C           6.9043   -4.7136   26.9020 C.ar    1  UNL1        0.1431
     28 N           7.0348   -5.1063   25.4603 N.ar    1  UNL1       -0.0483
     29 O           7.4289   -6.5526   25.4077 O.2     1  UNL1       -0.2415
     30 N           7.5420   -7.0538   26.8169 N.ar    1  UNL1       -0.0483
     31 C           7.2177   -5.9173   27.7405 C.ar    1  UNL1        0.1429
     32 C           7.1675   -5.8229   29.2367 C.ar    1  UNL1        0.0215
@<TRIPOS>BOND
     1     2     1    1
     2     2     3    1
     3     3     4    1
     4     4     5    1
     5     5     6    1
     6     6     7    1
     7     7     8   ar
     8     8     9   ar
     9     9    19    1
    10    19    20    2
    11    19    21   am
    12    21    23    1
    13    23    24    1
    14    24    25   ar
    15    25    26   ar
    16    26    27   ar
    17    27    28   ar
    18    28    29   ar
    19    29    30   ar
    20    30    31   ar
    21    31    32   ar
    22     9    10   ar
    23    10    11    2
    24    10    12   ar
    25    12    13    1
    26    12    14   ar
    27    14    15    1
    28    15    16    2
    29    15    17   am
    30    17     2    1
    31    17     5    1
    32    14     7   ar
    33    32    24   ar
    34    31    27   ar
    35    21    22    1
    36    13    18    1
