@<TRIPOS>MOLECULE
*****
 34 37 0 0 0
SMALL
GASTEIGER

@<TRIPOS>ATOM
      1 N          -7.6966  -19.4967   21.3910 N.3     1  UNL1       -0.2679
      2 C          -8.5419  -19.1134   22.5693 C.3     1  UNL1        0.0978
      3 C          -9.5731  -20.0677   23.0947 C.3     1  UNL1        0.0224
      4 C         -10.4184  -19.6844   24.2731 C.3     1  UNL1        0.0065
      5 C         -10.2326  -18.3468   24.9261 C.3     1  UNL1        0.0277
      6 C          -9.2014  -17.3926   24.4007 C.ar    1  UNL1       -0.0073
      7 C          -9.0155  -16.0550   25.0537 C.ar    1  UNL1       -0.0015
      8 C          -7.9844  -15.1007   24.5283 C.ar    1  UNL1        0.0203
      9 C          -7.1390  -15.4840   23.3499 C.ar    1  UNL1        0.0985
     10 N          -7.3249  -16.8216   22.6969 N.ar    1  UNL1       -0.2471
     11 C          -8.3561  -17.7759   23.2223 C.ar    1  UNL1        0.0695
     12 C          -8.1693  -19.1963   19.9995 C.3     1  UNL1        0.0725
     13 C          -9.3346  -19.9461   19.4250 C.3     1  UNL1        0.0191
     14 C         -10.7334  -19.4700   19.6828 C.3     1  UNL1        0.0227
     15 C         -11.0322  -18.0003   19.7112 C.3     1  UNL1        0.0910
     16 N         -11.7948  -15.5255   22.7186 N.am    1  UNL1       -0.3133
     17 C         -11.1369  -16.1340   21.5156 C.2     1  UNL1        0.2976
     18 O          -9.9258  -15.4847   20.9143 O.2     1  UNL1       -0.2531
     19 N         -11.6901  -17.3918   20.9141 N.am    1  UNL1       -0.2891
     20 H         -11.4317  -14.6999   23.1134 H       1  UNL1        0.1465
     21 H         -12.5897  -15.9517   23.1132 H       1  UNL1        0.1465
     22 H         -12.4850  -17.8180   21.3088 H       1  UNL1        0.1510
     23 C          -6.3786  -20.1804   21.6041 C.3     1  UNL1        0.0886
     24 C          -5.1050  -19.3904   21.5406 C.3     1  UNL1        0.0764
     25 C          -4.2609  -19.4269   20.3012 C.3     1  UNL1        0.0626
     26 C          -2.9872  -18.6370   20.2376 C.ar    1  UNL1        0.0577
     27 N          -2.1431  -18.6735   18.9983 N.ar    1  UNL1       -0.2484
     28 C          -0.8696  -17.8836   18.9347 C.ar    1  UNL1        0.0984
     29 C          -0.4402  -17.0572   20.1106 C.ar    1  UNL1        0.0204
     30 C          -1.2843  -17.0207   21.3500 C.ar    1  UNL1       -0.0002
     31 C          -2.5578  -17.8106   21.4135 C.ar    1  UNL1        0.0073
     32 C          -3.4020  -17.7741   22.6529 C.3     1  UNL1        0.0968
     33 N          -4.6756  -18.5640   22.7164 N.3     1  UNL1       -0.2934
     34 H          -5.4264  -17.8980   22.8981 H       1  UNL1        0.1236
@<TRIPOS>BOND
     1    16    17   am
     2    17    18    2
     3    17    19   am
     4    19    15    1
     5    15    14    1
     6    14    13    1
     7    13    12    1
     8    12     1    1
     9     1    23    1
    10    24    23    1
    11    24    25    1
    12    25    26    1
    13    26    27   ar
    14    27    28   ar
    15    28    29   ar
    16    29    30   ar
    17    30    31   ar
    18    31    32    1
    19    32    33    1
    20     2     1    1
    21     2     3    1
    22     3     4    1
    23     4     5    1
    24     5     6    1
    25     6     7   ar
    26     7     8   ar
    27     8     9   ar
    28     9    10   ar
    29    10    11   ar
    30    33    24    1
    31    11     2    1
    32    31    26   ar
    33    11     6   ar
    34    16    20    1
    35    16    21    1
    36    19    22    1
    37    33    34    1
@<TRIPOS>MOLECULE
*****
 34 37 0 0 0
SMALL
GASTEIGER

@<TRIPOS>ATOM
      1 N          -9.3488  -18.8136   23.9056 N.3     1  UNL1       -0.2679
      2 C         -10.7870  -18.4451   23.6915 C.3     1  UNL1        0.0978
      3 C         -11.8235  -18.8538   24.6958 C.3     1  UNL1        0.0224
      4 C         -13.2616  -18.4853   24.4818 C.3     1  UNL1        0.0065
      5 C         -13.6634  -17.7081   23.2634 C.3     1  UNL1        0.0277
      6 C         -12.6270  -17.2995   22.2591 C.ar    1  UNL1       -0.0073
      7 C         -13.0287  -16.5222   21.0406 C.ar    1  UNL1       -0.0015
      8 C         -11.9923  -16.1136   20.0362 C.ar    1  UNL1        0.0203
      9 C         -10.5541  -16.4821   20.2503 C.ar    1  UNL1        0.0985
     10 N         -10.1523  -17.2592   21.4687 N.ar    1  UNL1       -0.2471
     11 C         -11.1888  -17.6680   22.4731 C.ar    1  UNL1        0.0695
     12 C          -8.5162  -18.0457   24.8889 C.3     1  UNL1        0.0725
     13 C          -9.1130  -16.8896   25.6355 C.3     1  UNL1        0.0191
     14 C          -8.2352  -15.7697   26.1099 C.3     1  UNL1        0.0227
     15 C          -7.2576  -15.1322   25.1676 C.3     1  UNL1        0.0910
     16 N          -8.0690  -14.4971   21.3350 N.am    1  UNL1       -0.3133
     17 C          -7.5796  -15.1577   22.5896 C.2     1  UNL1        0.2976
     18 O          -6.9228  -16.5045   22.5209 O.2     1  UNL1       -0.2531
     19 N          -7.7470  -14.4716   23.9129 N.am    1  UNL1       -0.2891
     20 H          -7.9591  -14.9474   20.4665 H       1  UNL1        0.1465
     21 H          -8.5001  -13.6131   21.3801 H       1  UNL1        0.1465
     22 H          -8.1781  -13.5876   23.9580 H       1  UNL1        0.1510
     23 C          -8.7433  -19.9501   23.1364 C.3     1  UNL1        0.0886
     24 C          -7.5992  -19.6966   22.1999 C.3     1  UNL1        0.0764
     25 C          -6.1877  -19.8777   22.6741 C.3     1  UNL1        0.0626
     26 C          -5.0436  -19.6242   21.7376 C.ar    1  UNL1        0.0577
     27 N          -3.6321  -19.8053   22.2118 N.ar    1  UNL1       -0.2484
     28 C          -2.4880  -19.5518   21.2754 C.ar    1  UNL1        0.0984
     29 C          -2.7555  -19.1172   19.8648 C.ar    1  UNL1        0.0204
     30 C          -4.1670  -18.9361   19.3907 C.ar    1  UNL1       -0.0002
     31 C          -5.3110  -19.1896   20.3271 C.ar    1  UNL1        0.0073
     32 C          -6.7226  -19.0085   19.8530 C.3     1  UNL1        0.0968
     33 N          -7.8666  -19.2620   20.7894 N.3     1  UNL1       -0.2934
     34 H          -8.4419  -19.9877   20.3618 H       1  UNL1        0.1236
@<TRIPOS>BOND
     1    16    17   am
     2    17    18    2
     3    17    19   am
     4    19    15    1
     5    15    14    1
     6    14    13    1
     7    13    12    1
     8    12     1    1
     9     1    23    1
    10    24    23    1
    11    24    25    1
    12    25    26    1
    13    26    27   ar
    14    27    28   ar
    15    28    29   ar
    16    29    30   ar
    17    30    31   ar
    18    31    32    1
    19    32    33    1
    20     2     1    1
    21     2     3    1
    22     3     4    1
    23     4     5    1
    24     5     6    1
    25     6     7   ar
    26     7     8   ar
    27     8     9   ar
    28     9    10   ar
    29    10    11   ar
    30    33    24    1
    31    11     2    1
    32    31    26   ar
    33    11     6   ar
    34    16    20    1
    35    16    21    1
    36    19    22    1
    37    33    34    1
@<TRIPOS>MOLECULE
*****
 34 37 0 0 0
SMALL
GASTEIGER

@<TRIPOS>ATOM
      1 N          -7.8650  -17.9073   22.7048 N.3     1  UNL1       -0.2679
      2 C          -9.2967  -18.1218   23.0975 C.3     1  UNL1        0.0978
      3 C          -9.6259  -18.8995   24.3372 C.3     1  UNL1        0.0224
      4 C         -11.0576  -19.1141   24.7298 C.3     1  UNL1        0.0065
      5 C         -12.1600  -18.5510   23.8829 C.3     1  UNL1        0.0277
      6 C         -11.8308  -17.7732   22.6433 C.ar    1  UNL1       -0.0073
      7 C         -12.9333  -17.2100   21.7962 C.ar    1  UNL1       -0.0015
      8 C         -12.6041  -16.4323   20.5566 C.ar    1  UNL1        0.0203
      9 C         -11.1724  -16.2178   20.1639 C.ar    1  UNL1        0.0985
     10 N         -10.0699  -16.7809   21.0109 N.ar    1  UNL1       -0.2471
     11 C         -10.3991  -17.5587   22.2506 C.ar    1  UNL1        0.0695
     12 C          -7.3024  -16.5179   22.6502 C.3     1  UNL1        0.0725
     13 C          -7.0764  -15.7497   23.9187 C.3     1  UNL1        0.0191
     14 C          -5.7252  -15.7578   24.5698 C.3     1  UNL1        0.0227
     15 C          -5.6113  -15.6621   26.0624 C.3     1  UNL1        0.0910
     16 N          -8.7782  -14.3839   28.0841 N.am    1  UNL1       -0.3133
     17 C          -7.8544  -15.2833   27.3175 C.2     1  UNL1        0.2976
     18 O          -8.2498  -16.7033   27.0395 O.2     1  UNL1       -0.2531
     19 N          -6.5352  -14.7627   26.8290 N.am    1  UNL1       -0.2891
     20 H          -9.6441  -14.7256   28.4048 H       1  UNL1        0.1465
     21 H          -8.5187  -13.4519   28.2666 H       1  UNL1        0.1465
     22 H          -6.2757  -13.8307   27.0114 H       1  UNL1        0.1510
     23 C          -6.9958  -19.0821   22.3668 C.3     1  UNL1        0.0886
     24 C          -5.7787  -18.8930   21.5106 C.3     1  UNL1        0.0764
     25 C          -4.4341  -18.7076   22.1490 C.3     1  UNL1        0.0626
     26 C          -3.2170  -18.5184   21.2928 C.ar    1  UNL1        0.0577
     27 N          -1.8724  -18.3330   21.9312 N.ar    1  UNL1       -0.2484
     28 C          -0.6554  -18.1439   21.0750 C.ar    1  UNL1        0.0984
     29 C          -0.7830  -18.1402   19.5805 C.ar    1  UNL1        0.0204
     30 C          -2.1276  -18.3255   18.9421 C.ar    1  UNL1       -0.0002
     31 C          -3.3446  -18.5147   19.7982 C.ar    1  UNL1        0.0073
     32 C          -4.6893  -18.7001   19.1599 C.3     1  UNL1        0.0968
     33 N          -5.9063  -18.8892   20.0161 N.3     1  UNL1       -0.2934
     34 H          -6.3148  -19.7861   19.7532 H       1  UNL1        0.1236
@<TRIPOS>BOND
     1    16    17   am
     2    17    18    2
     3    17    19   am
     4    19    15    1
     5    15    14    1
     6    14    13    1
     7    13    12    1
     8    12     1    1
     9     1    23    1
    10    24    23    1
    11    24    25    1
    12    25    26    1
    13    26    27   ar
    14    27    28   ar
    15    28    29   ar
    16    29    30   ar
    17    30    31   ar
    18    31    32    1
    19    32    33    1
    20     2     1    1
    21     2     3    1
    22     3     4    1
    23     4     5    1
    24     5     6    1
    25     6     7   ar
    26     7     8   ar
    27     8     9   ar
    28     9    10   ar
    29    10    11   ar
    30    33    24    1
    31    11     2    1
    32    31    26   ar
    33    11     6   ar
    34    16    20    1
    35    16    21    1
    36    19    22    1
    37    33    34    1
@<TRIPOS>MOLECULE
*****
 34 37 0 0 0
SMALL
GASTEIGER

@<TRIPOS>ATOM
      1 N          -7.7054  -18.8267   21.4269 N.3     1  UNL1       -0.2679
      2 C          -8.9578  -19.0966   22.2071 C.3     1  UNL1        0.0978
      3 C          -8.9453  -20.0997   23.3222 C.3     1  UNL1        0.0224
      4 C         -10.1977  -20.3695   24.1024 C.3     1  UNL1        0.0065
      5 C         -11.4626  -19.6362   23.7674 C.3     1  UNL1        0.0277
      6 C         -11.4751  -18.6331   22.6523 C.ar    1  UNL1       -0.0073
      7 C         -12.7401  -17.8998   22.3173 C.ar    1  UNL1       -0.0015
      8 C         -12.7526  -16.8967   21.2022 C.ar    1  UNL1        0.0203
      9 C         -11.5002  -16.6269   20.4220 C.ar    1  UNL1        0.0985
     10 N         -10.2353  -17.3601   20.7569 N.ar    1  UNL1       -0.2471
     11 C         -10.2227  -18.3633   21.8721 C.ar    1  UNL1        0.0695
     12 C          -7.1204  -19.8970   20.5539 C.3     1  UNL1        0.0725
     13 C          -5.7651  -19.7065   19.9398 C.3     1  UNL1        0.0191
     14 C          -4.5364  -20.1325   20.6872 C.3     1  UNL1        0.0227
     15 C          -3.5061  -19.1151   21.0786 C.3     1  UNL1        0.0910
     16 N          -0.9059  -17.8506   18.3600 N.am    1  UNL1       -0.3133
     17 C          -2.1682  -17.9855   19.1592 C.2     1  UNL1        0.2976
     18 O          -3.3547  -17.1259   18.8380 O.2     1  UNL1       -0.2531
     19 N          -2.2438  -18.9801   20.2794 N.am    1  UNL1       -0.2891
     20 H          -0.8562  -17.1978   17.6247 H       1  UNL1        0.1465
     21 H          -0.1272  -18.4148   18.5708 H       1  UNL1        0.1465
     22 H          -1.4651  -19.5443   20.4902 H       1  UNL1        0.1510
     23 C          -7.0381  -17.4866   21.5197 C.3     1  UNL1        0.0886
     24 C          -6.7408  -16.8881   22.8626 C.3     1  UNL1        0.0764
     25 C          -7.8623  -16.5681   23.8060 C.3     1  UNL1        0.0626
     26 C          -7.5650  -15.9696   25.1490 C.ar    1  UNL1        0.0577
     27 N          -8.6864  -15.6496   26.0923 N.ar    1  UNL1       -0.2484
     28 C          -8.3891  -15.0511   27.4352 C.ar    1  UNL1        0.0984
     29 C          -6.9704  -14.7727   27.8347 C.ar    1  UNL1        0.0204
     30 C          -5.8489  -15.0927   26.8914 C.ar    1  UNL1       -0.0002
     31 C          -6.1462  -15.6911   25.5485 C.ar    1  UNL1        0.0073
     32 C          -5.0248  -16.0112   24.6051 C.3     1  UNL1        0.0968
     33 N          -5.3221  -16.6097   23.2622 N.3     1  UNL1       -0.2934
     34 H          -4.8242  -17.4988   23.2194 H       1  UNL1        0.1236
@<TRIPOS>BOND
     1    16    17   am
     2    17    18    2
     3    17    19   am
     4    19    15    1
     5    15    14    1
     6    14    13    1
     7    13    12    1
     8    12     1    1
     9     1    23    1
    10    24    23    1
    11    24    25    1
    12    25    26    1
    13    26    27   ar
    14    27    28   ar
    15    28    29   ar
    16    29    30   ar
    17    30    31   ar
    18    31    32    1
    19    32    33    1
    20     2     1    1
    21     2     3    1
    22     3     4    1
    23     4     5    1
    24     5     6    1
    25     6     7   ar
    26     7     8   ar
    27     8     9   ar
    28     9    10   ar
    29    10    11   ar
    30    33    24    1
    31    11     2    1
    32    31    26   ar
    33    11     6   ar
    34    16    20    1
    35    16    21    1
    36    19    22    1
    37    33    34    1
@<TRIPOS>MOLECULE
*****
 34 37 0 0 0
SMALL
GASTEIGER

@<TRIPOS>ATOM
      1 N          -8.6538  -18.0085   21.9765 N.3     1  UNL1       -0.2679
      2 C         -10.0804  -17.6299   21.7090 C.3     1  UNL1        0.0978
      3 C         -10.4455  -16.9381   20.4291 C.3     1  UNL1        0.0224
      4 C         -11.8721  -16.5595   20.1617 C.3     1  UNL1        0.0065
      5 C         -12.9336  -16.8726   21.1741 C.3     1  UNL1        0.0277
      6 C         -12.5685  -17.5644   22.4540 C.ar    1  UNL1       -0.0073
      7 C         -13.6300  -17.8775   23.4666 C.ar    1  UNL1       -0.0015
      8 C         -13.2650  -18.5693   24.7465 C.ar    1  UNL1        0.0203
      9 C         -11.8384  -18.9479   25.0139 C.ar    1  UNL1        0.0985
     10 N         -10.7769  -18.6348   24.0014 N.ar    1  UNL1       -0.2471
     11 C         -11.1419  -17.9430   22.7215 C.ar    1  UNL1        0.0695
     12 C          -7.8587  -17.2583   23.0035 C.3     1  UNL1        0.0725
     13 C          -8.0563  -15.7810   23.1728 C.3     1  UNL1        0.0191
     14 C          -7.3063  -15.0415   24.2408 C.3     1  UNL1        0.0227
     15 C          -5.8652  -15.3631   24.5047 C.3     1  UNL1        0.0910
     16 N          -2.8593  -16.1712   22.0426 N.am    1  UNL1       -0.3133
     17 C          -3.8736  -16.3196   23.1377 C.2     1  UNL1        0.2976
     18 O          -3.9104  -17.5729   23.9610 O.2     1  UNL1       -0.2531
     19 N          -4.8509  -15.2147   23.4096 N.am    1  UNL1       -0.2891
     20 H          -2.2178  -16.8964   21.8642 H       1  UNL1        0.1465
     21 H          -2.8351  -15.3486   21.5022 H       1  UNL1        0.1465
     22 H          -4.8267  -14.3921   22.8692 H       1  UNL1        0.1510
     23 C          -8.0224  -19.1373   21.2168 C.3     1  UNL1        0.0886
     24 C          -6.5286  -19.2626   21.1637 C.3     1  UNL1        0.0764
     25 C          -5.7483  -18.5015   20.1332 C.3     1  UNL1        0.0626
     26 C          -4.2544  -18.6268   20.0801 C.ar    1  UNL1        0.0577
     27 N          -3.4742  -17.8657   19.0496 N.ar    1  UNL1       -0.2484
     28 C          -1.9804  -17.9910   18.9965 C.ar    1  UNL1        0.0984
     29 C          -1.2669  -18.8774   19.9738 C.ar    1  UNL1        0.0204
     30 C          -2.0471  -19.6385   21.0043 C.ar    1  UNL1       -0.0002
     31 C          -3.5409  -19.5132   21.0574 C.ar    1  UNL1        0.0073
     32 C          -4.3213  -20.2743   22.0879 C.3     1  UNL1        0.0968
     33 N          -5.8150  -20.1490   22.1410 N.3     1  UNL1       -0.2934
     34 H          -6.0489  -19.8076   23.0733 H       1  UNL1        0.1236
@<TRIPOS>BOND
     1    16    17   am
     2    17    18    2
     3    17    19   am
     4    19    15    1
     5    15    14    1
     6    14    13    1
     7    13    12    1
     8    12     1    1
     9     1    23    1
    10    24    23    1
    11    24    25    1
    12    25    26    1
    13    26    27   ar
    14    27    28   ar
    15    28    29   ar
    16    29    30   ar
    17    30    31   ar
    18    31    32    1
    19    32    33    1
    20     2     1    1
    21     2     3    1
    22     3     4    1
    23     4     5    1
    24     5     6    1
    25     6     7   ar
    26     7     8   ar
    27     8     9   ar
    28     9    10   ar
    29    10    11   ar
    30    33    24    1
    31    11     2    1
    32    31    26   ar
    33    11     6   ar
    34    16    20    1
    35    16    21    1
    36    19    22    1
    37    33    34    1
@<TRIPOS>MOLECULE
*****
 34 37 0 0 0
SMALL
GASTEIGER

@<TRIPOS>ATOM
      1 N          -7.7071  -19.7102   22.3885 N.3     1  UNL1       -0.2679
      2 C          -8.0898  -18.2601   22.4135 C.3     1  UNL1        0.0978
      3 C          -7.3186  -17.2954   23.2646 C.3     1  UNL1        0.0224
      4 C          -7.7014  -15.8453   23.2896 C.3     1  UNL1        0.0065
      5 C          -8.8554  -15.3599   22.4635 C.3     1  UNL1        0.0277
      6 C          -9.6266  -16.3246   21.6123 C.ar    1  UNL1       -0.0073
      7 C         -10.7807  -15.8392   20.7861 C.ar    1  UNL1       -0.0015
      8 C         -11.5520  -16.8039   19.9350 C.ar    1  UNL1        0.0203
      9 C         -11.1692  -18.2540   19.9100 C.ar    1  UNL1        0.0985
     10 N         -10.0152  -18.7394   20.7362 N.ar    1  UNL1       -0.2471
     11 C          -9.2439  -17.7747   21.5874 C.ar    1  UNL1        0.0695
     12 C          -8.2991  -20.6595   23.3877 C.3     1  UNL1        0.0725
     13 C          -9.7382  -20.5248   23.7890 C.3     1  UNL1        0.0191
     14 C         -10.1253  -19.5791   24.8869 C.3     1  UNL1        0.0227
     15 C         -11.1734  -18.5344   24.6420 C.3     1  UNL1        0.0910
     16 N         -15.1380  -18.3864   24.7474 N.am    1  UNL1       -0.3133
     17 C         -13.7213  -18.1425   24.3186 C.2     1  UNL1        0.2976
     18 O         -13.4361  -17.2627   23.1377 O.2     1  UNL1       -0.2531
     19 N         -12.5900  -18.7783   25.0708 N.am    1  UNL1       -0.2891
     20 H         -15.8805  -17.9691   24.2537 H       1  UNL1        0.1465
     21 H         -15.3252  -18.9638   25.5225 H       1  UNL1        0.1465
     22 H         -12.7773  -19.3557   25.8459 H       1  UNL1        0.1510
     23 C          -6.7323  -20.2111   21.3644 C.3     1  UNL1        0.0886
     24 C          -5.3375  -19.6605   21.3242 C.3     1  UNL1        0.0764
     25 C          -4.7239  -19.2674   20.0131 C.3     1  UNL1        0.0626
     26 C          -3.3291  -18.7169   19.9729 C.ar    1  UNL1        0.0577
     27 N          -2.7154  -18.3238   18.6619 N.ar    1  UNL1       -0.2484
     28 C          -1.3207  -17.7733   18.6217 C.ar    1  UNL1        0.0984
     29 C          -0.5396  -17.6159   19.8926 C.ar    1  UNL1        0.0204
     30 C          -1.1533  -18.0090   21.2037 C.ar    1  UNL1       -0.0002
     31 C          -2.5480  -18.5595   21.2438 C.ar    1  UNL1        0.0073
     32 C          -3.1617  -18.9526   22.5549 C.3     1  UNL1        0.0968
     33 N          -4.5564  -19.5031   22.5951 N.3     1  UNL1       -0.2934
     34 H          -5.0991  -18.8864   23.1997 H       1  UNL1        0.1236
@<TRIPOS>BOND
     1    16    17   am
     2    17    18    2
     3    17    19   am
     4    19    15    1
     5    15    14    1
     6    14    13    1
     7    13    12    1
     8    12     1    1
     9     1    23    1
    10    24    23    1
    11    24    25    1
    12    25    26    1
    13    26    27   ar
    14    27    28   ar
    15    28    29   ar
    16    29    30   ar
    17    30    31   ar
    18    31    32    1
    19    32    33    1
    20     2     1    1
    21     2     3    1
    22     3     4    1
    23     4     5    1
    24     5     6    1
    25     6     7   ar
    26     7     8   ar
    27     8     9   ar
    28     9    10   ar
    29    10    11   ar
    30    33    24    1
    31    11     2    1
    32    31    26   ar
    33    11     6   ar
    34    16    20    1
    35    16    21    1
    36    19    22    1
    37    33    34    1
@<TRIPOS>MOLECULE
*****
 34 37 0 0 0
SMALL
GASTEIGER

@<TRIPOS>ATOM
      1 N          -6.4227  -17.1222   22.7027 N.3     1  UNL1       -0.2679
      2 C          -6.0323  -18.3483   21.9317 C.3     1  UNL1        0.0978
      3 C          -7.0744  -19.3568   21.5488 C.3     1  UNL1        0.0224
      4 C          -6.6840  -20.5829   20.7779 C.3     1  UNL1        0.0065
      5 C          -5.2515  -20.8004   20.3899 C.3     1  UNL1        0.0277
      6 C          -4.2094  -19.7919   20.7729 C.ar    1  UNL1       -0.0073
      7 C          -2.7768  -20.0093   20.3849 C.ar    1  UNL1       -0.0015
      8 C          -1.7347  -19.0007   20.7679 C.ar    1  UNL1        0.0203
      9 C          -2.1251  -17.7747   21.5388 C.ar    1  UNL1        0.0985
     10 N          -3.5576  -17.5572   21.9267 N.ar    1  UNL1       -0.2471
     11 C          -4.5998  -18.5658   21.5438 C.ar    1  UNL1        0.0695
     12 C          -5.8139  -16.8564   24.0475 C.3     1  UNL1        0.0725
     13 C          -5.5793  -15.4452   24.4989 C.3     1  UNL1        0.0191
     14 C          -5.1800  -15.1683   25.9180 C.3     1  UNL1        0.0227
     15 C          -6.2277  -15.0752   26.9874 C.3     1  UNL1        0.0910
     16 N          -9.3076  -17.5781   27.0103 N.am    1  UNL1       -0.3133
     17 C          -8.4503  -16.3883   26.6945 C.2     1  UNL1        0.2976
     18 O          -8.9586  -15.3220   25.7701 O.2     1  UNL1       -0.2531
     19 N          -7.0850  -16.2650   27.3031 N.am    1  UNL1       -0.2891
     20 H         -10.2038  -17.6591   26.6108 H       1  UNL1        0.1465
     21 H          -8.9741  -18.2780   27.6170 H       1  UNL1        0.1465
     22 H          -6.7514  -16.9649   27.9099 H       1  UNL1        0.1510
     23 C          -7.4219  -16.1619   22.1287 C.3     1  UNL1        0.0886
     24 C          -8.8902  -16.4131   22.3046 C.3     1  UNL1        0.0764
     25 C          -9.3679  -17.3520   23.3724 C.3     1  UNL1        0.0626
     26 C         -10.8363  -17.6031   23.5483 C.ar    1  UNL1        0.0577
     27 N         -11.3140  -18.5420   24.6161 N.ar    1  UNL1       -0.2484
     28 C         -12.7823  -18.7932   24.7919 C.ar    1  UNL1        0.0984
     29 C         -13.7729  -18.1054   23.9000 C.ar    1  UNL1        0.0204
     30 C         -13.2952  -17.1665   22.8322 C.ar    1  UNL1       -0.0002
     31 C         -11.8269  -16.9154   22.6563 C.ar    1  UNL1        0.0073
     32 C         -11.3492  -15.9764   21.5885 C.3     1  UNL1        0.0968
     33 N          -9.8809  -15.7253   21.4126 N.3     1  UNL1       -0.2934
     34 H          -9.7374  -14.7224   21.5314 H       1  UNL1        0.1236
@<TRIPOS>BOND
     1    16    17   am
     2    17    18    2
     3    17    19   am
     4    19    15    1
     5    15    14    1
     6    14    13    1
     7    13    12    1
     8    12     1    1
     9     1    23    1
    10    24    23    1
    11    24    25    1
    12    25    26    1
    13    26    27   ar
    14    27    28   ar
    15    28    29   ar
    16    29    30   ar
    17    30    31   ar
    18    31    32    1
    19    32    33    1
    20     2     1    1
    21     2     3    1
    22     3     4    1
    23     4     5    1
    24     5     6    1
    25     6     7   ar
    26     7     8   ar
    27     8     9   ar
    28     9    10   ar
    29    10    11   ar
    30    33    24    1
    31    11     2    1
    32    31    26   ar
    33    11     6   ar
    34    16    20    1
    35    16    21    1
    36    19    22    1
    37    33    34    1
@<TRIPOS>MOLECULE
*****
 34 37 0 0 0
SMALL
GASTEIGER

@<TRIPOS>ATOM
      1 N          -8.4874  -18.1932   22.1079 N.3     1  UNL1       -0.2679
      2 C          -9.8917  -17.8153   21.7403 C.3     1  UNL1        0.0978
      3 C         -10.1779  -17.2055   20.4001 C.3     1  UNL1        0.0224
      4 C         -11.5822  -16.8277   20.0325 C.3     1  UNL1        0.0065
      5 C         -12.7003  -17.0596   21.0051 C.3     1  UNL1        0.0277
      6 C         -12.4141  -17.6695   22.3453 C.ar    1  UNL1       -0.0073
      7 C         -13.5322  -17.9015   23.3180 C.ar    1  UNL1       -0.0015
      8 C         -13.2460  -18.5113   24.6582 C.ar    1  UNL1        0.0203
      9 C         -11.8417  -18.8891   25.0258 C.ar    1  UNL1        0.0985
     10 N         -10.7236  -18.6571   24.0532 N.ar    1  UNL1       -0.2471
     11 C         -11.0098  -18.0473   22.7129 C.ar    1  UNL1        0.0695
     12 C          -7.8197  -17.5447   23.2841 C.3     1  UNL1        0.0725
     13 C          -7.4694  -16.0869   23.2380 C.3     1  UNL1        0.0191
     14 C          -6.1609  -15.6119   23.7968 C.3     1  UNL1        0.0227
     15 C          -5.8988  -15.7000   25.2710 C.3     1  UNL1        0.0910
     16 N          -8.6410  -14.5240   27.8879 N.am    1  UNL1       -0.3133
     17 C          -7.8689  -15.3887   26.9358 C.2     1  UNL1        0.2976
     18 O          -8.2951  -16.8069   26.6966 O.2     1  UNL1       -0.2531
     19 N          -6.6708  -14.8353   26.2231 N.am    1  UNL1       -0.2891
     20 H          -9.4274  -14.8873   28.3557 H       1  UNL1        0.1465
     21 H          -8.3613  -13.5932   28.0449 H       1  UNL1        0.1465
     22 H          -6.3911  -13.9045   26.3801 H       1  UNL1        0.1510
     23 C          -7.7507  -19.2195   21.2992 C.3     1  UNL1        0.0886
     24 C          -6.2522  -19.1911   21.2369 C.3     1  UNL1        0.0764
     25 C          -5.5621  -18.5614   20.0634 C.3     1  UNL1        0.0626
     26 C          -4.0636  -18.5330   20.0012 C.ar    1  UNL1        0.0577
     27 N          -3.3736  -17.9033   18.8276 N.ar    1  UNL1       -0.2484
     28 C          -1.8751  -17.8749   18.7654 C.ar    1  UNL1        0.0984
     29 C          -1.0668  -18.4762   19.8768 C.ar    1  UNL1        0.0204
     30 C          -1.7569  -19.1059   21.0503 C.ar    1  UNL1       -0.0002
     31 C          -3.2553  -19.1343   21.1125 C.ar    1  UNL1        0.0073
     32 C          -3.9455  -19.7640   22.2861 C.3     1  UNL1        0.0968
     33 N          -5.4439  -19.7924   22.3483 N.3     1  UNL1       -0.2934
     34 H          -5.7123  -19.3064   23.2039 H       1  UNL1        0.1236
@<TRIPOS>BOND
     1    16    17   am
     2    17    18    2
     3    17    19   am
     4    19    15    1
     5    15    14    1
     6    14    13    1
     7    13    12    1
     8    12     1    1
     9     1    23    1
    10    24    23    1
    11    24    25    1
    12    25    26    1
    13    26    27   ar
    14    27    28   ar
    15    28    29   ar
    16    29    30   ar
    17    30    31   ar
    18    31    32    1
    19    32    33    1
    20     2     1    1
    21     2     3    1
    22     3     4    1
    23     4     5    1
    24     5     6    1
    25     6     7   ar
    26     7     8   ar
    27     8     9   ar
    28     9    10   ar
    29    10    11   ar
    30    33    24    1
    31    11     2    1
    32    31    26   ar
    33    11     6   ar
    34    16    20    1
    35    16    21    1
    36    19    22    1
    37    33    34    1
@<TRIPOS>MOLECULE
*****
 34 37 0 0 0
SMALL
GASTEIGER

@<TRIPOS>ATOM
      1 N          -7.2455  -18.9180   21.1043 N.3     1  UNL1       -0.2679
      2 C          -7.8217  -18.0169   22.1559 C.3     1  UNL1        0.0978
      3 C          -7.3998  -16.5791   22.2249 C.3     1  UNL1        0.0224
      4 C          -7.9760  -15.6780   23.2766 C.3     1  UNL1        0.0065
      5 C          -8.9741  -16.2147   24.2593 C.3     1  UNL1        0.0277
      6 C          -9.3960  -17.6524   24.1903 C.ar    1  UNL1       -0.0073
      7 C         -10.3942  -18.1892   25.1730 C.ar    1  UNL1       -0.0015
      8 C         -10.8161  -19.6269   25.1040 C.ar    1  UNL1        0.0203
      9 C         -10.2399  -20.5280   24.0523 C.ar    1  UNL1        0.0985
     10 N          -9.2418  -19.9914   23.0697 N.ar    1  UNL1       -0.2471
     11 C          -8.8198  -18.5535   23.1386 C.ar    1  UNL1        0.0695
     12 C          -7.8630  -18.9669   19.7382 C.3     1  UNL1        0.0725
     13 C          -8.9188  -19.9865   19.4284 C.3     1  UNL1        0.0191
     14 C         -10.3552  -19.5688   19.3177 C.3     1  UNL1        0.0227
     15 C         -10.8677  -18.4210   20.1362 C.3     1  UNL1        0.0910
     16 N         -13.3245  -17.7737   23.1851 N.am    1  UNL1       -0.3133
     17 C         -12.3263  -17.5290   22.0924 C.2     1  UNL1        0.2976
     18 O         -11.7886  -16.1475   21.8634 O.2     1  UNL1       -0.2531
     19 N         -11.8659  -18.6657   21.2288 N.am    1  UNL1       -0.2891
     20 H         -13.6267  -17.0276   23.7519 H       1  UNL1        0.1465
     21 H         -13.6774  -18.6804   23.3354 H       1  UNL1        0.1465
     22 H         -12.2188  -19.5724   21.3791 H       1  UNL1        0.1510
     23 C          -6.0518  -19.7701   21.4187 C.3     1  UNL1        0.0886
     24 C          -4.6736  -19.1805   21.3626 C.3     1  UNL1        0.0764
     25 C          -3.9374  -19.1174   20.0573 C.3     1  UNL1        0.0626
     26 C          -2.5592  -18.5278   20.0013 C.ar    1  UNL1        0.0577
     27 N          -1.8230  -18.4648   18.6959 N.ar    1  UNL1       -0.2484
     28 C          -0.4449  -17.8752   18.6399 C.ar    1  UNL1        0.0984
     29 C           0.1969  -17.3486   19.8892 C.ar    1  UNL1        0.0204
     30 C          -0.5393  -17.4116   21.1946 C.ar    1  UNL1       -0.0002
     31 C          -1.9174  -18.0012   21.2506 C.ar    1  UNL1        0.0073
     32 C          -2.6537  -18.0643   22.5559 C.3     1  UNL1        0.0968
     33 N          -4.0318  -18.6539   22.6119 N.3     1  UNL1       -0.2934
     34 H          -4.6483  -17.9275   22.9760 H       1  UNL1        0.1236
@<TRIPOS>BOND
     1    16    17   am
     2    17    18    2
     3    17    19   am
     4    19    15    1
     5    15    14    1
     6    14    13    1
     7    13    12    1
     8    12     1    1
     9     1    23    1
    10    24    23    1
    11    24    25    1
    12    25    26    1
    13    26    27   ar
    14    27    28   ar
    15    28    29   ar
    16    29    30   ar
    17    30    31   ar
    18    31    32    1
    19    32    33    1
    20     2     1    1
    21     2     3    1
    22     3     4    1
    23     4     5    1
    24     5     6    1
    25     6     7   ar
    26     7     8   ar
    27     8     9   ar
    28     9    10   ar
    29    10    11   ar
    30    33    24    1
    31    11     2    1
    32    31    26   ar
    33    11     6   ar
    34    16    20    1
    35    16    21    1
    36    19    22    1
    37    33    34    1
