@<TRIPOS>MOLECULE
*****
 20 21 0 0 0
SMALL
GASTEIGER

@<TRIPOS>ATOM
      1 C          -5.7609  -20.0274   22.0388 C.2     1  UNL1        0.0000
      2 C          -7.0557  -19.2879   21.8757 C.2     1  UNL1        0.0001
      3 C          -2.0798  -18.6260   19.8626 C.ar    1  UNL1        0.1387
      4 C          -3.4109  -18.6115   19.1713 C.ar    1  UNL1        0.0369
      5 C          -4.6379  -19.0786   19.8967 C.ar    1  UNL1        0.0031
      6 C          -4.5339  -19.5602   21.3134 C.ar    1  UNL1        0.0002
      7 C          -3.2028  -19.5747   22.0048 C.ar    1  UNL1        0.0031
      8 C          -1.9758  -19.1075   21.2794 C.ar    1  UNL1        0.0369
      9 C           0.3099  -17.6077   19.9081 C.3     1  UNL1        0.2525
     10 O          -0.8528  -18.1588   19.1372 O.3     1  UNL1       -0.4714
     11 C          -8.2828  -19.7550   22.6011 C.2     1  UNL1        0.0033
     12 C          -8.9265  -18.8740   23.6304 C.2     1  UNL1        0.0435
     13 C         -10.1535  -19.3411   24.3558 C.2     1  UNL1        0.2111
     14 O         -10.0426  -20.4002   25.4122 O.2     1  UNL1       -0.2850
     15 C         -11.4914  -18.7492   24.0247 C.ar    1  UNL1        0.0961
     16 C         -11.8615  -18.0702   22.7394 C.ar    1  UNL1        0.0218
     17 C         -13.2930  -17.6337   22.8412 C.ar    1  UNL1        0.0200
     18 C         -13.8076  -18.0429   24.1895 C.ar    1  UNL1        0.0725
     19 N         -12.6941  -18.7323   24.9209 N.ar    1  UNL1       -0.3495
     20 H         -12.7440  -19.1078   25.8296 H       1  UNL1        0.1661
@<TRIPOS>BOND
     1     9    10    1
     2    10     3    1
     3     3     4   ar
     4     4     5   ar
     5     5     6   ar
     6     6     1    1
     7     1     2    2
     8     2    11    1
     9    11    12    2
    10    12    13    1
    11    13    14    2
    12    13    15    1
    13    15    16   ar
    14    16    17   ar
    15    17    18   ar
    16    18    19   ar
    17     6     7   ar
    18     7     8   ar
    19     8     3   ar
    20    19    15   ar
    21    19    20    1
@<TRIPOS>MOLECULE
*****
 20 21 0 0 0
SMALL
GASTEIGER

@<TRIPOS>ATOM
      1 C          -5.6103  -19.2965   22.2638 C.2     1  UNL1        0.0000
      2 C          -6.8765  -19.5549   21.5024 C.2     1  UNL1        0.0001
      3 C          -1.7609  -18.5716   20.0487 C.ar    1  UNL1        0.1387
      4 C          -1.8271  -18.3478   21.5304 C.ar    1  UNL1        0.0369
      5 C          -3.1103  -18.5895   22.2687 C.ar    1  UNL1        0.0031
      6 C          -4.3271  -19.0548   21.5254 C.ar    1  UNL1        0.0002
      7 C          -4.2609  -19.2786   20.0437 C.ar    1  UNL1        0.0031
      8 C          -2.9777  -19.0370   19.3053 C.ar    1  UNL1        0.0369
      9 C           0.6371  -17.5747   19.9711 C.3     1  UNL1        0.2525
     10 O          -0.4777  -18.3299   19.3103 O.3     1  UNL1       -0.4714
     11 C          -8.1596  -19.7966   22.2407 C.2     1  UNL1        0.0033
     12 C          -8.5814  -18.8633   23.3367 C.2     1  UNL1        0.0435
     13 C          -9.8646  -19.1049   24.0751 C.2     1  UNL1        0.2111
     14 O          -9.8671  -19.9404   25.3210 O.2     1  UNL1       -0.2850
     15 C         -11.1451  -18.5111   23.5677 C.ar    1  UNL1        0.0961
     16 C         -12.4614  -18.5079   24.2870 C.ar    1  UNL1        0.0218
     17 C         -13.4641  -17.8111   23.4158 C.ar    1  UNL1        0.0200
     18 C         -12.7674  -17.3837   22.1579 C.ar    1  UNL1        0.0725
     19 N         -11.3343  -17.8163   22.2519 N.ar    1  UNL1       -0.3495
     20 H         -10.6397  -17.6700   21.5697 H       1  UNL1        0.1661
@<TRIPOS>BOND
     1     9    10    1
     2    10     3    1
     3     3     4   ar
     4     4     5   ar
     5     5     6   ar
     6     6     1    1
     7     1     2    2
     8     2    11    1
     9    11    12    2
    10    12    13    1
    11    13    14    2
    12    13    15    1
    13    15    16   ar
    14    16    17   ar
    15    17    18   ar
    16    18    19   ar
    17     6     7   ar
    18     7     8   ar
    19     8     3   ar
    20    19    15   ar
    21    19    20    1
@<TRIPOS>MOLECULE
*****
 20 21 0 0 0
SMALL
GASTEIGER

@<TRIPOS>ATOM
      1 C          -8.8959  -19.3540   21.5165 C.2     1  UNL1        0.0000
      2 C          -7.7090  -19.7264   22.3546 C.2     1  UNL1        0.0001
      3 C         -12.7603  -18.1639   23.4914 C.ar    1  UNL1        0.1387
      4 C         -12.5428  -17.8770   22.0353 C.ar    1  UNL1        0.0369
      5 C         -11.2546  -18.2737   21.3770 C.ar    1  UNL1        0.0031
      6 C         -10.1841  -18.9573   22.1748 C.ar    1  UNL1        0.0002
      7 C         -10.4016  -19.2441   23.6309 C.ar    1  UNL1        0.0031
      8 C         -11.6898  -18.8475   24.2892 C.ar    1  UNL1        0.0369
      9 C         -14.4650  -18.4175   25.4356 C.3     1  UNL1        0.2525
     10 O         -14.0485  -17.7672   24.1497 O.3     1  UNL1       -0.4714
     11 C          -6.4208  -20.1231   21.6963 C.2     1  UNL1        0.0033
     12 C          -5.4527  -19.0692   21.2468 C.2     1  UNL1        0.0435
     13 C          -4.1645  -19.4659   20.5885 C.2     1  UNL1        0.2111
     14 O          -4.0128  -20.8389   20.0038 O.2     1  UNL1       -0.2850
     15 C          -3.0281  -18.4897   20.5150 C.ar    1  UNL1        0.0961
     16 C          -1.9132  -18.5084   19.5117 C.ar    1  UNL1        0.0218
     17 C          -1.0031  -17.3536   19.8084 C.ar    1  UNL1        0.0200
     18 C          -1.5555  -16.6211   20.9952 C.ar    1  UNL1        0.0725
     19 N          -2.8071  -17.3233   21.4318 N.ar    1  UNL1       -0.3495
     20 H          -3.3824  -17.0641   22.1875 H       1  UNL1        0.1661
@<TRIPOS>BOND
     1     9    10    1
     2    10     3    1
     3     3     4   ar
     4     4     5   ar
     5     5     6   ar
     6     6     1    1
     7     1     2    2
     8     2    11    1
     9    11    12    2
    10    12    13    1
    11    13    14    2
    12    13    15    1
    13    15    16   ar
    14    16    17   ar
    15    17    18   ar
    16    18    19   ar
    17     6     7   ar
    18     7     8   ar
    19     8     3   ar
    20    19    15   ar
    21    19    20    1
@<TRIPOS>MOLECULE
*****
 20 21 0 0 0
SMALL
GASTEIGER

@<TRIPOS>ATOM
      1 C          -7.8995  -19.0426   21.7700 C.2     1  UNL1        0.0000
      2 C          -6.7735  -19.8863   22.2900 C.2     1  UNL1        0.0001
      3 C         -11.7293  -18.7117   24.1094 C.ar    1  UNL1        0.1387
      4 C         -11.4740  -17.7895   22.9543 C.ar    1  UNL1        0.0369
      5 C         -10.1974  -17.8998   22.1745 C.ar    1  UNL1        0.0031
      6 C          -9.1761  -18.9323   22.5498 C.ar    1  UNL1        0.0002
      7 C          -9.4314  -19.8545   23.7049 C.ar    1  UNL1        0.0031
      8 C         -10.7081  -19.7442   24.4847 C.ar    1  UNL1        0.0369
      9 C         -14.2675  -18.1654   24.2049 C.3     1  UNL1        0.2525
     10 O         -13.0060  -18.6015   24.8892 O.3     1  UNL1       -0.4714
     11 C          -5.4969  -19.9965   21.5102 C.2     1  UNL1        0.0033
     12 C          -4.2487  -19.3374   22.0177 C.2     1  UNL1        0.0435
     13 C          -2.9721  -19.4477   21.2379 C.2     1  UNL1        0.2111
     14 O          -1.9101  -20.4148   21.6705 O.2     1  UNL1       -0.2850
     15 C          -2.7574  -18.5909   20.0256 C.ar    1  UNL1        0.0961
     16 C          -1.4433  -18.3328   19.3498 C.ar    1  UNL1        0.0218
     17 C          -1.6928  -17.4242   18.1827 C.ar    1  UNL1        0.0200
     18 C          -3.1611  -17.1208   18.1372 C.ar    1  UNL1        0.0725
     19 N          -3.8190  -17.8419   19.2761 N.ar    1  UNL1       -0.3495
     20 H          -4.7791  -17.8262   19.4936 H       1  UNL1        0.1661
@<TRIPOS>BOND
     1     9    10    1
     2    10     3    1
     3     3     4   ar
     4     4     5   ar
     5     5     6   ar
     6     6     1    1
     7     1     2    2
     8     2    11    1
     9    11    12    2
    10    12    13    1
    11    13    14    2
    12    13    15    1
    13    15    16   ar
    14    16    17   ar
    15    17    18   ar
    16    18    19   ar
    17     6     7   ar
    18     7     8   ar
    19     8     3   ar
    20    19    15   ar
    21    19    20    1
@<TRIPOS>MOLECULE
*****
 20 21 0 0 0
SMALL
GASTEIGER

@<TRIPOS>ATOM
      1 C          -7.0892  -18.8484   21.5984 C.2     1  UNL1        0.0000
      2 C          -7.6663  -17.5274   22.0130 C.2     1  UNL1        0.0001
      3 C          -2.6571  -19.2599   20.9374 C.ar    1  UNL1        0.1387
      4 C          -3.1746  -18.7226   22.2387 C.ar    1  UNL1        0.0369
      5 C          -4.6520  -18.5855   22.4590 C.ar    1  UNL1        0.0031
      6 C          -5.6119  -18.9856   21.3781 C.ar    1  UNL1        0.0002
      7 C          -5.0943  -19.5228   20.0767 C.ar    1  UNL1        0.0031
      8 C          -3.6170  -19.6600   19.8564 C.ar    1  UNL1        0.0369
      9 C          -0.4111  -18.2824   20.0715 C.3     1  UNL1        0.2525
     10 O          -1.1797  -19.3970   20.7170 O.3     1  UNL1       -0.4714
     11 C          -9.1436  -17.3903   22.2334 C.2     1  UNL1        0.0033
     12 C         -10.1035  -17.7895   21.1520 C.2     1  UNL1        0.0435
     13 C         -11.5809  -17.6524   21.3723 C.2     1  UNL1        0.2111
     14 O         -12.4606  -17.1496   20.2663 O.2     1  UNL1       -0.2850
     15 C         -12.1785  -18.0180   22.6986 C.ar    1  UNL1        0.0961
     16 C         -13.5426  -17.6310   23.1878 C.ar    1  UNL1        0.0218
     17 C         -13.7241  -18.2087   24.5602 C.ar    1  UNL1        0.0200
     18 C         -12.4721  -18.9528   24.9191 C.ar    1  UNL1        0.0725
     19 N         -11.5168  -18.8349   23.7686 N.ar    1  UNL1       -0.3495
     20 H         -10.6141  -19.2252   23.7237 H       1  UNL1        0.1661
@<TRIPOS>BOND
     1     9    10    1
     2    10     3    1
     3     3     4   ar
     4     4     5   ar
     5     5     6   ar
     6     6     1    1
     7     1     2    2
     8     2    11    1
     9    11    12    2
    10    12    13    1
    11    13    14    2
    12    13    15    1
    13    15    16   ar
    14    16    17   ar
    15    17    18   ar
    16    18    19   ar
    17     6     7   ar
    18     7     8   ar
    19     8     3   ar
    20    19    15   ar
    21    19    20    1
@<TRIPOS>MOLECULE
*****
 20 21 0 0 0
SMALL
GASTEIGER

@<TRIPOS>ATOM
      1 C          -4.9350  -17.6561   22.9735 C.2     1  UNL1        0.0000
      2 C          -5.2510  -16.2954   23.5199 C.2     1  UNL1        0.0001
      3 C          -1.0788  -18.3525   20.7611 C.ar    1  UNL1        0.1387
      4 C          -2.0324  -19.4890   20.9822 C.ar    1  UNL1        0.0369
      5 C          -3.3178  -19.2569   21.7197 C.ar    1  UNL1        0.0031
      6 C          -3.6496  -17.8882   22.2360 C.ar    1  UNL1        0.0002
      7 C          -2.6960  -16.7517   22.0149 C.ar    1  UNL1        0.0031
      8 C          -1.4106  -16.9839   21.2774 C.ar    1  UNL1        0.0369
      9 C           1.2738  -17.5307   20.0266 C.3     1  UNL1        0.2525
     10 O           0.2066  -18.5847   20.0236 O.3     1  UNL1       -0.4714
     11 C          -6.5364  -16.0632   24.2574 C.2     1  UNL1        0.0033
     12 C          -7.8463  -16.3838   23.6005 C.2     1  UNL1        0.0435
     13 C          -9.1317  -16.1516   24.3380 C.2     1  UNL1        0.2111
     14 O          -9.1129  -15.5139   25.6956 O.2     1  UNL1       -0.2850
     15 C         -10.4359  -16.5572   23.7179 C.ar    1  UNL1        0.0961
     16 C         -11.1177  -17.8827   23.8861 C.ar    1  UNL1        0.0218
     17 C         -12.3905  -17.8532   23.0929 C.ar    1  UNL1        0.0200
     18 C         -12.4953  -16.5094   22.4346 C.ar    1  UNL1        0.0725
     19 N         -11.2873  -15.7085   22.8209 N.ar    1  UNL1       -0.3495
     20 H         -11.0883  -14.7874   22.5357 H       1  UNL1        0.1661
@<TRIPOS>BOND
     1     9    10    1
     2    10     3    1
     3     3     4   ar
     4     4     5   ar
     5     5     6   ar
     6     6     1    1
     7     1     2    2
     8     2    11    1
     9    11    12    2
    10    12    13    1
    11    13    14    2
    12    13    15    1
    13    15    16   ar
    14    16    17   ar
    15    17    18   ar
    16    18    19   ar
    17     6     7   ar
    18     7     8   ar
    19     8     3   ar
    20    19    15   ar
    21    19    20    1
@<TRIPOS>MOLECULE
*****
 20 21 0 0 0
SMALL
GASTEIGER

@<TRIPOS>ATOM
      1 C           6.6398   -4.2099   24.0551 C.2     1  UNL1        0.0000
      2 C           5.5014   -3.5637   23.3227 C.2     1  UNL1        0.0001
      3 C           6.5896   -4.4275   28.5496 C.ar    1  UNL1        0.1387
      4 C           6.4152   -3.1065   27.8606 C.ar    1  UNL1        0.0369
      5 C           6.4319   -3.0340   26.3625 C.ar    1  UNL1        0.0031
      6 C           6.6231   -4.2824   25.5532 C.ar    1  UNL1        0.0002
      7 C           6.7975   -5.6034   26.2422 C.ar    1  UNL1        0.0031
      8 C           6.7808   -5.6759   27.7403 C.ar    1  UNL1        0.0369
      9 C           7.1096   -5.7143   30.7458 C.3     1  UNL1        0.2525
     10 O           6.5729   -4.5000   30.0477 O.3     1  UNL1       -0.4714
     11 C           5.5181   -3.4912   21.8246 C.2     1  UNL1        0.0033
     12 C           4.2958   -3.8696   21.0417 C.2     1  UNL1        0.0435
     13 C           4.3125   -3.7971   19.5436 C.2     1  UNL1        0.2111
     14 O           4.6740   -5.0098   18.7380 O.2     1  UNL1       -0.2850
     15 C           3.9678   -2.5120   18.8510 C.ar    1  UNL1        0.0961
     16 C           3.2348   -1.3525   19.4578 C.ar    1  UNL1        0.0218
     17 C           3.1095   -0.2847   18.4119 C.ar    1  UNL1        0.0200
     18 C           3.7651   -0.7843   17.1586 C.ar    1  UNL1        0.0725
     19 N           4.2955   -2.1609   17.4300 N.ar    1  UNL1       -0.3495
     20 H           4.7746   -2.7334   16.7882 H       1  UNL1        0.1661
@<TRIPOS>BOND
     1     9    10    1
     2    10     3    1
     3     3     4   ar
     4     4     5   ar
     5     5     6   ar
     6     6     1    1
     7     1     2    2
     8     2    11    1
     9    11    12    2
    10    12    13    1
    11    13    14    2
    12    13    15    1
    13    15    16   ar
    14    16    17   ar
    15    17    18   ar
    16    18    19   ar
    17     6     7   ar
    18     7     8   ar
    19     8     3   ar
    20    19    15   ar
    21    19    20    1
@<TRIPOS>MOLECULE
*****
 20 21 0 0 0
SMALL
GASTEIGER

@<TRIPOS>ATOM
      1 C           6.4690   -0.5918   33.8862 C.2     1  UNL1        0.0000
      2 C           5.1254   -0.6940   34.5452 C.2     1  UNL1        0.0001
      3 C           8.0229   -4.0078   31.4031 C.ar    1  UNL1        0.1387
      4 C           6.5463   -3.8384   31.6051 C.ar    1  UNL1        0.0369
      5 C           6.0283   -2.6997   32.4328 C.ar    1  UNL1        0.0031
      6 C           6.9870   -1.7305   33.0585 C.ar    1  UNL1        0.0002
      7 C           8.4636   -1.8999   32.8565 C.ar    1  UNL1        0.0031
      8 C           8.9816   -3.0386   32.0288 C.ar    1  UNL1        0.0369
      9 C           7.5900   -5.9826   29.7714 C.3     1  UNL1        0.2525
     10 O           8.5409   -5.1465   30.5755 O.3     1  UNL1       -0.4714
     11 C           4.6074    0.4447   35.3729 C.2     1  UNL1        0.0033
     12 C           4.6470    0.3624   36.8701 C.2     1  UNL1        0.0435
     13 C           4.1290    1.5011   37.6978 C.2     1  UNL1        0.2111
     14 O           4.9276    2.7652   37.8176 O.2     1  UNL1       -0.2850
     15 C           2.8125    1.3757   38.4056 C.ar    1  UNL1        0.0961
     16 C           1.8415    2.4891   38.6654 C.ar    1  UNL1        0.0218
     17 C           0.6647    1.9164   39.3983 C.ar    1  UNL1        0.0200
     18 C           0.9084    0.4490   39.5915 C.ar    1  UNL1        0.0725
     19 N           2.2358    0.1148   38.9780 N.ar    1  UNL1       -0.3495
     20 H           2.6549   -0.7757   38.9550 H       1  UNL1        0.1661
@<TRIPOS>BOND
     1     9    10    1
     2    10     3    1
     3     3     4   ar
     4     4     5   ar
     5     5     6   ar
     6     6     1    1
     7     1     2    2
     8     2    11    1
     9    11    12    2
    10    12    13    1
    11    13    14    2
    12    13    15    1
    13    15    16   ar
    14    16    17   ar
    15    17    18   ar
    16    18    19   ar
    17     6     7   ar
    18     7     8   ar
    19     8     3   ar
    20    19    15   ar
    21    19    20    1
@<TRIPOS>MOLECULE
*****
 20 21 0 0 0
SMALL
GASTEIGER

@<TRIPOS>ATOM
      1 C         -14.5916   -2.8560   20.1996 C.2     1  UNL1        0.0000
      2 C         -15.3806   -2.0382   19.2205 C.2     1  UNL1        0.0001
      3 C         -11.0676   -5.2725   18.7884 C.ar    1  UNL1        0.1387
      4 C         -12.2794   -5.9644   19.3387 C.ar    1  UNL1        0.0369
      5 C         -13.4540   -5.1589   19.8091 C.ar    1  UNL1        0.0031
      6 C         -13.4169   -3.6615   19.7292 C.ar    1  UNL1        0.0002
      7 C         -12.2052   -2.9696   19.1789 C.ar    1  UNL1        0.0031
      8 C         -11.0305   -3.7752   18.7085 C.ar    1  UNL1        0.0369
      9 C          -9.5847   -7.3991   18.9583 C.3     1  UNL1        0.2525
     10 O          -9.8929   -6.0781   18.3181 O.3     1  UNL1       -0.4714
     11 C         -16.5553   -1.2327   19.6908 C.2     1  UNL1        0.0033
     12 C         -16.3348    0.0513   20.4344 C.2     1  UNL1        0.0435
     13 C         -17.5094    0.8569   20.9048 C.2     1  UNL1        0.2111
     14 O         -18.8944    0.4961   20.4556 O.2     1  UNL1       -0.2850
     15 C         -17.2992    2.0231   21.8243 C.ar    1  UNL1        0.0961
     16 C         -16.6636    3.3315   21.4578 C.ar    1  UNL1        0.0218
     17 C         -16.6592    4.2028   22.6788 C.ar    1  UNL1        0.0200
     18 C         -17.2921    3.4329   23.7999 C.ar    1  UNL1        0.0725
     19 N         -17.6876    2.0858   23.2718 N.ar    1  UNL1       -0.3495
     20 H         -18.1253    1.3688   23.7850 H       1  UNL1        0.1661
@<TRIPOS>BOND
     1     9    10    1
     2    10     3    1
     3     3     4   ar
     4     4     5   ar
     5     5     6   ar
     6     6     1    1
     7     1     2    2
     8     2    11    1
     9    11    12    2
    10    12    13    1
    11    13    14    2
    12    13    15    1
    13    15    16   ar
    14    16    17   ar
    15    17    18   ar
    16    18    19   ar
    17     6     7   ar
    18     7     8   ar
    19     8     3   ar
    20    19    15   ar
    21    19    20    1
