@<TRIPOS>MOLECULE
*****
 24 27 0 0 0
SMALL
GASTEIGER

@<TRIPOS>ATOM
      1 N          -8.5521  -16.9689   21.9779 N.ar    1  UNL1       -0.3087
      2 C          -8.0115  -18.2521   21.4202 C.ar    1  UNL1        0.1493
      3 N          -9.1749  -19.1334   21.0740 N.ar    1  UNL1       -0.2284
      4 C         -10.4344  -18.3949   21.4177 C.ar    1  UNL1        0.0984
      5 C         -11.8820  -18.7677   21.2942 C.ar    1  UNL1        0.0206
      6 C         -12.9448  -17.8027   21.7293 C.ar    1  UNL1        0.0016
      7 C         -12.5598  -16.4649   22.2880 C.ar    1  UNL1        0.0016
      8 C         -11.1122  -16.0921   22.4116 C.ar    1  UNL1        0.0188
      9 C         -10.0495  -17.0571   21.9764 C.ar    1  UNL1        0.0789
     10 C          -6.5621  -18.5940   21.2403 C.3     1  UNL1        0.1869
     11 C          -5.7141  -18.9178   22.4344 C.3     1  UNL1        0.1064
     12 N          -4.2647  -19.2597   22.2545 N.3     1  UNL1       -0.2930
     13 C          -3.6634  -19.2778   20.8804 C.3     1  UNL1        0.1011
     14 C          -4.5114  -18.9540   19.6863 C.3     1  UNL1        0.1597
     15 O          -5.9608  -18.6121   19.8662 O.3     1  UNL1       -0.3458
     16 H          -4.1312  -20.1918   22.6466 H       1  UNL1        0.1234
     17 C          -7.7381  -15.8022   22.4537 C.3     1  UNL1        0.1340
     18 F          -6.4633  -15.2129   28.2870 F       1  UNL1       -0.2042
     19 C          -6.7820  -15.3602   26.8286 C.ar    1  UNL1        0.1401
     20 C          -8.2077  -15.4958   26.3825 C.ar    1  UNL1        0.0294
     21 C          -8.5264  -15.6431   24.9242 C.ar    1  UNL1       -0.0001
     22 C          -7.4194  -15.6549   23.9119 C.ar    1  UNL1        0.0006
     23 C          -5.9937  -15.5193   24.3582 C.ar    1  UNL1       -0.0001
     24 C          -5.6751  -15.3720   25.8165 C.ar    1  UNL1        0.0294
@<TRIPOS>BOND
     1    18    19    1
     2    19    20   ar
     3    20    21   ar
     4    21    22   ar
     5    22    17    1
     6    17     1    1
     7     1     2   ar
     8    10     2    1
     9    10    11    1
    10    11    12    1
    11    12    13    1
    12    13    14    1
    13    14    15    1
    14     2     3   ar
    15     3     4   ar
    16     4     5   ar
    17     5     6   ar
    18     6     7   ar
    19     7     8   ar
    20     8     9   ar
    21    22    23   ar
    22    23    24   ar
    23    24    19   ar
    24     9     1   ar
    25    15    10    1
    26     9     4   ar
    27    12    16    1
@<TRIPOS>MOLECULE
*****
 24 27 0 0 0
SMALL
GASTEIGER

@<TRIPOS>ATOM
      1 N          -7.9295  -18.1030   22.3768 N.ar    1  UNL1       -0.3087
      2 C          -8.1682  -16.7854   23.0528 C.ar    1  UNL1        0.1493
      3 N          -9.3920  -16.1673   22.4443 N.ar    1  UNL1       -0.2284
      4 C          -9.9096  -17.1029   21.3922 C.ar    1  UNL1        0.0984
      5 C         -11.0872  -17.0200   20.4669 C.ar    1  UNL1        0.0206
      6 C         -11.3609  -18.1334   19.4998 C.ar    1  UNL1        0.0016
      7 C         -10.4570  -19.3298   19.4581 C.ar    1  UNL1        0.0016
      8 C          -9.2794  -19.4127   20.3835 C.ar    1  UNL1        0.0188
      9 C          -9.0057  -18.2992   21.3505 C.ar    1  UNL1        0.0789
     10 C          -7.3303  -16.1904   24.1454 C.3     1  UNL1        0.1869
     11 C          -6.0049  -15.5680   23.8197 C.3     1  UNL1        0.1064
     12 N          -5.1670  -14.9730   24.9124 N.3     1  UNL1       -0.2930
     13 C          -5.6544  -15.0003   26.3307 C.3     1  UNL1        0.1011
     14 C          -6.9797  -15.6227   26.6563 C.3     1  UNL1        0.1597
     15 O          -7.8177  -16.2177   25.5637 O.3     1  UNL1       -0.3458
     16 H          -5.0201  -13.9931   24.6703 H       1  UNL1        0.1234
     17 C          -6.8109  -19.0569   22.6748 C.3     1  UNL1        0.1340
     18 F          -1.6712  -18.7089   19.5988 F       1  UNL1       -0.2042
     19 C          -2.9561  -18.7959   20.3678 C.ar    1  UNL1        0.1401
     20 C          -2.9652  -18.5352   21.8449 C.ar    1  UNL1        0.0294
     21 C          -4.2502  -18.6222   22.6139 C.ar    1  UNL1       -0.0001
     22 C          -5.5261  -18.9699   21.9058 C.ar    1  UNL1        0.0006
     23 C          -5.5169  -19.2307   20.4287 C.ar    1  UNL1       -0.0001
     24 C          -4.2319  -19.1436   19.6597 C.ar    1  UNL1        0.0294
@<TRIPOS>BOND
     1    18    19    1
     2    19    20   ar
     3    20    21   ar
     4    21    22   ar
     5    22    17    1
     6    17     1    1
     7     1     2   ar
     8    10     2    1
     9    10    11    1
    10    11    12    1
    11    12    13    1
    12    13    14    1
    13    14    15    1
    14     2     3   ar
    15     3     4   ar
    16     4     5   ar
    17     5     6   ar
    18     6     7   ar
    19     7     8   ar
    20     8     9   ar
    21    22    23   ar
    22    23    24   ar
    23    24    19   ar
    24     9     1   ar
    25    15    10    1
    26     9     4   ar
    27    12    16    1
@<TRIPOS>MOLECULE
*****
 24 27 0 0 0
SMALL
GASTEIGER

@<TRIPOS>ATOM
      1 N          -8.7017  -17.2876   22.1671 N.ar    1  UNL1       -0.3087
      2 C          -7.3368  -17.3346   22.7875 C.ar    1  UNL1        0.1493
      3 N          -6.5293  -18.3637   22.0535 N.ar    1  UNL1       -0.2284
      4 C          -7.3951  -18.9528   20.9795 C.ar    1  UNL1        0.0984
      5 C          -7.1344  -20.0089   19.9468 C.ar    1  UNL1        0.0206
      6 C          -8.2163  -20.3999   18.9842 C.ar    1  UNL1        0.0016
      7 C          -9.5590  -19.7348   19.0545 C.ar    1  UNL1        0.0016
      8 C          -9.8197  -18.6788   20.0873 C.ar    1  UNL1        0.0188
      9 C          -8.7378  -18.2878   21.0498 C.ar    1  UNL1        0.0789
     10 C          -6.8627  -16.4991   23.9395 C.3     1  UNL1        0.1869
     11 C          -5.5490  -15.7803   23.8541 C.3     1  UNL1        0.1064
     12 N          -5.0749  -14.9448   25.0061 N.3     1  UNL1       -0.2930
     13 C          -5.9145  -14.8281   26.2435 C.3     1  UNL1        0.1011
     14 C          -7.2282  -15.5469   26.3290 C.3     1  UNL1        0.1597
     15 O          -7.7023  -16.3824   25.1770 O.3     1  UNL1       -0.3458
     16 H          -4.9435  -13.9984   24.6490 H       1  UNL1        0.1234
     17 C          -9.8322  -16.3970   22.5899 C.3     1  UNL1        0.1340
     18 F         -14.9418  -18.7951   24.6248 F       1  UNL1       -0.2042
     19 C         -13.6644  -18.1956   24.1161 C.ar    1  UNL1        0.1401
     20 C         -13.7061  -17.0867   23.1068 C.ar    1  UNL1        0.0294
     21 C         -12.4287  -16.4871   22.5981 C.ar    1  UNL1       -0.0001
     22 C         -11.1095  -16.9965   23.0987 C.ar    1  UNL1        0.0006
     23 C         -11.0679  -18.1054   24.1079 C.ar    1  UNL1       -0.0001
     24 C         -12.3453  -18.7049   24.6166 C.ar    1  UNL1        0.0294
@<TRIPOS>BOND
     1    18    19    1
     2    19    20   ar
     3    20    21   ar
     4    21    22   ar
     5    22    17    1
     6    17     1    1
     7     1     2   ar
     8    10     2    1
     9    10    11    1
    10    11    12    1
    11    12    13    1
    12    13    14    1
    13    14    15    1
    14     2     3   ar
    15     3     4   ar
    16     4     5   ar
    17     5     6   ar
    18     6     7   ar
    19     7     8   ar
    20     8     9   ar
    21    22    23   ar
    22    23    24   ar
    23    24    19   ar
    24     9     1   ar
    25    15    10    1
    26     9     4   ar
    27    12    16    1
@<TRIPOS>MOLECULE
*****
 24 27 0 0 0
SMALL
GASTEIGER

@<TRIPOS>ATOM
      1 N          -6.4720  -16.5694   23.7110 N.ar    1  UNL1       -0.3087
      2 C          -4.9921  -16.5831   23.9556 C.ar    1  UNL1        0.1493
      3 N          -4.7457  -16.0514   25.3364 N.ar    1  UNL1       -0.2284
      4 C          -6.0732  -15.7091   25.9451 C.ar    1  UNL1        0.0984
      5 C          -6.4483  -15.1473   27.2844 C.ar    1  UNL1        0.0206
      6 C          -7.8904  -14.9057   27.6190 C.ar    1  UNL1        0.0016
      7 C          -8.9573  -15.2259   26.6145 C.ar    1  UNL1        0.0016
      8 C          -8.5822  -15.7877   25.2752 C.ar    1  UNL1        0.0188
      9 C          -7.1401  -16.0293   24.9406 C.ar    1  UNL1        0.0789
     10 C          -3.9430  -17.0470   22.9891 C.3     1  UNL1        0.1869
     11 C          -3.7747  -18.5112   22.7105 C.3     1  UNL1        0.1064
     12 N          -2.7255  -18.9751   21.7441 N.3     1  UNL1       -0.2930
     13 C          -1.8446  -17.9747   21.0562 C.3     1  UNL1        0.1011
     14 C          -2.0129  -16.5105   21.3348 C.3     1  UNL1        0.1597
     15 O          -3.0620  -16.0466   22.3012 O.3     1  UNL1       -0.3458
     16 H          -3.2091  -19.4945   21.0114 H       1  UNL1        0.1234
     17 C          -7.1625  -17.0173   22.4569 C.3     1  UNL1        0.1340
     18 F         -13.0603  -18.1187   22.5091 F       1  UNL1       -0.2042
     19 C         -11.5858  -17.8434   22.4961 C.ar    1  UNL1        0.1401
     20 C         -11.0687  -16.5537   21.9310 C.ar    1  UNL1        0.0294
     21 C          -9.5943  -16.2784   21.9180 C.ar    1  UNL1       -0.0001
     22 C          -8.6369  -17.2927   22.4700 C.ar    1  UNL1        0.0006
     23 C          -9.1541  -18.5823   23.0350 C.ar    1  UNL1       -0.0001
     24 C         -10.6285  -18.8577   23.0481 C.ar    1  UNL1        0.0294
@<TRIPOS>BOND
     1    18    19    1
     2    19    20   ar
     3    20    21   ar
     4    21    22   ar
     5    22    17    1
     6    17     1    1
     7     1     2   ar
     8    10     2    1
     9    10    11    1
    10    11    12    1
    11    12    13    1
    12    13    14    1
    13    14    15    1
    14     2     3   ar
    15     3     4   ar
    16     4     5   ar
    17     5     6   ar
    18     6     7   ar
    19     7     8   ar
    20     8     9   ar
    21    22    23   ar
    22    23    24   ar
    23    24    19   ar
    24     9     1   ar
    25    15    10    1
    26     9     4   ar
    27    12    16    1
@<TRIPOS>MOLECULE
*****
 24 27 0 0 0
SMALL
GASTEIGER

@<TRIPOS>ATOM
      1 N          -7.7412  -17.6864   21.8442 N.ar    1  UNL1       -0.3087
      2 C          -8.9235  -18.5151   21.4373 C.ar    1  UNL1        0.1493
      3 N          -8.4127  -19.8197   20.9015 N.ar    1  UNL1       -0.2284
      4 C          -6.9147  -19.7972   20.9771 C.ar    1  UNL1        0.0984
      5 C          -5.8750  -20.8070   20.5907 C.ar    1  UNL1        0.0206
      6 C          -4.4203  -20.4982   20.7869 C.ar    1  UNL1        0.0016
      7 C          -4.0054  -19.1798   21.3695 C.ar    1  UNL1        0.0016
      8 C          -5.0451  -18.1700   21.7559 C.ar    1  UNL1        0.0188
      9 C          -6.4998  -18.4788   21.5597 C.ar    1  UNL1        0.0789
     10 C         -10.3637  -18.1104   21.5472 C.3     1  UNL1        0.1869
     11 C         -11.0572  -17.4807   20.3756 C.3     1  UNL1        0.1064
     12 N         -12.4973  -17.0759   20.4855 N.3     1  UNL1       -0.2930
     13 C         -13.2440  -17.3009   21.7668 C.3     1  UNL1        0.1011
     14 C         -12.5505  -17.9306   22.9383 C.3     1  UNL1        0.1597
     15 O         -11.1104  -18.3353   22.8285 O.3     1  UNL1       -0.3458
     16 H         -13.0018  -17.5823   19.7578 H       1  UNL1        0.1234
     17 C          -7.7916  -16.3074   22.4322 C.3     1  UNL1        0.1340
     18 F          -6.5777  -15.4802   28.2496 F       1  UNL1       -0.2042
     19 C          -6.8812  -15.6870   26.7952 C.ar    1  UNL1        0.1401
     20 C          -5.8072  -15.4816   25.7684 C.ar    1  UNL1        0.0294
     21 C          -6.1107  -15.6884   24.3141 C.ar    1  UNL1       -0.0001
     22 C          -7.4882  -16.1006   23.8865 C.ar    1  UNL1        0.0006
     23 C          -8.5621  -16.3060   24.9134 C.ar    1  UNL1       -0.0001
     24 C          -8.2586  -16.0992   26.3677 C.ar    1  UNL1        0.0294
@<TRIPOS>BOND
     1    18    19    1
     2    19    20   ar
     3    20    21   ar
     4    21    22   ar
     5    22    17    1
     6    17     1    1
     7     1     2   ar
     8    10     2    1
     9    10    11    1
    10    11    12    1
    11    12    13    1
    12    13    14    1
    13    14    15    1
    14     2     3   ar
    15     3     4   ar
    16     4     5   ar
    17     5     6   ar
    18     6     7   ar
    19     7     8   ar
    20     8     9   ar
    21    22    23   ar
    22    23    24   ar
    23    24    19   ar
    24     9     1   ar
    25    15    10    1
    26     9     4   ar
    27    12    16    1
@<TRIPOS>MOLECULE
*****
 24 27 0 0 0
SMALL
GASTEIGER

@<TRIPOS>ATOM
      1 N          -6.3928  -18.1256   22.5637 N.ar    1  UNL1       -0.3087
      2 C          -7.7669  -17.8292   22.0403 C.ar    1  UNL1        0.1493
      3 N          -8.2778  -16.6077   22.7453 N.ar    1  UNL1       -0.2284
      4 C          -7.2195  -16.1493   23.7043 C.ar    1  UNL1        0.0984
      5 C          -7.1662  -14.9988   24.6653 C.ar    1  UNL1        0.0206
      6 C          -5.9478  -14.7864   25.5140 C.ar    1  UNL1        0.0016
      7 C          -4.7827  -15.7246   25.4018 C.ar    1  UNL1        0.0016
      8 C          -4.8361  -16.8750   24.4408 C.ar    1  UNL1        0.0188
      9 C          -6.0544  -17.0874   23.5921 C.ar    1  UNL1        0.0789
     10 C          -8.5011  -18.6160   20.9954 C.3     1  UNL1        0.1869
     11 C          -9.9324  -19.0058   21.2180 C.3     1  UNL1        0.1064
     12 N         -10.6666  -19.7926   20.1731 N.3     1  UNL1       -0.2930
     13 C          -9.9696  -20.1897   18.9057 C.3     1  UNL1        0.1011
     14 C          -8.5384  -19.8000   18.6832 C.3     1  UNL1        0.1597
     15 O          -7.8041  -19.0132   19.7280 O.3     1  UNL1       -0.3458
     16 H         -11.4774  -19.2366   19.9015 H       1  UNL1        0.1234
     17 C          -5.5116  -19.2610   22.1341 C.3     1  UNL1        0.1340
     18 F          -0.3609  -18.1425   19.2672 F       1  UNL1       -0.2042
     19 C          -1.6485  -18.4221   19.9840 C.ar    1  UNL1        0.1401
     20 C          -2.8986  -18.6950   19.2011 C.ar    1  UNL1        0.0294
     21 C          -4.1863  -18.9746   19.9178 C.ar    1  UNL1       -0.0001
     22 C          -4.2240  -18.9814   21.4174 C.ar    1  UNL1        0.0006
     23 C          -2.9738  -18.7085   22.2002 C.ar    1  UNL1       -0.0001
     24 C          -1.6862  -18.4289   21.4834 C.ar    1  UNL1        0.0294
@<TRIPOS>BOND
     1    18    19    1
     2    19    20   ar
     3    20    21   ar
     4    21    22   ar
     5    22    17    1
     6    17     1    1
     7     1     2   ar
     8    10     2    1
     9    10    11    1
    10    11    12    1
    11    12    13    1
    12    13    14    1
    13    14    15    1
    14     2     3   ar
    15     3     4   ar
    16     4     5   ar
    17     5     6   ar
    18     6     7   ar
    19     7     8   ar
    20     8     9   ar
    21    22    23   ar
    22    23    24   ar
    23    24    19   ar
    24     9     1   ar
    25    15    10    1
    26     9     4   ar
    27    12    16    1
@<TRIPOS>MOLECULE
*****
 24 27 0 0 0
SMALL
GASTEIGER

@<TRIPOS>ATOM
      1 N          -8.1746  -16.3563   23.4484 N.ar    1  UNL1       -0.3087
      2 C          -9.5768  -16.5027   23.9607 C.ar    1  UNL1        0.1493
      3 N          -9.5698  -16.1867   25.4270 N.ar    1  UNL1       -0.2284
      4 C          -8.1634  -15.8450   25.8209 C.ar    1  UNL1        0.0984
      5 C          -7.5565  -15.4520   27.1351 C.ar    1  UNL1        0.0206
      6 C          -6.0873  -15.1638   27.2264 C.ar    1  UNL1        0.0016
      7 C          -5.2250  -15.2686   26.0035 C.ar    1  UNL1        0.0016
      8 C          -5.8319  -15.6617   24.6893 C.ar    1  UNL1        0.0188
      9 C          -7.3011  -15.9498   24.5980 C.ar    1  UNL1        0.0789
     10 C         -10.7755  -16.8960   23.1492 C.3     1  UNL1        0.1869
     11 C         -11.6895  -17.9800   23.6385 C.3     1  UNL1        0.1064
     12 N         -12.8882  -18.3733   22.8270 N.3     1  UNL1       -0.2930
     13 C         -13.1728  -17.6826   21.5263 C.3     1  UNL1        0.1011
     14 C         -12.2587  -16.5986   21.0370 C.3     1  UNL1        0.1597
     15 O         -11.0601  -16.2053   21.8485 O.3     1  UNL1       -0.3458
     16 H         -13.7053  -18.2312   23.4208 H       1  UNL1        0.1234
     17 C          -7.7249  -16.5776   22.0346 C.3     1  UNL1        0.1340
     18 F          -5.8276  -22.0000   20.3035 F       1  UNL1       -0.2042
     19 C          -6.3020  -20.6444   20.7363 C.ar    1  UNL1        0.1401
     20 C          -5.5745  -19.9062   21.8207 C.ar    1  UNL1        0.0294
     21 C          -6.0488  -18.5506   22.2534 C.ar    1  UNL1       -0.0001
     22 C          -7.2506  -17.9331   21.6018 C.ar    1  UNL1        0.0006
     23 C          -7.9780  -18.6714   20.5174 C.ar    1  UNL1       -0.0001
     24 C          -7.5037  -20.0270   20.0847 C.ar    1  UNL1        0.0294
@<TRIPOS>BOND
     1    18    19    1
     2    19    20   ar
     3    20    21   ar
     4    21    22   ar
     5    22    17    1
     6    17     1    1
     7     1     2   ar
     8    10     2    1
     9    10    11    1
    10    11    12    1
    11    12    13    1
    12    13    14    1
    13    14    15    1
    14     2     3   ar
    15     3     4   ar
    16     4     5   ar
    17     5     6   ar
    18     6     7   ar
    19     7     8   ar
    20     8     9   ar
    21    22    23   ar
    22    23    24   ar
    23    24    19   ar
    24     9     1   ar
    25    15    10    1
    26     9     4   ar
    27    12    16    1
@<TRIPOS>MOLECULE
*****
 24 27 0 0 0
SMALL
GASTEIGER

@<TRIPOS>ATOM
      1 N         -13.3004   -5.4022   18.2148 N.ar    1  UNL1       -0.3087
      2 C         -13.0708   -4.0914   18.9071 C.ar    1  UNL1        0.1493
      3 N         -11.6405   -4.0492   19.3570 N.ar    1  UNL1       -0.2284
      4 C         -10.9861   -5.3338   18.9428 C.ar    1  UNL1        0.0984
      5 C          -9.5886   -5.8502   19.1172 C.ar    1  UNL1        0.0206
      6 C          -9.2171   -7.2027   18.5857 C.ar    1  UNL1        0.0016
      7 C         -10.2430   -8.0389   17.8798 C.ar    1  UNL1        0.0016
      8 C         -11.6405   -7.5226   17.7054 C.ar    1  UNL1        0.0188
      9 C         -12.0120   -6.1700   18.2369 C.ar    1  UNL1        0.0789
     10 C         -14.0921   -3.0124   19.1132 C.3     1  UNL1        0.1869
     11 C         -15.3363   -3.2980   19.9008 C.3     1  UNL1        0.1064
     12 N         -16.3577   -2.2189   20.1070 N.3     1  UNL1       -0.2930
     13 C         -16.1349   -0.8543   19.5255 C.3     1  UNL1        0.1011
     14 C         -14.8907   -0.5688   18.7379 C.3     1  UNL1        0.1597
     15 O         -13.8693   -1.6478   18.5318 O.3     1  UNL1       -0.3458
     16 H         -16.4577   -2.0969   21.1147 H       1  UNL1        0.1234
     17 C         -14.5917   -5.8640   17.6072 C.3     1  UNL1        0.1340
     18 F         -17.3238  -10.7651   19.7319 F       1  UNL1       -0.2042
     19 C         -16.6408   -9.5399   19.2007 C.ar    1  UNL1        0.1401
     20 C         -16.8267   -8.2198   19.8886 C.ar    1  UNL1        0.0294
     21 C         -16.1437   -6.9946   19.3573 C.ar    1  UNL1       -0.0001
     22 C         -15.2747   -7.0893   18.1383 C.ar    1  UNL1        0.0006
     23 C         -15.0888   -8.4093   17.4506 C.ar    1  UNL1       -0.0001
     24 C         -15.7718   -9.6345   17.9818 C.ar    1  UNL1        0.0294
@<TRIPOS>BOND
     1    18    19    1
     2    19    20   ar
     3    20    21   ar
     4    21    22   ar
     5    22    17    1
     6    17     1    1
     7     1     2   ar
     8    10     2    1
     9    10    11    1
    10    11    12    1
    11    12    13    1
    12    13    14    1
    13    14    15    1
    14     2     3   ar
    15     3     4   ar
    16     4     5   ar
    17     5     6   ar
    18     6     7   ar
    19     7     8   ar
    20     8     9   ar
    21    22    23   ar
    22    23    24   ar
    23    24    19   ar
    24     9     1   ar
    25    15    10    1
    26     9     4   ar
    27    12    16    1
@<TRIPOS>MOLECULE
*****
 24 27 0 0 0
SMALL
GASTEIGER

@<TRIPOS>ATOM
      1 N         -14.5264   -6.5954   19.2770 N.ar    1  UNL1       -0.3087
      2 C         -13.3780   -7.0582   18.4302 C.ar    1  UNL1        0.1493
      3 N         -13.7133   -8.4201   17.8986 N.ar    1  UNL1       -0.2284
      4 C         -15.0691   -8.7990   18.4167 C.ar    1  UNL1        0.0984
      5 C         -15.9109  -10.0253   18.2228 C.ar    1  UNL1        0.0206
      6 C         -17.2552  -10.1238   18.8808 C.ar    1  UNL1        0.0016
      7 C         -17.7577   -8.9961   19.7327 C.ar    1  UNL1        0.0016
      8 C         -16.9159   -7.7699   19.9266 C.ar    1  UNL1        0.0188
      9 C         -15.5716   -7.6713   19.2686 C.ar    1  UNL1        0.0789
     10 C         -12.1158   -6.2933   18.1623 C.3     1  UNL1        0.1869
     11 C         -11.8718   -5.7002   16.8063 C.3     1  UNL1        0.1064
     12 N         -10.6096   -4.9353   16.5383 N.3     1  UNL1       -0.2930
     13 C          -9.5914   -4.7635   17.6263 C.3     1  UNL1        0.1011
     14 C          -9.8353   -5.3566   18.9822 C.3     1  UNL1        0.1597
     15 O         -11.0975   -6.1215   19.2502 O.3     1  UNL1       -0.3458
     16 H         -10.8891   -3.9989   16.2462 H       1  UNL1        0.1234
     17 C         -14.6143   -5.2865   20.0044 C.3     1  UNL1        0.1340
     18 F         -12.5294   -0.2808   17.4362 F       1  UNL1       -0.2042
     19 C         -13.0506   -1.5322   18.0782 C.ar    1  UNL1        0.1401
     20 C         -12.4426   -2.0286   19.3565 C.ar    1  UNL1        0.0294
     21 C         -12.9638   -3.2801   19.9985 C.ar    1  UNL1       -0.0001
     22 C         -14.0931   -4.0352   19.3623 C.ar    1  UNL1        0.0006
     23 C         -14.7011   -3.5387   18.0841 C.ar    1  UNL1       -0.0001
     24 C         -14.1798   -2.2873   17.4421 C.ar    1  UNL1        0.0294
@<TRIPOS>BOND
     1    18    19    1
     2    19    20   ar
     3    20    21   ar
     4    21    22   ar
     5    22    17    1
     6    17     1    1
     7     1     2   ar
     8    10     2    1
     9    10    11    1
    10    11    12    1
    11    12    13    1
    12    13    14    1
    13    14    15    1
    14     2     3   ar
    15     3     4   ar
    16     4     5   ar
    17     5     6   ar
    18     6     7   ar
    19     7     8   ar
    20     8     9   ar
    21    22    23   ar
    22    23    24   ar
    23    24    19   ar
    24     9     1   ar
    25    15    10    1
    26     9     4   ar
    27    12    16    1
