@<TRIPOS>MOLECULE
*****
 31 34 0 0 0
SMALL
GASTEIGER

@<TRIPOS>ATOM
      1 C           8.0955   -5.7827   24.4567 C.ar    1  UNL1        0.1295
      2 C           7.2627   -5.6872   25.7008 C.ar    1  UNL1        0.0216
      3 C           7.2344   -6.8284   26.6738 C.ar    1  UNL1        0.0178
      4 C           8.0388   -8.0652   26.4028 C.ar    1  UNL1        0.0789
      5 N           8.8715   -8.1607   25.1589 N.ar    1  UNL1       -0.2451
      6 C           8.8998   -7.0195   24.1858 C.ar    1  UNL1        0.1172
      7 S           8.1238   -4.6415   23.4837 S.O2    1  UNL1        0.0319
      8 O           8.1989   -5.6145   22.3447 O.2     1  UNL1       -0.1641
      9 O           8.0486   -3.6685   24.6228 O.2     1  UNL1       -0.1641
     10 N           7.6020   -2.0329   20.6574 N.ar    1  UNL1       -0.2481
     11 C           7.2083   -3.2968   21.3627 C.ar    1  UNL1        0.1154
     12 C           8.1521   -3.5003   22.5107 C.ar    1  UNL1        0.1498
     13 C           9.1291   -2.3622   22.5149 C.ar    1  UNL1        0.1404
     14 N           8.7892   -1.4553   21.3695 N.ar    1  UNL1       -0.1662
     15 C           6.9271   -1.4491   19.4517 C.3     1  UNL1        0.1276
     16 C           5.1925   -2.8612   18.1299 C.3     1  UNL1        0.0021
     17 C           6.5857   -2.3273   18.2845 C.3     1  UNL1        0.0264
     18 C           8.0105   -9.2065   27.3759 C.3     1  UNL1        0.1361
     19 N           6.7390   -9.9703   27.5991 N.am    1  UNL1       -0.2931
     20 C           6.7849  -11.4512   27.8329 C.2     1  UNL1        0.2809
     21 O           8.1023  -12.1683   27.8434 O.2     1  UNL1       -0.2668
     22 H           5.8743   -9.4996   27.5923 H       1  UNL1        0.1502
     23 C           5.5134  -12.2151   28.0561 C.ar    1  UNL1        0.1984
     24 C           4.3902  -11.8112   28.9646 C.ar    1  UNL1        0.0453
     25 C           3.3244  -12.8634   28.8800 C.ar    1  UNL1        0.0409
     26 C           1.9910  -12.9978   29.5537 C.ar    1  UNL1        0.0238
     27 C           1.1222  -14.1864   29.2667 C.ar    1  UNL1        0.0991
     28 N           1.5868  -15.2405   28.3060 N.ar    1  UNL1       -0.2391
     29 C           2.9202  -15.1061   27.6323 C.ar    1  UNL1        0.1362
     30 C           3.7890  -13.9176   27.9193 C.ar    1  UNL1        0.1646
     31 O           5.1418  -13.5168   27.4101 O.2     1  UNL1       -0.4473
@<TRIPOS>BOND
     1    16    17    1
     2    17    15    1
     3    15    10    1
     4    10    11   ar
     5    11    12   ar
     6    12     7    1
     7     7     8    2
     8     7     9    2
     9     7     1    1
    10     1     2   ar
    11     2     3   ar
    12     3     4   ar
    13     4    18    1
    14    18    19    1
    15    19    20   am
    16    20    21    2
    17    20    23    1
    18    23    24   ar
    19    24    25   ar
    20    25    26   ar
    21    26    27   ar
    22    27    28   ar
    23    28    29   ar
    24    29    30   ar
    25    30    31   ar
    26     4     5   ar
    27     5     6   ar
    28    12    13   ar
    29    13    14   ar
    30    14    10   ar
    31     6     1   ar
    32    31    23   ar
    33    30    25   ar
    34    19    22    1
@<TRIPOS>MOLECULE
*****
 31 34 0 0 0
SMALL
GASTEIGER

@<TRIPOS>ATOM
      1 C           6.5938   -4.0844   27.1907 C.ar    1  UNL1        0.1295
      2 C           6.6453   -5.3804   27.9443 C.ar    1  UNL1        0.0216
      3 C           6.6811   -5.3751   29.4439 C.ar    1  UNL1        0.0178
      4 C           6.6654   -4.0739   30.1898 C.ar    1  UNL1        0.0789
      5 N           6.6140   -2.7779   29.4363 N.ar    1  UNL1       -0.2451
      6 C           6.5781   -2.7832   27.9367 C.ar    1  UNL1        0.1172
      7 S           6.5579   -4.0898   25.6912 S.O2    1  UNL1        0.0319
      8 O           6.1162   -2.6563   25.6966 O.2     1  UNL1       -0.1641
      9 O           6.9997   -5.5232   25.6857 O.2     1  UNL1       -0.1641
     10 N           5.8429   -3.6875   21.8975 N.ar    1  UNL1       -0.2481
     11 C           5.4913   -3.4255   23.3319 C.ar    1  UNL1        0.1154
     12 C           6.5221   -4.0951   24.1916 C.ar    1  UNL1        0.1498
     13 C           7.5108   -4.7710   23.2885 C.ar    1  UNL1        0.1404
     14 N           7.0911   -4.5191   21.8706 N.ar    1  UNL1       -0.1662
     15 C           5.0803   -3.2030   20.7001 C.3     1  UNL1        0.1276
     16 C           4.5631   -5.0202   18.9168 C.3     1  UNL1        0.0021
     17 C           4.1012   -4.1110   20.0167 C.3     1  UNL1        0.0264
     18 C           6.7013   -4.0686   31.6895 C.3     1  UNL1        0.1361
     19 N           5.8289   -3.1201   32.4572 N.am    1  UNL1       -0.2931
     20 C           6.3735   -1.7965   32.9061 C.2     1  UNL1        0.2809
     21 O           7.7904   -1.4214   32.5873 O.2     1  UNL1       -0.2668
     22 H           4.8990   -3.3662   32.6664 H       1  UNL1        0.1502
     23 C           5.5012   -0.8480   33.6738 C.ar    1  UNL1        0.1984
     24 C           5.4954   -0.6638   35.1624 C.ar    1  UNL1        0.0453
     25 C           4.4721    0.3809   35.4963 C.ar    1  UNL1        0.0409
     26 C           4.0301    0.9716   36.8023 C.ar    1  UNL1        0.0238
     27 C           2.9613    2.0237   36.8260 C.ar    1  UNL1        0.0991
     28 N           2.3346    2.4852   35.5437 N.ar    1  UNL1       -0.2391
     29 C           2.7767    1.8946   34.2377 C.ar    1  UNL1        0.1362
     30 C           3.8455    0.8424   34.2140 C.ar    1  UNL1        0.1646
     31 O           4.4814    0.0829   33.0876 O.2     1  UNL1       -0.4473
@<TRIPOS>BOND
     1    16    17    1
     2    17    15    1
     3    15    10    1
     4    10    11   ar
     5    11    12   ar
     6    12     7    1
     7     7     8    2
     8     7     9    2
     9     7     1    1
    10     1     2   ar
    11     2     3   ar
    12     3     4   ar
    13     4    18    1
    14    18    19    1
    15    19    20   am
    16    20    21    2
    17    20    23    1
    18    23    24   ar
    19    24    25   ar
    20    25    26   ar
    21    26    27   ar
    22    27    28   ar
    23    28    29   ar
    24    29    30   ar
    25    30    31   ar
    26     4     5   ar
    27     5     6   ar
    28    12    13   ar
    29    13    14   ar
    30    14    10   ar
    31     6     1   ar
    32    31    23   ar
    33    30    25   ar
    34    19    22    1
@<TRIPOS>MOLECULE
*****
 31 34 0 0 0
SMALL
GASTEIGER

@<TRIPOS>ATOM
      1 C           0.6092    1.7019   19.1358 C.ar    1  UNL1        0.1295
      2 C           0.2519    2.7230   18.0966 C.ar    1  UNL1        0.0216
      3 C          -0.8906    3.6657   18.3332 C.ar    1  UNL1        0.0178
      4 C          -1.6758    3.5874   19.6088 C.ar    1  UNL1        0.0789
      5 N          -1.3186    2.5663   20.6479 N.ar    1  UNL1       -0.2451
      6 C          -0.1760    1.6235   20.4114 C.ar    1  UNL1        0.1172
      7 S           1.7517    0.7592   18.8992 S.O2    1  UNL1        0.0319
      8 O           0.9925   -0.3343   19.5904 O.2     1  UNL1       -0.1641
      9 O           2.5109    1.8528   18.2081 O.2     1  UNL1       -0.1641
     10 N           4.6675   -1.7994   19.0301 N.ar    1  UNL1       -0.2481
     11 C           3.5902   -1.0049   19.7071 C.ar    1  UNL1        0.1154
     12 C           2.8942   -0.1835   18.6627 C.ar    1  UNL1        0.1498
     13 C           3.5412   -0.4703   17.3402 C.ar    1  UNL1        0.1404
     14 N           4.6372   -1.4689   17.5672 N.ar    1  UNL1       -0.1662
     15 C           5.6096   -2.7562   19.6985 C.3     1  UNL1        0.1276
     16 C           4.1484   -4.7517   18.9029 C.3     1  UNL1        0.0021
     17 C           5.3614   -4.2333   19.6169 C.3     1  UNL1        0.0264
     18 C          -2.8184    4.5301   19.8453 C.3     1  UNL1        0.1361
     19 N          -3.2485    4.8507   21.2461 N.am    1  UNL1       -0.2931
     20 C          -4.6600    4.5827   21.6772 C.2     1  UNL1        0.2809
     21 O          -5.6413    3.9940   20.7074 O.2     1  UNL1       -0.2668
     22 H          -2.6044    5.2371   21.8826 H       1  UNL1        0.1502
     23 C          -5.0901    4.9033   23.0780 C.ar    1  UNL1        0.1984
     24 C          -6.3805    5.5560   23.4765 C.ar    1  UNL1        0.0453
     25 C          -6.3933    5.6835   24.9710 C.ar    1  UNL1        0.0409
     26 C          -7.4071    6.2481   25.9215 C.ar    1  UNL1        0.0238
     27 C          -7.1383    6.2388   27.3972 C.ar    1  UNL1        0.0991
     28 N          -5.8558    5.6649   27.9223 N.ar    1  UNL1       -0.2391
     29 C          -4.8420    5.1003   26.9718 C.ar    1  UNL1        0.1362
     30 C          -5.1108    5.1097   25.4962 C.ar    1  UNL1        0.1646
     31 O          -4.3054    4.6274   24.3262 O.2     1  UNL1       -0.4473
@<TRIPOS>BOND
     1    16    17    1
     2    17    15    1
     3    15    10    1
     4    10    11   ar
     5    11    12   ar
     6    12     7    1
     7     7     8    2
     8     7     9    2
     9     7     1    1
    10     1     2   ar
    11     2     3   ar
    12     3     4   ar
    13     4    18    1
    14    18    19    1
    15    19    20   am
    16    20    21    2
    17    20    23    1
    18    23    24   ar
    19    24    25   ar
    20    25    26   ar
    21    26    27   ar
    22    27    28   ar
    23    28    29   ar
    24    29    30   ar
    25    30    31   ar
    26     4     5   ar
    27     5     6   ar
    28    12    13   ar
    29    13    14   ar
    30    14    10   ar
    31     6     1   ar
    32    31    23   ar
    33    30    25   ar
    34    19    22    1
@<TRIPOS>MOLECULE
*****
 31 34 0 0 0
SMALL
GASTEIGER

@<TRIPOS>ATOM
      1 C           5.3185   -1.4429   31.1484 C.ar    1  UNL1        0.1295
      2 C           6.1396   -2.6941   31.2496 C.ar    1  UNL1        0.0216
      3 C           6.5721   -3.4102   30.0045 C.ar    1  UNL1        0.0178
      4 C           6.1833   -2.8751   28.6582 C.ar    1  UNL1        0.0789
      5 N           5.3622   -1.6239   28.5570 N.ar    1  UNL1       -0.2451
      6 C           4.9298   -0.9078   29.8021 C.ar    1  UNL1        0.1172
      7 S           4.8861   -0.7269   32.3935 S.O2    1  UNL1        0.0319
      8 O           5.9195    0.3313   32.1439 O.2     1  UNL1       -0.1641
      9 O           3.8527   -1.7850   32.6431 O.2     1  UNL1       -0.1641
     10 N           4.2085    0.6269   35.9675 N.ar    1  UNL1       -0.2481
     11 C           4.8794   -0.3410   35.0385 C.ar    1  UNL1        0.1154
     12 C           4.4537   -0.0108   33.6386 C.ar    1  UNL1        0.1498
     13 C           3.5196    1.1611   33.7024 C.ar    1  UNL1        0.1404
     14 N           3.3680    1.5552   35.1417 N.ar    1  UNL1       -0.1662
     15 C           4.3526    0.6606   37.4602 C.3     1  UNL1        0.1276
     16 C           2.1137    0.8204   38.7684 C.3     1  UNL1        0.0021
     17 C           3.3863    1.4535   38.2893 C.3     1  UNL1        0.0264
     18 C           6.6158   -3.5912   27.4131 C.3     1  UNL1        0.1361
     19 N           5.9835   -3.2531   26.0956 N.am    1  UNL1       -0.2931
     20 C           6.3710   -4.0119   24.8610 C.2     1  UNL1        0.2809
     21 O           7.3908   -5.1087   24.9441 O.2     1  UNL1       -0.2668
     22 H           5.3141   -2.5333   26.0411 H       1  UNL1        0.1502
     23 C           5.7387   -3.6739   23.5435 C.ar    1  UNL1        0.1984
     24 C           4.7170   -2.6019   23.3051 C.ar    1  UNL1        0.0453
     25 C           4.3639   -2.6140   21.8473 C.ar    1  UNL1        0.0409
     26 C           3.4146   -1.7815   21.0376 C.ar    1  UNL1        0.0238
     27 C           3.2687   -2.0285   19.5653 C.ar    1  UNL1        0.0991
     28 N           4.0723   -3.1080   18.9027 N.ar    1  UNL1       -0.2391
     29 C           5.0216   -3.9405   19.7124 C.ar    1  UNL1        0.1362
     30 C           5.1674   -3.6935   21.1847 C.ar    1  UNL1        0.1646
     31 O           6.0171   -4.3485   22.2330 O.2     1  UNL1       -0.4473
@<TRIPOS>BOND
     1    16    17    1
     2    17    15    1
     3    15    10    1
     4    10    11   ar
     5    11    12   ar
     6    12     7    1
     7     7     8    2
     8     7     9    2
     9     7     1    1
    10     1     2   ar
    11     2     3   ar
    12     3     4   ar
    13     4    18    1
    14    18    19    1
    15    19    20   am
    16    20    21    2
    17    20    23    1
    18    23    24   ar
    19    24    25   ar
    20    25    26   ar
    21    26    27   ar
    22    27    28   ar
    23    28    29   ar
    24    29    30   ar
    25    30    31   ar
    26     4     5   ar
    27     5     6   ar
    28    12    13   ar
    29    13    14   ar
    30    14    10   ar
    31     6     1   ar
    32    31    23   ar
    33    30    25   ar
    34    19    22    1
@<TRIPOS>MOLECULE
*****
 31 34 0 0 0
SMALL
GASTEIGER

@<TRIPOS>ATOM
      1 C           2.1075    0.1294   19.1640 C.ar    1  UNL1        0.1295
      2 C           2.2085   -0.8809   20.2682 C.ar    1  UNL1        0.0216
      3 C           3.2424   -1.9655   20.2000 C.ar    1  UNL1        0.0178
      4 C           4.1753   -2.0399   19.0278 C.ar    1  UNL1        0.0789
      5 N           4.0743   -1.0296   17.9236 N.ar    1  UNL1       -0.2451
      6 C           3.0403    0.0551   17.9917 C.ar    1  UNL1        0.1172
      7 S           1.0736    1.2140   19.2321 S.O2    1  UNL1        0.0319
      8 O           1.9225    2.0788   18.3481 O.2     1  UNL1       -0.1641
      9 O           0.2247    0.3493   20.1162 O.2     1  UNL1       -0.1641
     10 N          -1.7783    3.7094   20.0717 N.ar    1  UNL1       -0.2481
     11 C          -0.9353    2.5183   20.4188 C.ar    1  UNL1        0.1154
     12 C           0.0397    2.2986   19.3003 C.ar    1  UNL1        0.1498
     13 C          -0.2007    3.3540   18.2618 C.ar    1  UNL1        0.1404
     14 N          -1.3242    4.2260   18.7386 N.ar    1  UNL1       -0.1662
     15 C          -2.8816    4.2833   20.9103 C.3     1  UNL1        0.1276
     16 C          -4.7822    3.1654   22.2843 C.3     1  UNL1        0.0021
     17 C          -3.3422    3.5598   22.1410 C.3     1  UNL1        0.0264
     18 C           5.2092   -3.1245   18.9597 C.3     1  UNL1        0.1361
     19 N           5.5557   -3.9087   20.1905 N.am    1  UNL1       -0.2931
     20 C           6.5545   -3.3659   21.1692 C.2     1  UNL1        0.2809
     21 O           7.2068   -2.0390   20.9169 O.2     1  UNL1       -0.2668
     22 H           5.1275   -4.7796   20.3561 H       1  UNL1        0.1502
     23 C           6.9010   -4.1501   22.4000 C.ar    1  UNL1        0.1984
     24 C           6.4297   -3.8574   23.7937 C.ar    1  UNL1        0.0453
     25 C           7.0170   -4.8910   24.7083 C.ar    1  UNL1        0.0409
     26 C           6.8999   -5.1044   26.1884 C.ar    1  UNL1        0.0238
     27 C           7.6171   -6.2492   26.8402 C.ar    1  UNL1        0.0991
     28 N           8.4514   -7.1808   26.0118 N.ar    1  UNL1       -0.2391
     29 C           8.5685   -6.9675   24.5317 C.ar    1  UNL1        0.1362
     30 C           7.8513   -5.8226   23.8800 C.ar    1  UNL1        0.1646
     31 O           7.7796   -5.3647   22.4534 O.2     1  UNL1       -0.4473
@<TRIPOS>BOND
     1    16    17    1
     2    17    15    1
     3    15    10    1
     4    10    11   ar
     5    11    12   ar
     6    12     7    1
     7     7     8    2
     8     7     9    2
     9     7     1    1
    10     1     2   ar
    11     2     3   ar
    12     3     4   ar
    13     4    18    1
    14    18    19    1
    15    19    20   am
    16    20    21    2
    17    20    23    1
    18    23    24   ar
    19    24    25   ar
    20    25    26   ar
    21    26    27   ar
    22    27    28   ar
    23    28    29   ar
    24    29    30   ar
    25    30    31   ar
    26     4     5   ar
    27     5     6   ar
    28    12    13   ar
    29    13    14   ar
    30    14    10   ar
    31     6     1   ar
    32    31    23   ar
    33    30    25   ar
    34    19    22    1
@<TRIPOS>MOLECULE
*****
 31 34 0 0 0
SMALL
GASTEIGER

@<TRIPOS>ATOM
      1 C           2.8471    0.7351   30.8265 C.ar    1  UNL1        0.1295
      2 C           2.4935   -0.4700   30.0063 C.ar    1  UNL1        0.0216
      3 C           2.0303   -0.3033   28.5894 C.ar    1  UNL1        0.0178
      4 C           1.9208    1.0685   27.9926 C.ar    1  UNL1        0.0789
      5 N           2.2744    2.2736   28.8127 N.ar    1  UNL1       -0.2451
      6 C           2.7376    2.1069   30.2297 C.ar    1  UNL1        0.1172
      7 S           3.3103    0.5685   32.2434 S.O2    1  UNL1        0.0319
      8 O           3.3862    2.0589   32.3939 O.2     1  UNL1       -0.1641
      9 O           3.2344   -0.9220   32.0928 O.2     1  UNL1       -0.1641
     10 N           4.2357    0.8332   36.0035 N.ar    1  UNL1       -0.2481
     11 C           3.6404    1.4169   34.7566 C.ar    1  UNL1        0.1154
     12 C           3.7734    0.4018   33.6603 C.ar    1  UNL1        0.1498
     13 C           4.4509   -0.8093   34.2297 C.ar    1  UNL1        0.1404
     14 N           4.7367   -0.5427   35.6779 N.ar    1  UNL1       -0.1662
     15 C           4.3160    1.5071   37.3412 C.3     1  UNL1        0.1276
     16 C           2.0369    1.5470   38.5878 C.3     1  UNL1        0.0021
     17 C           3.4440    1.0411   38.4693 C.3     1  UNL1        0.0264
     18 C           1.4576    1.2351   26.5756 C.3     1  UNL1        0.1361
     19 N           1.8244    0.2124   25.5415 N.am    1  UNL1       -0.2931
     20 C           2.8234    0.5494   24.4745 C.2     1  UNL1        0.2809
     21 O           3.4556    1.9093   24.4417 O.2     1  UNL1       -0.2668
     22 H           1.4095   -0.6802   25.5630 H       1  UNL1        0.1502
     23 C           3.1902   -0.4733   23.4404 C.ar    1  UNL1        0.1984
     24 C           2.8287   -0.4249   21.9854 C.ar    1  UNL1        0.0453
     25 C           3.3980   -1.6458   21.3255 C.ar    1  UNL1        0.0409
     26 C           3.3590   -2.1300   19.9064 C.ar    1  UNL1        0.0238
     27 C           4.0333   -3.4172   19.5344 C.ar    1  UNL1        0.0991
     28 N           4.7466   -4.2202   20.5815 N.ar    1  UNL1       -0.2391
     29 C           4.7856   -3.7359   22.0006 C.ar    1  UNL1        0.1362
     30 C           4.1113   -2.4487   22.3726 C.ar    1  UNL1        0.1646
     31 O           3.9828   -1.7241   23.6797 O.2     1  UNL1       -0.4473
@<TRIPOS>BOND
     1    16    17    1
     2    17    15    1
     3    15    10    1
     4    10    11   ar
     5    11    12   ar
     6    12     7    1
     7     7     8    2
     8     7     9    2
     9     7     1    1
    10     1     2   ar
    11     2     3   ar
    12     3     4   ar
    13     4    18    1
    14    18    19    1
    15    19    20   am
    16    20    21    2
    17    20    23    1
    18    23    24   ar
    19    24    25   ar
    20    25    26   ar
    21    26    27   ar
    22    27    28   ar
    23    28    29   ar
    24    29    30   ar
    25    30    31   ar
    26     4     5   ar
    27     5     6   ar
    28    12    13   ar
    29    13    14   ar
    30    14    10   ar
    31     6     1   ar
    32    31    23   ar
    33    30    25   ar
    34    19    22    1
@<TRIPOS>MOLECULE
*****
 31 34 0 0 0
SMALL
GASTEIGER

@<TRIPOS>ATOM
      1 C           2.1983   -0.3227   20.1169 C.ar    1  UNL1        0.1295
      2 C           1.6115    0.1460   21.4154 C.ar    1  UNL1        0.0216
      3 C           0.6029    1.2563   21.4253 C.ar    1  UNL1        0.0178
      4 C           0.1811    1.8978   20.1367 C.ar    1  UNL1        0.0789
      5 N           0.7679    1.4291   18.8382 N.ar    1  UNL1       -0.2451
      6 C           1.7765    0.3188   18.8283 C.ar    1  UNL1        0.1172
      7 S           3.2069   -1.4329   20.1071 S.O2    1  UNL1        0.0319
      8 O           3.1037   -1.5399   21.5996 O.2     1  UNL1       -0.1641
      9 O           3.3100   -1.3260   18.6145 O.2     1  UNL1       -0.1641
     10 N           6.2338   -3.8317   20.4927 N.ar    1  UNL1       -0.2481
     11 C           5.5628   -2.5163   20.7560 C.ar    1  UNL1        0.1154
     12 C           4.2154   -2.5432   20.0972 C.ar    1  UNL1        0.1498
     13 C           4.0537   -3.8752   19.4268 C.ar    1  UNL1        0.1404
     14 N           5.3011   -4.6716   19.6713 N.ar    1  UNL1       -0.1662
     15 C           7.5979   -4.2362   20.9676 C.3     1  UNL1        0.1276
     16 C           7.5742   -4.6459   23.5331 C.3     1  UNL1        0.0021
     17 C           8.0533   -3.8624   22.3471 C.3     1  UNL1        0.0264
     18 C          -0.8275    3.0081   20.1466 C.3     1  UNL1        0.1361
     19 N          -1.4257    3.4663   21.4436 N.am    1  UNL1       -0.2931
     20 C          -2.9104    3.4045   21.6480 C.2     1  UNL1        0.2809
     21 O          -3.7969    2.8845   20.5555 O.2     1  UNL1       -0.2668
     22 H          -0.8439    3.8077   22.1607 H       1  UNL1        0.1502
     23 C          -3.5086    3.8628   22.9450 C.ar    1  UNL1        0.1984
     24 C          -4.6344    4.8419   23.0995 C.ar    1  UNL1        0.0453
     25 C          -4.9076    5.0066   24.5652 C.ar    1  UNL1        0.0409
     26 C          -5.9041    5.8422   25.3127 C.ar    1  UNL1        0.0238
     27 C          -5.9437    5.8003   26.8116 C.ar    1  UNL1        0.0991
     28 N          -4.9868    4.9229   27.5629 N.ar    1  UNL1       -0.2391
     29 C          -3.9903    4.0874   26.8154 C.ar    1  UNL1        0.1362
     30 C          -3.9507    4.1292   25.3166 C.ar    1  UNL1        0.1646
     31 O          -3.0861    3.4223   24.3152 O.2     1  UNL1       -0.4473
@<TRIPOS>BOND
     1    16    17    1
     2    17    15    1
     3    15    10    1
     4    10    11   ar
     5    11    12   ar
     6    12     7    1
     7     7     8    2
     8     7     9    2
     9     7     1    1
    10     1     2   ar
    11     2     3   ar
    12     3     4   ar
    13     4    18    1
    14    18    19    1
    15    19    20   am
    16    20    21    2
    17    20    23    1
    18    23    24   ar
    19    24    25   ar
    20    25    26   ar
    21    26    27   ar
    22    27    28   ar
    23    28    29   ar
    24    29    30   ar
    25    30    31   ar
    26     4     5   ar
    27     5     6   ar
    28    12    13   ar
    29    13    14   ar
    30    14    10   ar
    31     6     1   ar
    32    31    23   ar
    33    30    25   ar
    34    19    22    1
@<TRIPOS>MOLECULE
*****
 31 34 0 0 0
SMALL
GASTEIGER

@<TRIPOS>ATOM
      1 C           4.0682   -2.0924   22.0359 C.ar    1  UNL1        0.1295
      2 C           3.8591   -2.4128   20.5854 C.ar    1  UNL1        0.0216
      3 C           2.8313   -1.6618   19.7920 C.ar    1  UNL1        0.0178
      4 C           2.0126   -0.5904   20.4490 C.ar    1  UNL1        0.0789
      5 N           2.2216   -0.2699   21.8993 N.ar    1  UNL1       -0.2451
      6 C           3.2494   -1.0210   22.6928 C.ar    1  UNL1        0.1172
      7 S           5.0960   -2.8435   22.8293 S.O2    1  UNL1        0.0319
      8 O           4.7072   -4.1129   22.1313 O.2     1  UNL1       -0.1641
      9 O           5.4848   -1.5740   23.5272 O.2     1  UNL1       -0.1641
     10 N           7.9418   -5.0885   24.2173 N.ar    1  UNL1       -0.2481
     11 C           7.1104   -4.5832   23.0757 C.ar    1  UNL1        0.1154
     12 C           6.1238   -3.5945   23.6227 C.ar    1  UNL1        0.1498
     13 C           6.3456   -3.4887   25.1024 C.ar    1  UNL1        0.1404
     14 N           7.4691   -4.4120   25.4699 N.ar    1  UNL1       -0.1662
     15 C           9.0511   -6.0937   24.1229 C.3     1  UNL1        0.1276
     16 C           7.9074   -7.8539   25.6538 C.3     1  UNL1        0.0021
     17 C           8.7996   -7.5252   24.4937 C.3     1  UNL1        0.0264
     18 C           0.9847    0.1607   19.6555 C.3     1  UNL1        0.1361
     19 N          -0.2121    0.7474   20.3434 N.am    1  UNL1       -0.2931
     20 C          -0.3283    2.2337   20.5091 C.2     1  UNL1        0.2809
     21 O           0.7525    3.1332   19.9868 O.2     1  UNL1       -0.2668
     22 H          -0.9215    0.1570   20.6862 H       1  UNL1        0.1502
     23 C          -1.5251    2.8204   21.1970 C.ar    1  UNL1        0.1984
     24 C          -1.5136    3.5852   22.4873 C.ar    1  UNL1        0.0453
     25 C          -2.9250    3.9829   22.8032 C.ar    1  UNL1        0.0409
     26 C          -3.5195    4.7506   23.9465 C.ar    1  UNL1        0.0238
     27 C          -4.9979    4.9991   23.9947 C.ar    1  UNL1        0.0991
     28 N          -5.8819    4.4801   22.8996 N.ar    1  UNL1       -0.2391
     29 C          -5.2873    3.7124   21.7563 C.ar    1  UNL1        0.1362
     30 C          -3.8089    3.4638   21.7081 C.ar    1  UNL1        0.1646
     31 O          -2.9437    2.7454   20.7154 O.2     1  UNL1       -0.4473
@<TRIPOS>BOND
     1    16    17    1
     2    17    15    1
     3    15    10    1
     4    10    11   ar
     5    11    12   ar
     6    12     7    1
     7     7     8    2
     8     7     9    2
     9     7     1    1
    10     1     2   ar
    11     2     3   ar
    12     3     4   ar
    13     4    18    1
    14    18    19    1
    15    19    20   am
    16    20    21    2
    17    20    23    1
    18    23    24   ar
    19    24    25   ar
    20    25    26   ar
    21    26    27   ar
    22    27    28   ar
    23    28    29   ar
    24    29    30   ar
    25    30    31   ar
    26     4     5   ar
    27     5     6   ar
    28    12    13   ar
    29    13    14   ar
    30    14    10   ar
    31     6     1   ar
    32    31    23   ar
    33    30    25   ar
    34    19    22    1
@<TRIPOS>MOLECULE
*****
 31 34 0 0 0
SMALL
GASTEIGER

@<TRIPOS>ATOM
      1 C           1.3091    1.0132   19.5835 C.ar    1  UNL1        0.1295
      2 C           1.2102   -0.3440   20.2148 C.ar    1  UNL1        0.0216
      3 C           2.3698   -1.2924   20.1394 C.ar    1  UNL1        0.0178
      4 C           3.6282   -0.8839   19.4327 C.ar    1  UNL1        0.0789
      5 N           3.7271    0.4732   18.8015 N.ar    1  UNL1       -0.2451
      6 C           2.5675    1.4218   18.8769 C.ar    1  UNL1        0.1172
      7 S           0.1495    1.9617   19.6590 S.O2    1  UNL1        0.0319
      8 O          -0.1915    1.4365   21.0220 O.2     1  UNL1       -0.1641
      9 O           0.4905    2.4869   18.2960 O.2     1  UNL1       -0.1641
     10 N          -3.0566    4.0018   20.4491 N.ar    1  UNL1       -0.2481
     11 C          -2.1157    2.8723   20.7474 C.ar    1  UNL1        0.1154
     12 C          -1.0100    2.9102   19.7344 C.ar    1  UNL1        0.1498
     13 C          -1.2676    4.0631   18.8101 C.ar    1  UNL1        0.1404
     14 N          -2.5324    4.7378   19.2518 N.ar    1  UNL1       -0.1662
     15 C          -4.3028    4.3366   21.2139 C.3     1  UNL1        0.1276
     16 C          -4.7537    3.2506   23.5306 C.3     1  UNL1        0.0021
     17 C          -4.9759    3.2869   22.0476 C.3     1  UNL1        0.0264
     18 C           4.7878   -1.8324   19.3573 C.3     1  UNL1        0.1361
     19 N           5.5127   -2.2317   20.6084 N.am    1  UNL1       -0.2931
     20 C           5.2832   -3.5873   21.2080 C.2     1  UNL1        0.2809
     21 O           4.3287   -4.5437   20.5565 O.2     1  UNL1       -0.2668
     22 H           6.1392   -1.6040   21.0359 H       1  UNL1        0.1502
     23 C           6.0080   -3.9866   22.4590 C.ar    1  UNL1        0.1984
     24 C           5.7003   -3.5085   23.8471 C.ar    1  UNL1        0.0453
     25 C           6.6700   -4.1605   24.7876 C.ar    1  UNL1        0.0409
     26 C           6.8442   -4.0657   26.2744 C.ar    1  UNL1        0.0238
     27 C           7.9255   -4.8521   26.9544 C.ar    1  UNL1        0.0991
     28 N           8.8325   -5.7332   26.1476 N.ar    1  UNL1       -0.2391
     29 C           8.6583   -5.8280   24.6608 C.ar    1  UNL1        0.1362
     30 C           7.5770   -5.0416   23.9808 C.ar    1  UNL1        0.1646
     31 O           7.1679   -4.9342   22.5417 O.2     1  UNL1       -0.4473
@<TRIPOS>BOND
     1    16    17    1
     2    17    15    1
     3    15    10    1
     4    10    11   ar
     5    11    12   ar
     6    12     7    1
     7     7     8    2
     8     7     9    2
     9     7     1    1
    10     1     2   ar
    11     2     3   ar
    12     3     4   ar
    13     4    18    1
    14    18    19    1
    15    19    20   am
    16    20    21    2
    17    20    23    1
    18    23    24   ar
    19    24    25   ar
    20    25    26   ar
    21    26    27   ar
    22    27    28   ar
    23    28    29   ar
    24    29    30   ar
    25    30    31   ar
    26     4     5   ar
    27     5     6   ar
    28    12    13   ar
    29    13    14   ar
    30    14    10   ar
    31     6     1   ar
    32    31    23   ar
    33    30    25   ar
    34    19    22    1
