@<TRIPOS>MOLECULE
*****
 27 31 0 0 0
SMALL
GASTEIGER

@<TRIPOS>ATOM
      1 C          -5.9970  -15.5506   25.3000 C.3     1  UNL1        0.0233
      2 C          -6.7068  -16.3868   24.2768 C.3     1  UNL1        0.0951
      3 C          -8.2060  -16.4056   24.2327 C.3     1  UNL1        0.1106
      4 N          -8.9158  -17.2418   23.2095 N.pl3   1  UNL1       -0.3024
      5 C          -8.1264  -18.0592   22.2304 C.3     1  UNL1        0.1124
      6 C          -6.6271  -18.0403   22.2744 C.3     1  UNL1        0.1148
      7 N          -5.9173  -17.2041   23.2976 N.am    1  UNL1       -0.2777
      8 C          -4.4181  -17.1853   23.3417 C.2     1  UNL1        0.2247
      9 O          -3.7083  -16.3491   24.3649 O.2     1  UNL1       -0.2749
     10 C          -3.6287  -18.0026   22.3625 C.3     1  UNL1        0.0690
     11 C          -2.4726  -17.3868   21.6316 C.3     1  UNL1        0.0086
     12 C          -1.6832  -18.2042   20.6525 C.3     1  UNL1        0.0005
     13 C          -2.0498  -19.6373   20.4042 C.3     1  UNL1        0.0000
     14 C          -3.2059  -20.2531   21.1351 C.3     1  UNL1        0.0005
     15 C          -2.9851  -17.1366   22.1585 C.3     1  UNL1        0.0000
     16 C          -2.1059  -15.9537   21.8799 C.3     1  UNL1        0.0005
     17 C          -1.3165  -16.7710   20.9008 C.3     1  UNL1        0.0000
     18 C          -3.2620  -16.5695   22.6107 C.3     1  UNL1        0.0086
     19 C          -3.9953  -19.4358   22.1142 C.3     1  UNL1        0.0086
     20 C         -10.4150  -17.2607   23.1655 C.ar    1  UNL1        0.0758
     21 C         -11.1600  -16.1406   22.5019 C.ar    1  UNL1        0.0184
     22 C         -12.6593  -16.1595   22.4579 C.ar    1  UNL1        0.0220
     23 C         -13.4135  -17.2985   23.0774 C.ar    1  UNL1        0.0997
     24 N         -12.6685  -18.4186   23.7409 N.ar    1  UNL1       -0.2323
     25 C         -11.1693  -18.3998   23.7850 C.ar    1  UNL1        0.1623
     26 C         -10.4243  -19.5199   24.4485 C.1     1  UNL1        0.1210
     27 N          -9.6793  -20.6400   25.1121 N.1     1  UNL1       -0.1892
@<TRIPOS>BOND
     1     2     1    1
     2     2     3    1
     3     3     4    1
     4     4    20    1
     5    20    21   ar
     6    21    22   ar
     7    22    23   ar
     8    23    24   ar
     9    24    25   ar
    10    25    26    1
    11    26    27    3
    12     4     5    1
    13     5     6    1
    14     6     7    1
    15     7     8   am
    16     8     9    2
    17     8    10    1
    18    10    11    1
    19    11    12    1
    20    12    13    1
    21    13    14    1
    22    14    15    1
    23    15    16    1
    24    16    17    1
    25    16    18    1
    26    14    19    1
    27     7     2    1
    28    18    10    1
    29    25    20   ar
    30    19    10    1
    31    17    12    1
@<TRIPOS>MOLECULE
*****
 27 31 0 0 0
SMALL
GASTEIGER

@<TRIPOS>ATOM
      1 C          -8.3600  -19.9297   18.6134 C.3     1  UNL1        0.0233
      2 C          -7.8098  -19.4729   19.9320 C.3     1  UNL1        0.0951
      3 C          -6.3263  -19.3892   20.1373 C.3     1  UNL1        0.1106
      4 N          -5.7762  -18.9324   21.4559 N.pl3   1  UNL1       -0.3024
      5 C          -6.7096  -18.5594   22.5693 C.3     1  UNL1        0.1124
      6 C          -8.1932  -18.6432   22.3640 C.3     1  UNL1        0.1148
      7 N          -8.7433  -19.0999   21.0454 N.am    1  UNL1       -0.2777
      8 C         -10.2268  -19.1837   20.8402 C.2     1  UNL1        0.2247
      9 O         -10.7769  -19.6404   19.5215 O.2     1  UNL1       -0.2749
     10 C         -11.1603  -18.8107   21.9536 C.3     1  UNL1        0.0690
     11 C         -12.0698  -17.6273   21.8050 C.3     1  UNL1        0.0086
     12 C         -13.0032  -17.2543   22.9183 C.3     1  UNL1        0.0005
     13 C         -13.0271  -18.0648   24.1803 C.3     1  UNL1        0.0000
     14 C         -12.1175  -19.2483   24.3289 C.3     1  UNL1        0.0005
     15 C         -11.5346  -17.9680   21.3573 C.3     1  UNL1        0.0000
     16 C         -12.0460  -16.8168   20.5430 C.3     1  UNL1        0.0005
     17 C         -12.9794  -16.4438   21.6564 C.3     1  UNL1        0.0000
     18 C         -11.1364  -18.0002   20.6916 C.3     1  UNL1        0.0086
     19 C         -11.1841  -19.6212   23.2155 C.3     1  UNL1        0.0086
     20 C          -4.2927  -18.8487   21.6611 C.ar    1  UNL1        0.0758
     21 C          -3.3787  -19.7739   20.9138 C.ar    1  UNL1        0.0184
     22 C          -1.8952  -19.6901   21.1191 C.ar    1  UNL1        0.0220
     23 C          -1.3257  -18.6811   22.0717 C.ar    1  UNL1        0.0997
     24 N          -2.2397  -17.7559   22.8191 N.ar    1  UNL1       -0.2323
     25 C          -3.7232  -17.8396   22.6138 C.ar    1  UNL1        0.1623
     26 C          -4.6372  -16.9144   23.3612 C.1     1  UNL1        0.1210
     27 N          -5.5511  -15.9892   24.1086 N.1     1  UNL1       -0.1892
@<TRIPOS>BOND
     1     2     1    1
     2     2     3    1
     3     3     4    1
     4     4    20    1
     5    20    21   ar
     6    21    22   ar
     7    22    23   ar
     8    23    24   ar
     9    24    25   ar
    10    25    26    1
    11    26    27    3
    12     4     5    1
    13     5     6    1
    14     6     7    1
    15     7     8   am
    16     8     9    2
    17     8    10    1
    18    10    11    1
    19    11    12    1
    20    12    13    1
    21    13    14    1
    22    14    15    1
    23    15    16    1
    24    16    17    1
    25    16    18    1
    26    14    19    1
    27     7     2    1
    28    18    10    1
    29    25    20   ar
    30    19    10    1
    31    17    12    1
@<TRIPOS>MOLECULE
*****
 27 31 0 0 0
SMALL
GASTEIGER

@<TRIPOS>ATOM
      1 C          -7.1991  -21.1276   19.4982 C.3     1  UNL1        0.0233
      2 C          -7.4329  -19.9729   20.4266 C.3     1  UNL1        0.0951
      3 C          -8.8307  -19.6017   20.8247 C.3     1  UNL1        0.1106
      4 N          -9.0645  -18.4470   21.7531 N.pl3   1  UNL1       -0.3024
      5 C          -7.9006  -17.6635   22.2835 C.3     1  UNL1        0.1124
      6 C          -6.5028  -18.0346   21.8854 C.3     1  UNL1        0.1148
      7 N          -6.2689  -19.1893   20.9570 N.am    1  UNL1       -0.2777
      8 C          -4.8712  -19.5605   20.5590 C.2     1  UNL1        0.2247
      9 O          -4.6374  -20.7152   19.6305 O.2     1  UNL1       -0.2749
     10 C          -3.7072  -18.7770   21.0893 C.3     1  UNL1        0.0690
     11 C          -2.6881  -18.2147   20.1432 C.3     1  UNL1        0.0086
     12 C          -1.5241  -17.4312   20.6736 C.3     1  UNL1        0.0005
     13 C          -1.3793  -17.2100   22.1501 C.3     1  UNL1        0.0000
     14 C          -2.3984  -17.7723   23.0962 C.3     1  UNL1        0.0005
     15 C          -3.3377  -18.6328   20.0654 C.3     1  UNL1        0.0000
     16 C          -2.8329  -18.4359   18.6667 C.3     1  UNL1        0.0005
     17 C          -1.6690  -17.6524   19.1971 C.3     1  UNL1        0.0000
     18 C          -3.8520  -18.9982   19.6128 C.3     1  UNL1        0.0086
     19 C          -3.5623  -18.5558   22.5658 C.3     1  UNL1        0.0086
     20 C         -10.4622  -18.0758   22.1512 C.ar    1  UNL1        0.0758
     21 C         -11.2158  -17.0424   21.3675 C.ar    1  UNL1        0.0184
     22 C         -12.6137  -16.6712   21.7656 C.ar    1  UNL1        0.0220
     23 C         -13.2578  -17.3334   22.9473 C.ar    1  UNL1        0.0997
     24 N         -12.5042  -18.3669   23.7310 N.ar    1  UNL1       -0.2323
     25 C         -11.1065  -18.7380   23.3329 C.ar    1  UNL1        0.1623
     26 C         -10.3529  -19.7715   24.1166 C.1     1  UNL1        0.1210
     27 N          -9.5993  -20.8049   24.9002 N.1     1  UNL1       -0.1892
@<TRIPOS>BOND
     1     2     1    1
     2     2     3    1
     3     3     4    1
     4     4    20    1
     5    20    21   ar
     6    21    22   ar
     7    22    23   ar
     8    23    24   ar
     9    24    25   ar
    10    25    26    1
    11    26    27    3
    12     4     5    1
    13     5     6    1
    14     6     7    1
    15     7     8   am
    16     8     9    2
    17     8    10    1
    18    10    11    1
    19    11    12    1
    20    12    13    1
    21    13    14    1
    22    14    15    1
    23    15    16    1
    24    16    17    1
    25    16    18    1
    26    14    19    1
    27     7     2    1
    28    18    10    1
    29    25    20   ar
    30    19    10    1
    31    17    12    1
@<TRIPOS>MOLECULE
*****
 27 31 0 0 0
SMALL
GASTEIGER

@<TRIPOS>ATOM
      1 C          -7.8980  -20.4527   19.2394 C.3     1  UNL1        0.0233
      2 C          -8.0396  -19.6143   20.4752 C.3     1  UNL1        0.0951
      3 C          -9.4024  -19.3088   21.0222 C.3     1  UNL1        0.1106
      4 N          -9.5439  -18.4705   22.2580 N.pl3   1  UNL1       -0.3024
      5 C          -8.3226  -17.9377   22.9468 C.3     1  UNL1        0.1124
      6 C          -6.9597  -18.2432   22.3998 C.3     1  UNL1        0.1148
      7 N          -6.8181  -19.0815   21.1640 N.am    1  UNL1       -0.2777
      8 C          -5.4553  -19.3870   20.6170 C.2     1  UNL1        0.2247
      9 O          -5.3138  -20.2254   19.3812 O.2     1  UNL1       -0.2749
     10 C          -4.2339  -18.8542   21.3058 C.3     1  UNL1        0.0690
     11 C          -2.9890  -18.5762   20.5165 C.3     1  UNL1        0.0086
     12 C          -1.7677  -18.0434   21.2053 C.3     1  UNL1        0.0005
     13 C          -1.7913  -17.7886   22.6833 C.3     1  UNL1        0.0000
     14 C          -3.0361  -18.0667   23.4726 C.3     1  UNL1        0.0005
     15 C          -3.6978  -18.8444   20.3475 C.3     1  UNL1        0.0000
     16 C          -2.9655  -18.8309   19.0385 C.3     1  UNL1        0.0005
     17 C          -1.7441  -18.2982   19.7273 C.3     1  UNL1        0.0000
     18 C          -4.2103  -19.1090   19.8277 C.3     1  UNL1        0.0086
     19 C          -4.2574  -18.5994   22.7838 C.3     1  UNL1        0.0086
     20 C         -10.9068  -18.1649   22.8050 C.ar    1  UNL1        0.0758
     21 C         -11.4266  -18.9234   23.9902 C.ar    1  UNL1        0.0184
     22 C         -12.7895  -18.6178   24.5372 C.ar    1  UNL1        0.0220
     23 C         -13.6325  -17.5538   23.8991 C.ar    1  UNL1        0.0997
     24 N         -13.1127  -16.7954   22.7140 N.ar    1  UNL1       -0.2323
     25 C         -11.7499  -17.1009   22.1669 C.ar    1  UNL1        0.1623
     26 C         -11.2300  -16.3424   20.9818 C.1     1  UNL1        0.1210
     27 N         -10.7102  -15.5840   19.7967 N.1     1  UNL1       -0.1892
@<TRIPOS>BOND
     1     2     1    1
     2     2     3    1
     3     3     4    1
     4     4    20    1
     5    20    21   ar
     6    21    22   ar
     7    22    23   ar
     8    23    24   ar
     9    24    25   ar
    10    25    26    1
    11    26    27    3
    12     4     5    1
    13     5     6    1
    14     6     7    1
    15     7     8   am
    16     8     9    2
    17     8    10    1
    18    10    11    1
    19    11    12    1
    20    12    13    1
    21    13    14    1
    22    14    15    1
    23    15    16    1
    24    16    17    1
    25    16    18    1
    26    14    19    1
    27     7     2    1
    28    18    10    1
    29    25    20   ar
    30    19    10    1
    31    17    12    1
@<TRIPOS>MOLECULE
*****
 27 31 0 0 0
SMALL
GASTEIGER

@<TRIPOS>ATOM
      1 C          -6.6298  -15.5364   24.3978 C.3     1  UNL1        0.0233
      2 C          -7.4188  -16.6374   23.7534 C.3     1  UNL1        0.0951
      3 C          -8.9024  -16.7168   23.9598 C.3     1  UNL1        0.1106
      4 N          -9.6914  -17.8178   23.3154 N.pl3   1  UNL1       -0.3024
      5 C          -8.9968  -18.8394   22.4645 C.3     1  UNL1        0.1124
      6 C          -7.5131  -18.7599   22.2581 C.3     1  UNL1        0.1148
      7 N          -6.7241  -17.6589   22.9025 N.am    1  UNL1       -0.2777
      8 C          -5.2406  -17.5795   22.6961 C.2     1  UNL1        0.2247
      9 O          -4.4516  -16.4785   23.3406 O.2     1  UNL1       -0.2749
     10 C          -4.5459  -18.6010   21.8452 C.3     1  UNL1        0.0690
     11 C          -3.0520  -18.7266   21.8935 C.3     1  UNL1        0.0086
     12 C          -2.3574  -19.7481   21.0426 C.3     1  UNL1        0.0005
     13 C          -3.1567  -20.6441   20.1436 C.3     1  UNL1        0.0000
     14 C          -4.6506  -20.5185   20.0953 C.3     1  UNL1        0.0005
     15 C          -3.5766  -18.2754   22.2456 C.3     1  UNL1        0.0000
     16 C          -2.2526  -17.8306   22.7925 C.3     1  UNL1        0.0005
     17 C          -1.5580  -18.8521   21.9417 C.3     1  UNL1        0.0000
     18 C          -3.7466  -17.7051   22.7443 C.3     1  UNL1        0.0086
     19 C          -5.3452  -19.4970   20.9462 C.3     1  UNL1        0.0086
     20 C         -11.1749  -17.8973   23.5218 C.ar    1  UNL1        0.0758
     21 C         -11.7286  -18.6177   24.7153 C.ar    1  UNL1        0.0184
     22 C         -13.2123  -18.6972   24.9216 C.ar    1  UNL1        0.0220
     23 C         -14.1422  -18.0562   23.9345 C.ar    1  UNL1        0.0997
     24 N         -13.5885  -17.3358   22.7410 N.ar    1  UNL1       -0.2323
     25 C         -12.1049  -17.2564   22.5346 C.ar    1  UNL1        0.1623
     26 C         -11.5513  -16.5360   21.3411 C.1     1  UNL1        0.1210
     27 N         -10.9976  -15.8155   20.1476 N.1     1  UNL1       -0.1892
@<TRIPOS>BOND
     1     2     1    1
     2     2     3    1
     3     3     4    1
     4     4    20    1
     5    20    21   ar
     6    21    22   ar
     7    22    23   ar
     8    23    24   ar
     9    24    25   ar
    10    25    26    1
    11    26    27    3
    12     4     5    1
    13     5     6    1
    14     6     7    1
    15     7     8   am
    16     8     9    2
    17     8    10    1
    18    10    11    1
    19    11    12    1
    20    12    13    1
    21    13    14    1
    22    14    15    1
    23    15    16    1
    24    16    17    1
    25    16    18    1
    26    14    19    1
    27     7     2    1
    28    18    10    1
    29    25    20   ar
    30    19    10    1
    31    17    12    1
@<TRIPOS>MOLECULE
*****
 27 31 0 0 0
SMALL
GASTEIGER

@<TRIPOS>ATOM
      1 C           8.5853   -1.0531   22.6835 C.3     1  UNL1        0.0233
      2 C           7.2789   -1.7582   22.4686 C.3     1  UNL1        0.0951
      3 C           6.2394   -1.1544   21.5716 C.3     1  UNL1        0.1106
      4 N           4.9330   -1.8595   21.3568 N.pl3   1  UNL1       -0.3024
      5 C           4.6662   -3.1685   22.0389 C.3     1  UNL1        0.1124
      6 C           5.7058   -3.7724   22.9360 C.3     1  UNL1        0.1148
      7 N           7.0121   -3.0673   23.1508 N.am    1  UNL1       -0.2777
      8 C           8.0517   -3.6711   24.0478 C.2     1  UNL1        0.2247
      9 O           9.3581   -2.9660   24.2627 O.2     1  UNL1       -0.2749
     10 C           7.7849   -4.9801   24.7300 C.3     1  UNL1        0.0690
     11 C           8.3080   -6.2550   24.1375 C.3     1  UNL1        0.0086
     12 C           8.0412   -7.5639   24.8197 C.3     1  UNL1        0.0005
     13 C           7.2513   -7.5980   26.0944 C.3     1  UNL1        0.0000
     14 C           6.7283   -6.3232   26.6870 C.3     1  UNL1        0.0005
     15 C           8.3398   -5.5045   23.9408 C.3     1  UNL1        0.0000
     16 C           9.0978   -6.2209   22.8627 C.3     1  UNL1        0.0005
     17 C           8.8310   -7.5298   23.5449 C.3     1  UNL1        0.0000
     18 C           8.5748   -4.9460   23.4553 C.3     1  UNL1        0.0086
     19 C           6.9951   -5.0142   26.0048 C.3     1  UNL1        0.0086
     20 C           3.8934   -1.2557   20.4598 C.ar    1  UNL1        0.0758
     21 C           2.6099   -0.7403   21.0401 C.ar    1  UNL1        0.0184
     22 C           1.5703   -0.1364   20.1430 C.ar    1  UNL1        0.0220
     23 C           1.8143   -0.0480   18.6657 C.ar    1  UNL1        0.0997
     24 N           3.0978   -0.5635   18.0853 N.ar    1  UNL1       -0.2323
     25 C           4.1374   -1.1673   18.9823 C.ar    1  UNL1        0.1623
     26 C           5.4210   -1.6827   18.4020 C.1     1  UNL1        0.1210
     27 N           6.7045   -2.1981   17.8216 N.1     1  UNL1       -0.1892
@<TRIPOS>BOND
     1     2     1    1
     2     2     3    1
     3     3     4    1
     4     4    20    1
     5    20    21   ar
     6    21    22   ar
     7    22    23   ar
     8    23    24   ar
     9    24    25   ar
    10    25    26    1
    11    26    27    3
    12     4     5    1
    13     5     6    1
    14     6     7    1
    15     7     8   am
    16     8     9    2
    17     8    10    1
    18    10    11    1
    19    11    12    1
    20    12    13    1
    21    13    14    1
    22    14    15    1
    23    15    16    1
    24    16    17    1
    25    16    18    1
    26    14    19    1
    27     7     2    1
    28    18    10    1
    29    25    20   ar
    30    19    10    1
    31    17    12    1
@<TRIPOS>MOLECULE
*****
 27 31 0 0 0
SMALL
GASTEIGER

@<TRIPOS>ATOM
      1 C         -16.0226   -4.0179   20.1612 C.3     1  UNL1        0.0233
      2 C         -15.2555   -4.7590   19.1065 C.3     1  UNL1        0.0951
      3 C         -13.9021   -4.2714   18.6816 C.3     1  UNL1        0.1106
      4 N         -13.1350   -5.0125   17.6269 N.pl3   1  UNL1       -0.3024
      5 C         -13.7212   -6.2412   16.9972 C.3     1  UNL1        0.1124
      6 C         -15.0746   -6.7289   17.4221 C.3     1  UNL1        0.1148
      7 N         -15.8418   -5.9878   18.4768 N.am    1  UNL1       -0.2777
      8 C         -17.1951   -6.4754   18.9017 C.2     1  UNL1        0.2247
      9 O         -17.9623   -5.7343   19.9564 O.2     1  UNL1       -0.2749
     10 C         -17.7814   -7.7042   18.2720 C.3     1  UNL1        0.0690
     11 C         -17.5134   -9.0537   18.8693 C.3     1  UNL1        0.0086
     12 C         -18.0997  -10.2824   18.2396 C.3     1  UNL1        0.0005
     13 C         -18.9540  -10.1615   17.0125 C.3     1  UNL1        0.0000
     14 C         -19.2219   -8.8120   16.4152 C.3     1  UNL1        0.0005
     15 C         -17.3071   -8.3256   19.0431 C.3     1  UNL1        0.0000
     16 C         -16.6592   -9.1746   20.0963 C.3     1  UNL1        0.0005
     17 C         -17.2455  -10.4033   19.4666 C.3     1  UNL1        0.0000
     18 C         -16.9272   -7.8251   19.4990 C.3     1  UNL1        0.0086
     19 C         -18.6356   -7.5833   17.0449 C.3     1  UNL1        0.0086
     20 C         -11.7816   -4.5248   17.2020 C.ar    1  UNL1        0.0758
     21 C         -10.5655   -5.3620   17.4670 C.ar    1  UNL1        0.0184
     22 C          -9.2121   -4.8743   17.0420 C.ar    1  UNL1        0.0220
     23 C          -9.0749   -3.5495   16.3520 C.ar    1  UNL1        0.0997
     24 N         -10.2910   -2.7124   16.0870 N.ar    1  UNL1       -0.2323
     25 C         -11.6444   -3.2000   16.5120 C.ar    1  UNL1        0.1623
     26 C         -12.8605   -2.3628   16.2470 C.1     1  UNL1        0.1210
     27 N         -14.0766   -1.5257   15.9820 N.1     1  UNL1       -0.1892
@<TRIPOS>BOND
     1     2     1    1
     2     2     3    1
     3     3     4    1
     4     4    20    1
     5    20    21   ar
     6    21    22   ar
     7    22    23   ar
     8    23    24   ar
     9    24    25   ar
    10    25    26    1
    11    26    27    3
    12     4     5    1
    13     5     6    1
    14     6     7    1
    15     7     8   am
    16     8     9    2
    17     8    10    1
    18    10    11    1
    19    11    12    1
    20    12    13    1
    21    13    14    1
    22    14    15    1
    23    15    16    1
    24    16    17    1
    25    16    18    1
    26    14    19    1
    27     7     2    1
    28    18    10    1
    29    25    20   ar
    30    19    10    1
    31    17    12    1
@<TRIPOS>MOLECULE
*****
 27 31 0 0 0
SMALL
GASTEIGER

@<TRIPOS>ATOM
      1 C           9.5360   -4.6191   20.9982 C.3     1  UNL1        0.0233
      2 C           8.5497   -4.6756   22.1269 C.3     1  UNL1        0.0951
      3 C           8.8832   -5.4345   23.3770 C.3     1  UNL1        0.1106
      4 N           7.8969   -5.4911   24.5057 N.pl3   1  UNL1       -0.3024
      5 C           6.5771   -4.7886   24.3844 C.3     1  UNL1        0.1124
      6 C           6.2436   -4.0296   23.1342 C.3     1  UNL1        0.1148
      7 N           7.2299   -3.9731   22.0055 N.am    1  UNL1       -0.2777
      8 C           6.8964   -3.2141   20.7554 C.2     1  UNL1        0.2247
      9 O           7.8827   -3.1576   19.6267 O.2     1  UNL1       -0.2749
     10 C           5.5766   -2.5116   20.6340 C.3     1  UNL1        0.0690
     11 C           4.4536   -3.1515   19.8729 C.3     1  UNL1        0.0086
     12 C           3.1339   -2.4490   19.7516 C.3     1  UNL1        0.0005
     13 C           2.9372   -1.1066   20.3913 C.3     1  UNL1        0.0000
     14 C           4.0602   -0.4667   21.1524 C.3     1  UNL1        0.0005
     15 C           5.1851   -3.3495   20.0420 C.3     1  UNL1        0.0000
     16 C           4.6503   -4.4939   19.2332 C.3     1  UNL1        0.0005
     17 C           3.3306   -3.7914   19.1119 C.3     1  UNL1        0.0000
     18 C           5.7733   -3.8540   19.9943 C.3     1  UNL1        0.0086
     19 C           5.3799   -1.1692   21.2738 C.3     1  UNL1        0.0086
     20 C           8.2303   -6.2500   25.7558 C.ar    1  UNL1        0.0758
     21 C           7.9565   -7.7227   25.8347 C.ar    1  UNL1        0.0184
     22 C           8.2900   -8.4816   27.0848 C.ar    1  UNL1        0.0220
     23 C           8.8973   -7.7679   28.2560 C.ar    1  UNL1        0.0997
     24 N           9.1711   -6.2952   28.1772 N.ar    1  UNL1       -0.2323
     25 C           8.8377   -5.5363   26.9271 C.ar    1  UNL1        0.1623
     26 C           9.1115   -4.0636   26.8482 C.1     1  UNL1        0.1210
     27 N           9.3853   -2.5909   26.7693 N.1     1  UNL1       -0.1892
@<TRIPOS>BOND
     1     2     1    1
     2     2     3    1
     3     3     4    1
     4     4    20    1
     5    20    21   ar
     6    21    22   ar
     7    22    23   ar
     8    23    24   ar
     9    24    25   ar
    10    25    26    1
    11    26    27    3
    12     4     5    1
    13     5     6    1
    14     6     7    1
    15     7     8   am
    16     8     9    2
    17     8    10    1
    18    10    11    1
    19    11    12    1
    20    12    13    1
    21    13    14    1
    22    14    15    1
    23    15    16    1
    24    16    17    1
    25    16    18    1
    26    14    19    1
    27     7     2    1
    28    18    10    1
    29    25    20   ar
    30    19    10    1
    31    17    12    1
@<TRIPOS>MOLECULE
*****
 27 31 0 0 0
SMALL
GASTEIGER

@<TRIPOS>ATOM
      1 C         -14.0236   -2.9330   20.8963 C.3     1  UNL1        0.0233
      2 C         -13.6841   -2.5865   19.4769 C.3     1  UNL1        0.0951
      3 C         -13.8566   -1.1794   18.9866 C.3     1  UNL1        0.1106
      4 N         -13.5171   -0.8329   17.5672 N.pl3   1  UNL1       -0.3024
      5 C         -13.0051   -1.8935   16.6381 C.3     1  UNL1        0.1124
      6 C         -12.8326   -3.3006   17.1285 C.3     1  UNL1        0.1148
      7 N         -13.1722   -3.6471   18.5479 N.am    1  UNL1       -0.2777
      8 C         -12.9997   -5.0541   19.0382 C.2     1  UNL1        0.2247
      9 O         -13.3392   -5.4006   20.4576 O.2     1  UNL1       -0.2749
     10 C         -12.4877   -6.1147   18.1092 C.3     1  UNL1        0.0690
     11 C         -11.0490   -6.5344   18.1702 C.3     1  UNL1        0.0086
     12 C         -10.5371   -7.5949   17.2412 C.3     1  UNL1        0.0005
     13 C         -11.4639   -8.2358   16.2511 C.3     1  UNL1        0.0000
     14 C         -12.9027   -7.8162   16.1901 C.3     1  UNL1        0.0005
     15 C         -11.4879   -6.0212   18.5534 C.3     1  UNL1        0.0000
     16 C         -10.1221   -5.8935   19.1602 C.3     1  UNL1        0.0005
     17 C          -9.6102   -6.9540   18.2312 C.3     1  UNL1        0.0000
     18 C         -11.5609   -5.4738   19.0992 C.3     1  UNL1        0.0086
     19 C         -13.4146   -6.7556   17.1191 C.3     1  UNL1        0.0086
     20 C         -13.6895    0.5741   17.0768 C.ar    1  UNL1        0.0758
     21 C         -12.5307    1.5260   17.1066 C.ar    1  UNL1        0.0184
     22 C         -12.7031    2.9331   16.6162 C.ar    1  UNL1        0.0220
     23 C         -14.0344    3.3882   16.0960 C.ar    1  UNL1        0.0997
     24 N         -15.1933    2.4362   16.0663 N.ar    1  UNL1       -0.2323
     25 C         -15.0208    1.0292   16.5566 C.ar    1  UNL1        0.1623
     26 C         -16.1797    0.0773   16.5269 C.1     1  UNL1        0.1210
     27 N         -17.3385   -0.8747   16.4971 N.1     1  UNL1       -0.1892
@<TRIPOS>BOND
     1     2     1    1
     2     2     3    1
     3     3     4    1
     4     4    20    1
     5    20    21   ar
     6    21    22   ar
     7    22    23   ar
     8    23    24   ar
     9    24    25   ar
    10    25    26    1
    11    26    27    3
    12     4     5    1
    13     5     6    1
    14     6     7    1
    15     7     8   am
    16     8     9    2
    17     8    10    1
    18    10    11    1
    19    11    12    1
    20    12    13    1
    21    13    14    1
    22    14    15    1
    23    15    16    1
    24    16    17    1
    25    16    18    1
    26    14    19    1
    27     7     2    1
    28    18    10    1
    29    25    20   ar
    30    19    10    1
    31    17    12    1
