@<TRIPOS>MOLECULE
*****
 29 31 0 0 0
SMALL
GASTEIGER

@<TRIPOS>ATOM
      1 C         -11.1766  -17.7291   22.8674 C.ar    1  UNL1        0.0795
      2 C         -10.2731  -18.5523   21.9977 C.ar    1  UNL1        0.0398
      3 C          -8.9202  -17.9046   21.9907 C.ar    1  UNL1        0.1329
      4 N          -8.9874  -16.6813   22.8560 N.ar    1  UNL1       -0.2423
      5 N         -10.3819  -16.5728   23.3979 N.ar    1  UNL1       -0.1733
      6 C         -12.9973  -17.4633   21.8118 C.3     1  UNL1        0.0060
      7 C         -12.6210  -18.0126   23.1559 C.3     1  UNL1        0.0372
      8 C         -12.2447  -18.5619   24.5001 C.3     1  UNL1        0.0060
      9 C         -14.0654  -18.2960   23.4444 C.3     1  UNL1        0.0060
     10 C          -7.7121  -18.3944   21.2486 C.2     1  UNL1        0.2683
     11 O          -7.8295  -18.8003   19.8094 O.2     1  UNL1       -0.2681
     12 N          -6.3866  -18.4784   21.9457 N.am    1  UNL1       -0.2594
     13 H          -6.3095  -18.2120   22.8904 H       1  UNL1        0.1571
     14 C          -5.1785  -18.9681   21.2037 C.ar    1  UNL1        0.1655
     15 N          -3.9246  -18.1861   20.9467 N.ar    1  UNL1       -0.2269
     16 C          -2.9834  -19.0605   20.1725 C.ar    1  UNL1        0.0831
     17 C          -3.6555  -20.3830   19.9510 C.ar    1  UNL1        0.0542
     18 S          -5.0122  -20.3259   20.5883 S.2     1  UNL1       -0.0511
     19 C          -1.6109  -18.6794   19.7023 C.3     1  UNL1        0.1123
     20 N          -1.4464  -17.8380   18.4715 N.3     1  UNL1       -0.3162
     21 H          -1.7667  -18.3613   17.6566 H       1  UNL1        0.1192
     22 H          -0.4627  -17.5953   18.3545 H       1  UNL1        0.1192
     23 C          -7.8583  -15.7329   23.1312 C.3     1  UNL1        0.1539
     24 C          -7.3522  -15.5557   24.5322 C.ar    1  UNL1        0.0021
     25 C          -8.3130  -15.5679   25.6839 C.ar    1  UNL1       -0.0023
     26 C          -7.8069  -15.3907   27.0847 C.ar    1  UNL1       -0.0003
     27 C          -6.3399  -15.2014   27.3338 C.ar    1  UNL1       -0.0000
     28 C          -5.3790  -15.1892   26.1821 C.ar    1  UNL1       -0.0003
     29 C          -5.8852  -15.3664   24.7813 C.ar    1  UNL1       -0.0023
@<TRIPOS>BOND
     1     6     7    1
     2     7     8    1
     3     7     9    1
     4     7     1    1
     5     1     2   ar
     6     2     3   ar
     7     3    10    1
     8    10    11    2
     9    10    12   am
    10    12    14    1
    11    14    15   ar
    12    15    16   ar
    13    16    19    1
    14    19    20    1
    15    16    17   ar
    16    17    18   ar
    17     3     4   ar
    18     4    23    1
    19    23    24    1
    20    24    25   ar
    21    25    26   ar
    22    26    27   ar
    23    27    28   ar
    24    28    29   ar
    25     4     5   ar
    26     5     1   ar
    27    18    14   ar
    28    29    24   ar
    29    12    13    1
    30    20    21    1
    31    20    22    1
@<TRIPOS>MOLECULE
*****
 29 31 0 0 0
SMALL
GASTEIGER

@<TRIPOS>ATOM
      1 C          -5.0232  -18.8547   21.8904 C.ar    1  UNL1        0.0795
      2 C          -6.3896  -19.4737   21.8924 C.ar    1  UNL1        0.0398
      3 C          -7.3588  -18.4559   22.4165 C.ar    1  UNL1        0.1329
      4 N          -6.5916  -17.2079   22.7384 N.ar    1  UNL1       -0.2423
      5 N          -5.1481  -17.4543   22.4132 N.ar    1  UNL1       -0.1733
      6 C          -2.9741  -18.6781   22.4097 C.3     1  UNL1        0.0060
      7 C          -3.7548  -19.5193   21.4439 C.3     1  UNL1        0.0372
      8 C          -4.5356  -20.3606   20.4781 C.3     1  UNL1        0.0060
      9 C          -2.4864  -20.1840   20.9975 C.3     1  UNL1        0.0060
     10 C          -8.8360  -18.6518   22.5885 C.2     1  UNL1        0.2683
     11 O          -9.3778  -20.0081   22.9306 O.2     1  UNL1       -0.2681
     12 N          -9.7714  -17.4916   22.4183 N.am    1  UNL1       -0.2594
     13 H          -9.4158  -16.6014   22.1938 H       1  UNL1        0.1571
     14 C         -11.2485  -17.6875   22.5903 C.ar    1  UNL1        0.1655
     15 N         -11.9576  -17.9554   23.8847 N.ar    1  UNL1       -0.2269
     16 C         -13.4232  -18.0834   23.5925 C.ar    1  UNL1        0.0831
     17 C         -13.6201  -17.8946   22.1176 C.ar    1  UNL1        0.0542
     18 S         -12.2760  -17.6500   21.4981 S.2     1  UNL1       -0.0511
     19 C         -14.5026  -18.3528   24.5987 C.3     1  UNL1        0.1123
     20 N         -14.1434  -18.6247   26.0294 N.3     1  UNL1       -0.3162
     21 H         -13.6303  -19.5042   26.0900 H       1  UNL1        0.1192
     22 H         -14.9948  -18.6887   26.5875 H       1  UNL1        0.1192
     23 C          -7.1668  -15.9366   23.2887 C.3     1  UNL1        0.1539
     24 C          -7.1718  -15.6948   24.7692 C.ar    1  UNL1        0.0021
     25 C          -5.8897  -15.3827   25.4824 C.ar    1  UNL1       -0.0023
     26 C          -5.8948  -15.1409   26.9628 C.ar    1  UNL1       -0.0003
     27 C          -7.1819  -15.2113   27.7298 C.ar    1  UNL1       -0.0000
     28 C          -8.4639  -15.5234   27.0166 C.ar    1  UNL1       -0.0003
     29 C          -8.4589  -15.7652   25.5362 C.ar    1  UNL1       -0.0023
@<TRIPOS>BOND
     1     6     7    1
     2     7     8    1
     3     7     9    1
     4     7     1    1
     5     1     2   ar
     6     2     3   ar
     7     3    10    1
     8    10    11    2
     9    10    12   am
    10    12    14    1
    11    14    15   ar
    12    15    16   ar
    13    16    19    1
    14    19    20    1
    15    16    17   ar
    16    17    18   ar
    17     3     4   ar
    18     4    23    1
    19    23    24    1
    20    24    25   ar
    21    25    26   ar
    22    26    27   ar
    23    27    28   ar
    24    28    29   ar
    25     4     5   ar
    26     5     1   ar
    27    18    14   ar
    28    29    24   ar
    29    12    13    1
    30    20    21    1
    31    20    22    1
@<TRIPOS>MOLECULE
*****
 29 31 0 0 0
SMALL
GASTEIGER

@<TRIPOS>ATOM
      1 C         -11.1592  -16.8826   21.1946 C.ar    1  UNL1        0.0795
      2 C          -9.9209  -17.5410   20.6623 C.ar    1  UNL1        0.0398
      3 C          -9.1457  -18.0811   21.8273 C.ar    1  UNL1        0.1329
      4 N          -9.9049  -17.7567   23.0796 N.ar    1  UNL1       -0.2423
      5 N         -11.1492  -17.0159   22.6886 N.ar    1  UNL1       -0.1733
      6 C         -13.2747  -16.7599   21.2909 C.3     1  UNL1        0.0060
      7 C         -12.2209  -16.2093   20.3765 C.3     1  UNL1        0.0372
      8 C         -11.1670  -15.6585   19.4620 C.3     1  UNL1        0.0060
      9 C         -13.2826  -15.5359   19.5584 C.3     1  UNL1        0.0060
     10 C          -7.8405  -18.8166   21.7530 C.2     1  UNL1        0.2683
     11 O          -7.6057  -20.0171   22.6212 O.2     1  UNL1       -0.2681
     12 N          -6.7701  -18.3518   20.8105 N.am    1  UNL1       -0.2594
     13 H          -6.9243  -17.5639   20.2407 H       1  UNL1        0.1571
     14 C          -5.4650  -19.0873   20.7362 C.ar    1  UNL1        0.1655
     15 N          -4.1503  -18.6068   21.2754 N.ar    1  UNL1       -0.2269
     16 C          -3.1181  -19.6549   20.9821 C.ar    1  UNL1        0.0831
     17 C          -3.7948  -20.7832   20.2618 C.ar    1  UNL1        0.0542
     18 S          -5.2453  -20.4323   20.1098 S.2     1  UNL1       -0.0511
     19 C          -1.6644  -19.5867   21.3455 C.3     1  UNL1        0.1123
     20 N          -1.0385  -18.2679   21.6904 N.3     1  UNL1       -0.3162
     21 H          -1.0369  -17.6665   20.8666 H       1  UNL1        0.1192
     22 H          -0.0795  -18.4182   22.0036 H       1  UNL1        0.1192
     23 C          -9.4921  -18.1107   24.4776 C.3     1  UNL1        0.1539
     24 C          -8.6819  -17.1430   25.2882 C.ar    1  UNL1        0.0021
     25 C          -7.7363  -16.2000   24.6052 C.ar    1  UNL1       -0.0023
     26 C          -6.9261  -15.2323   25.4159 C.ar    1  UNL1       -0.0003
     27 C          -7.0615  -15.2077   26.9095 C.ar    1  UNL1       -0.0000
     28 C          -8.0070  -16.1508   27.5926 C.ar    1  UNL1       -0.0003
     29 C          -8.8172  -17.1184   26.7819 C.ar    1  UNL1       -0.0023
@<TRIPOS>BOND
     1     6     7    1
     2     7     8    1
     3     7     9    1
     4     7     1    1
     5     1     2   ar
     6     2     3   ar
     7     3    10    1
     8    10    11    2
     9    10    12   am
    10    12    14    1
    11    14    15   ar
    12    15    16   ar
    13    16    19    1
    14    19    20    1
    15    16    17   ar
    16    17    18   ar
    17     3     4   ar
    18     4    23    1
    19    23    24    1
    20    24    25   ar
    21    25    26   ar
    22    26    27   ar
    23    27    28   ar
    24    28    29   ar
    25     4     5   ar
    26     5     1   ar
    27    18    14   ar
    28    29    24   ar
    29    12    13    1
    30    20    21    1
    31    20    22    1
