@<TRIPOS>MOLECULE
*****
 38 40 0 0 0
SMALL
GASTEIGER

@<TRIPOS>ATOM
      1 C           6.7354   -2.9389   31.3147 C.ar    1  UNL1       -0.0185
      2 C           7.0111   -4.3641   31.6924 C.ar    1  UNL1       -0.0041
      3 C           7.0729   -5.4227   30.6315 C.ar    1  UNL1        0.0057
      4 C           6.8590   -5.0560   29.1928 C.ar    1  UNL1        0.0696
      5 C           6.5833   -3.6308   28.8151 C.ar    1  UNL1        0.0095
      6 C           6.5215   -2.5722   29.8760 C.ar    1  UNL1        0.0677
      7 C           6.4881    1.2954   35.5585 C.2     1  UNL1        0.2490
      8 O           7.6860    2.1565   35.8295 O.2     1  UNL1       -0.2699
      9 N           6.5500    0.2369   34.4976 N.am    1  UNL1       -0.2761
     10 C           5.3520   -0.6243   34.2266 C.3     1  UNL1        0.0940
     11 C           5.4139   -1.6829   33.1656 C.3     1  UNL1        0.0259
     12 C           6.6736   -1.8803   32.3757 C.3     1  UNL1        0.0257
     13 C           7.8715   -1.0192   32.6466 C.3     1  UNL1        0.0259
     14 C           7.8097    0.0394   33.7076 C.3     1  UNL1        0.0940
     15 C           2.7088    1.8877   37.9284 C.ar    1  UNL1        0.1057
     16 C           3.8195    1.0475   38.4854 C.ar    1  UNL1        0.0185
     17 C           5.0793    0.8500   37.6955 C.ar    1  UNL1        0.0058
     18 C           5.2284    1.4928   36.3485 C.ar    1  UNL1        0.0537
     19 C           4.1177    2.3331   35.7914 C.ar    1  UNL1        0.0058
     20 C           2.8579    2.5305   36.5814 C.ar    1  UNL1        0.0185
     21 C           0.1893    2.2826   39.5083 C.3     1  UNL1        0.1816
     22 S           1.4491    2.0852   38.7183 S.O2    1  UNL1        0.0104
     23 O           1.0822    3.2467   37.8429 O.2     1  UNL1       -0.1686
     24 O           1.8160    0.9237   39.5937 O.2     1  UNL1       -0.1686
     25 C           6.9208   -6.1146   28.1318 C.2     1  UNL1        0.3078
     26 O           6.1707   -5.9321   26.8458 O.2     1  UNL1       -0.2516
     27 N           7.7327   -7.3556   28.3570 N.am    1  UNL1       -0.1708
     28 H           8.2251   -7.4753   29.2011 H       1  UNL1        0.2545
     29 C           7.7945   -8.4141   27.2960 C.2     1  UNL1        0.3751
     30 N           7.6704   -9.8609   27.6719 N.pl3   1  UNL1       -0.1313
     31 N           7.9804   -8.0258   25.8591 N.pl3   1  UNL1       -0.2906
     32 H           7.5484  -10.1158   28.6150 H       1  UNL1        0.3060
     33 H           8.0618   -7.0762   25.6123 H       1  UNL1        0.2545
     34 H           8.0209   -8.7206   25.1627 H       1  UNL1        0.2545
     35 C           6.2458   -1.1469   29.4983 C.3     1  UNL1        0.4183
     36 F           5.9702    0.2783   29.1206 F       1  UNL1       -0.1659
     37 F           7.7135   -0.9186   29.2889 F       1  UNL1       -0.1659
     38 F           4.7782   -1.3752   29.7078 F       1  UNL1       -0.1659
@<TRIPOS>BOND
     1    21    22    1
     2    22    23    2
     3    22    24    2
     4    22    15    1
     5    15    16   ar
     6    16    17   ar
     7    17    18   ar
     8    18     7    1
     9     7     8    2
    10     7     9   am
    11     9    10    1
    12    10    11    1
    13    11    12    1
    14    12     1    1
    15     1     2   ar
    16     2     3   ar
    17     3     4   ar
    18     4    25    1
    19    25    26    2
    20    25    27   am
    21    27    29    1
    22    29    30    2
    23    29    31    1
    24     4     5   ar
    25     5     6   ar
    26     6    35    1
    27    35    36    1
    28    35    37    1
    29    35    38    1
    30    12    13    1
    31    13    14    1
    32    18    19   ar
    33    19    20   ar
    34    20    15   ar
    35    14     9    1
    36     6     1   ar
    37    27    28    1
    38    30    32    1
    39    31    33    1
    40    31    34    1
@<TRIPOS>MOLECULE
*****
 38 40 0 0 0
SMALL
GASTEIGER

@<TRIPOS>ATOM
      1 C           5.9992   -2.5637   32.5244 C.ar    1  UNL1       -0.0185
      2 C           4.6337   -2.7920   33.1016 C.ar    1  UNL1       -0.0041
      3 C           4.0735   -1.8292   34.1062 C.ar    1  UNL1        0.0057
      4 C           4.8788   -0.6380   34.5335 C.ar    1  UNL1        0.0696
      5 C           6.2443   -0.4097   33.9563 C.ar    1  UNL1        0.0095
      6 C           6.8045   -1.3725   32.9518 C.ar    1  UNL1        0.0677
      7 C           8.2402   -6.4149   28.5062 C.2     1  UNL1        0.2490
      8 O           8.7526   -7.7518   28.9534 O.2     1  UNL1       -0.2699
      9 N           7.6800   -5.4522   29.5107 N.am    1  UNL1       -0.2761
     10 C           7.1675   -4.1152   29.0635 C.3     1  UNL1        0.0940
     11 C           6.6073   -3.1524   30.0681 C.3     1  UNL1        0.0259
     12 C           6.5595   -3.5265   31.5199 C.3     1  UNL1        0.0257
     13 C           7.0719   -4.8635   31.9671 C.3     1  UNL1        0.0259
     14 C           7.6321   -5.8263   30.9625 C.3     1  UNL1        0.0940
     15 C           8.3837   -5.2925   24.1508 C.ar    1  UNL1        0.1057
     16 C           9.0641   -4.4284   25.1708 C.ar    1  UNL1        0.0185
     17 C           9.0163   -4.8026   26.6226 C.ar    1  UNL1        0.0058
     18 C           8.2880   -6.0408   27.0544 C.ar    1  UNL1        0.0537
     19 C           7.6077   -6.9048   26.0344 C.ar    1  UNL1        0.0058
     20 C           7.6555   -6.5307   24.5826 C.ar    1  UNL1        0.0185
     21 C           8.4794   -4.5442   21.2472 C.3     1  UNL1        0.1816
     22 S           8.4316   -4.9183   22.6990 S.O2    1  UNL1        0.0104
     23 O           8.4140   -6.3706   22.3241 O.2     1  UNL1       -0.1686
     24 O           8.4492   -3.4660   23.0738 O.2     1  UNL1       -0.1686
     25 C           4.3185    0.3248   35.5380 C.2     1  UNL1        0.3078
     26 O           3.7525    1.6376   35.0840 O.2     1  UNL1       -0.2516
     27 N           4.3243   -0.0252   36.9966 N.am    1  UNL1       -0.1708
     28 H           4.6958   -0.8868   37.2946 H       1  UNL1        0.2545
     29 C           3.7641    0.9377   38.0011 C.2     1  UNL1        0.3751
     30 N           4.3299    2.3226   38.1092 N.pl3   1  UNL1       -0.1313
     31 N           2.6379    0.5156   38.8976 N.pl3   1  UNL1       -0.2906
     32 H           5.0691    2.5997   37.5208 H       1  UNL1        0.3060
     33 H           2.2665   -0.3934   38.8267 H       1  UNL1        0.2545
     34 H           2.2702    1.1475   39.5569 H       1  UNL1        0.2545
     35 C           8.1701   -1.1442   32.3745 C.3     1  UNL1        0.4183
     36 F           9.5356   -0.9159   31.7972 F       1  UNL1       -0.1659
     37 F           7.5740   -0.2723   31.3094 F       1  UNL1       -0.1659
     38 F           8.7662   -2.0161   33.4396 F       1  UNL1       -0.1659
@<TRIPOS>BOND
     1    21    22    1
     2    22    23    2
     3    22    24    2
     4    22    15    1
     5    15    16   ar
     6    16    17   ar
     7    17    18   ar
     8    18     7    1
     9     7     8    2
    10     7     9   am
    11     9    10    1
    12    10    11    1
    13    11    12    1
    14    12     1    1
    15     1     2   ar
    16     2     3   ar
    17     3     4   ar
    18     4    25    1
    19    25    26    2
    20    25    27   am
    21    27    29    1
    22    29    30    2
    23    29    31    1
    24     4     5   ar
    25     5     6   ar
    26     6    35    1
    27    35    36    1
    28    35    37    1
    29    35    38    1
    30    12    13    1
    31    13    14    1
    32    18    19   ar
    33    19    20   ar
    34    20    15   ar
    35    14     9    1
    36     6     1   ar
    37    27    28    1
    38    30    32    1
    39    31    33    1
    40    31    34    1
@<TRIPOS>MOLECULE
*****
 38 40 0 0 0
SMALL
GASTEIGER

@<TRIPOS>ATOM
      1 C          -1.3393    3.1708   25.0715 C.ar    1  UNL1       -0.0185
      2 C          -2.2236    3.7173   23.9902 C.ar    1  UNL1       -0.0041
      3 C          -3.5604    4.3019   24.3386 C.ar    1  UNL1        0.0057
      4 C          -4.0127    4.3399   25.7683 C.ar    1  UNL1        0.0696
      5 C          -3.1284    3.7934   26.8495 C.ar    1  UNL1        0.0095
      6 C          -1.7917    3.2089   26.5011 C.ar    1  UNL1        0.0677
      7 C           4.0077    0.8324   23.6780 C.2     1  UNL1        0.2490
      8 O           5.2577    1.4142   24.2689 O.2     1  UNL1       -0.2699
      9 N           2.6710    1.4170   24.0264 N.am    1  UNL1       -0.2761
     10 C           1.4210    0.8353   23.4355 C.3     1  UNL1        0.0940
     11 C           0.0843    1.4199   23.7839 C.3     1  UNL1        0.0259
     12 C          -0.0025    2.5862   24.7231 C.3     1  UNL1        0.0257
     13 C           1.2475    3.1680   25.3140 C.3     1  UNL1        0.0259
     14 C           2.5843    2.5834   24.9656 C.3     1  UNL1        0.0940
     15 C           4.2680   -2.6666   20.8604 C.ar    1  UNL1        0.1057
     16 C           4.2856   -2.8945   22.3429 C.ar    1  UNL1        0.0185
     17 C           4.1989   -1.7282   23.2821 C.ar    1  UNL1        0.0058
     18 C           4.0945   -0.3339   22.7388 C.ar    1  UNL1        0.0537
     19 C           4.0769   -0.1060   21.2564 C.ar    1  UNL1        0.0058
     20 C           4.1636   -1.2724   20.3172 C.ar    1  UNL1        0.0185
     21 C           4.4415   -4.9993   18.9820 C.3     1  UNL1        0.1816
     22 S           4.3548   -3.8330   19.9212 S.O2    1  UNL1        0.0104
     23 O           5.1702   -4.5852   20.9307 O.2     1  UNL1       -0.1686
     24 O           3.5393   -3.0807   18.9117 O.2     1  UNL1       -0.1686
     25 C          -5.3495    4.9245   26.1166 C.2     1  UNL1        0.3078
     26 O          -6.4787    4.8537   25.1318 O.2     1  UNL1       -0.2516
     27 N          -5.5571    5.5799   27.4498 N.am    1  UNL1       -0.1708
     28 H          -4.8160    5.6264   28.0962 H       1  UNL1        0.2545
     29 C          -6.8939    6.1645   27.7981 C.2     1  UNL1        0.3751
     30 N          -7.5364    5.8360   29.1131 N.pl3   1  UNL1       -0.1313
     31 N          -7.5881    7.0775   26.8313 N.pl3   1  UNL1       -0.2906
     32 H          -7.0808    5.2368   29.7476 H       1  UNL1        0.3060
     33 H          -7.1664    7.2930   25.9682 H       1  UNL1        0.2545
     34 H          -8.4655    7.4611   27.0599 H       1  UNL1        0.2545
     35 C          -0.9072    2.6623   27.5824 C.3     1  UNL1        0.4183
     36 F          -0.0228    2.1157   28.6637 F       1  UNL1       -0.1659
     37 F          -1.3394    1.2694   27.2318 F       1  UNL1       -0.1659
     38 F          -0.4750    4.0552   27.9331 F       1  UNL1       -0.1659
@<TRIPOS>BOND
     1    21    22    1
     2    22    23    2
     3    22    24    2
     4    22    15    1
     5    15    16   ar
     6    16    17   ar
     7    17    18   ar
     8    18     7    1
     9     7     8    2
    10     7     9   am
    11     9    10    1
    12    10    11    1
    13    11    12    1
    14    12     1    1
    15     1     2   ar
    16     2     3   ar
    17     3     4   ar
    18     4    25    1
    19    25    26    2
    20    25    27   am
    21    27    29    1
    22    29    30    2
    23    29    31    1
    24     4     5   ar
    25     5     6   ar
    26     6    35    1
    27    35    36    1
    28    35    37    1
    29    35    38    1
    30    12    13    1
    31    13    14    1
    32    18    19   ar
    33    19    20   ar
    34    20    15   ar
    35    14     9    1
    36     6     1   ar
    37    27    28    1
    38    30    32    1
    39    31    33    1
    40    31    34    1
@<TRIPOS>MOLECULE
*****
 38 40 0 0 0
SMALL
GASTEIGER

@<TRIPOS>ATOM
      1 C          -1.6374    3.4277   26.5600 C.ar    1  UNL1       -0.0185
      2 C          -3.0217    3.7185   27.0591 C.ar    1  UNL1       -0.0041
      3 C          -4.1722    3.7605   26.0976 C.ar    1  UNL1        0.0057
      4 C          -3.9384    3.5117   24.6369 C.ar    1  UNL1        0.0696
      5 C          -2.5541    3.2209   24.1378 C.ar    1  UNL1        0.0095
      6 C          -1.4036    3.1789   25.0993 C.ar    1  UNL1        0.0677
      7 C           2.9648    3.2597   30.4060 C.2     1  UNL1        0.2490
      8 O           3.5456    4.5367   30.9368 O.2     1  UNL1       -0.2699
      9 N           1.8143    3.3017   29.4445 N.am    1  UNL1       -0.2761
     10 C           1.2335    2.0246   28.9136 C.3     1  UNL1        0.0940
     11 C           0.0829    2.0667   27.9521 C.3     1  UNL1        0.0259
     12 C          -0.4868    3.3857   27.5215 C.3     1  UNL1        0.0257
     13 C           0.0940    4.6628   28.0523 C.3     1  UNL1        0.0259
     14 C           1.2446    4.6208   29.0138 C.3     1  UNL1        0.0940
     15 C           4.6740   -0.6975   31.6979 C.ar    1  UNL1        0.1057
     16 C           5.2736    0.0343   30.5339 C.ar    1  UNL1        0.0185
     17 C           4.7038    1.3533   30.1033 C.ar    1  UNL1        0.0058
     18 C           3.5346    1.9406   30.8366 C.ar    1  UNL1        0.0537
     19 C           2.9350    1.2088   32.0006 C.ar    1  UNL1        0.0058
     20 C           3.5048   -0.1102   32.4313 C.ar    1  UNL1        0.0185
     21 C           5.8135   -3.3356   32.5593 C.3     1  UNL1        0.1816
     22 S           5.2438   -2.0166   32.1286 S.O2    1  UNL1        0.0104
     23 O           6.5455   -1.6697   31.4689 O.2     1  UNL1       -0.1686
     24 O           3.9420   -2.3635   32.7883 O.2     1  UNL1       -0.1686
     25 C          -5.0890    3.5536   23.6754 C.2     1  UNL1        0.3078
     26 O          -4.9308    2.9965   22.2918 O.2     1  UNL1       -0.2516
     27 N          -6.3977    4.1528   24.0976 N.am    1  UNL1       -0.1708
     28 H          -6.5015    4.5185   25.0057 H       1  UNL1        0.2545
     29 C          -7.5482    4.1948   23.1361 C.2     1  UNL1        0.3751
     30 N          -8.9169    3.7769   23.5855 N.pl3   1  UNL1       -0.1313
     31 N          -7.3300    4.6546   21.7250 N.pl3   1  UNL1       -0.2906
     32 H          -9.0601    3.4750   24.5116 H       1  UNL1        0.3060
     33 H          -6.4317    4.9289   21.4300 H       1  UNL1        0.2545
     34 H          -8.0851    4.6822   21.0939 H       1  UNL1        0.2545
     35 C          -0.0192    2.8881   24.6002 C.3     1  UNL1        0.4183
     36 F           1.3651    2.5973   24.1012 F       1  UNL1       -0.1659
     37 F          -0.2726    1.4178   24.7542 F       1  UNL1       -0.1659
     38 F           0.2342    4.3585   24.4463 F       1  UNL1       -0.1659
@<TRIPOS>BOND
     1    21    22    1
     2    22    23    2
     3    22    24    2
     4    22    15    1
     5    15    16   ar
     6    16    17   ar
     7    17    18   ar
     8    18     7    1
     9     7     8    2
    10     7     9   am
    11     9    10    1
    12    10    11    1
    13    11    12    1
    14    12     1    1
    15     1     2   ar
    16     2     3   ar
    17     3     4   ar
    18     4    25    1
    19    25    26    2
    20    25    27   am
    21    27    29    1
    22    29    30    2
    23    29    31    1
    24     4     5   ar
    25     5     6   ar
    26     6    35    1
    27    35    36    1
    28    35    37    1
    29    35    38    1
    30    12    13    1
    31    13    14    1
    32    18    19   ar
    33    19    20   ar
    34    20    15   ar
    35    14     9    1
    36     6     1   ar
    37    27    28    1
    38    30    32    1
    39    31    33    1
    40    31    34    1
@<TRIPOS>MOLECULE
*****
 38 40 0 0 0
SMALL
GASTEIGER

@<TRIPOS>ATOM
      1 C           6.4647   -1.8575   30.3018 C.ar    1  UNL1       -0.0185
      2 C           5.6154   -1.7715   29.0684 C.ar    1  UNL1       -0.0041
      3 C           5.7284   -2.8236   28.0052 C.ar    1  UNL1        0.0057
      4 C           6.6906   -3.9616   28.1755 C.ar    1  UNL1        0.0696
      5 C           7.5399   -4.0475   29.4089 C.ar    1  UNL1        0.0095
      6 C           7.4269   -2.9955   30.4721 C.ar    1  UNL1        0.0677
      7 C           6.0127    2.3508   34.5547 C.2     1  UNL1        0.2490
      8 O           6.9559    3.5171   34.5589 O.2     1  UNL1       -0.2699
      9 N           6.1257    1.2988   33.4915 N.am    1  UNL1       -0.2761
     10 C           5.1825    0.1324   33.4872 C.3     1  UNL1        0.0940
     11 C           5.2955   -0.9197   32.4240 C.3     1  UNL1        0.0259
     12 C           6.3517   -0.8053   31.3650 C.3     1  UNL1        0.0257
     13 C           7.2949    0.3610   31.3692 C.3     1  UNL1        0.0259
     14 C           7.1819    1.4131   32.4325 C.3     1  UNL1        0.0940
     15 C           2.8443    2.0079   37.7316 C.ar    1  UNL1        0.1057
     16 C           4.1157    1.2213   37.8525 C.ar    1  UNL1        0.0185
     17 C           5.1719    1.3356   36.7935 C.ar    1  UNL1        0.0058
     18 C           4.9566    2.2365   35.6137 C.ar    1  UNL1        0.0537
     19 C           3.6851    3.0231   35.4928 C.ar    1  UNL1        0.0058
     20 C           2.6290    2.9088   36.5518 C.ar    1  UNL1        0.0185
     21 C           0.7319    1.7792   39.8496 C.3     1  UNL1        0.1816
     22 S           1.7881    1.8936   38.7906 S.O2    1  UNL1        0.0104
     23 O           0.9627    2.9241   38.0787 O.2     1  UNL1       -0.1686
     24 O           2.6135    0.8631   39.5026 O.2     1  UNL1       -0.1686
     25 C           6.8036   -5.0137   27.1123 C.2     1  UNL1        0.3078
     26 O           6.5969   -4.6495   25.6719 O.2     1  UNL1       -0.2516
     27 N           7.1232   -6.4298   27.4894 N.am    1  UNL1       -0.1708
     28 H           7.2589   -6.6688   28.4348 H       1  UNL1        0.2545
     29 C           7.2362   -7.4819   26.4262 C.2     1  UNL1        0.3751
     30 N           8.1177   -7.2522   25.2345 N.pl3   1  UNL1       -0.1313
     31 N           6.4675   -8.7636   26.5546 N.pl3   1  UNL1       -0.2906
     32 H           8.6222   -6.4110   25.1502 H       1  UNL1        0.3060
     33 H           5.8889   -8.9143   27.3368 H       1  UNL1        0.2545
     34 H           6.5416   -9.4541   25.8568 H       1  UNL1        0.2545
     35 C           8.2762   -3.0814   31.7056 C.3     1  UNL1        0.4183
     36 F           9.1254   -3.1673   32.9390 F       1  UNL1       -0.1659
     37 F           9.3695   -2.3306   31.0050 F       1  UNL1       -0.1659
     38 F           7.1828   -3.8322   32.4061 F       1  UNL1       -0.1659
@<TRIPOS>BOND
     1    21    22    1
     2    22    23    2
     3    22    24    2
     4    22    15    1
     5    15    16   ar
     6    16    17   ar
     7    17    18   ar
     8    18     7    1
     9     7     8    2
    10     7     9   am
    11     9    10    1
    12    10    11    1
    13    11    12    1
    14    12     1    1
    15     1     2   ar
    16     2     3   ar
    17     3     4   ar
    18     4    25    1
    19    25    26    2
    20    25    27   am
    21    27    29    1
    22    29    30    2
    23    29    31    1
    24     4     5   ar
    25     5     6   ar
    26     6    35    1
    27    35    36    1
    28    35    37    1
    29    35    38    1
    30    12    13    1
    31    13    14    1
    32    18    19   ar
    33    19    20   ar
    34    20    15   ar
    35    14     9    1
    36     6     1   ar
    37    27    28    1
    38    30    32    1
    39    31    33    1
    40    31    34    1
@<TRIPOS>MOLECULE
*****
 38 40 0 0 0
SMALL
GASTEIGER

@<TRIPOS>ATOM
      1 C           4.0400   -1.8018   21.4380 C.ar    1  UNL1       -0.0185
      2 C           3.4714   -0.7032   22.2863 C.ar    1  UNL1       -0.0041
      3 C           2.4026    0.1932   21.7349 C.ar    1  UNL1        0.0057
      4 C           1.9024   -0.0090   20.3353 C.ar    1  UNL1        0.0696
      5 C           2.4710   -1.1076   19.4870 C.ar    1  UNL1        0.0095
      6 C           3.5398   -2.0040   20.0384 C.ar    1  UNL1        0.0677
      7 C           8.3153   -5.3877   23.6434 C.2     1  UNL1        0.2490
      8 O           9.3136   -6.0204   22.7198 O.2     1  UNL1       -0.2699
      9 N           7.2465   -4.4913   23.0921 N.am    1  UNL1       -0.2761
     10 C           6.2481   -3.8586   24.0157 C.3     1  UNL1        0.0940
     11 C           5.1793   -2.9621   23.4643 C.3     1  UNL1        0.0259
     12 C           5.1089   -2.6983   21.9894 C.3     1  UNL1        0.0257
     13 C           6.1072   -3.3310   21.0658 C.3     1  UNL1        0.0259
     14 C           7.1761   -4.2275   21.6171 C.3     1  UNL1        0.0940
     15 C           8.5267   -6.1791   28.0682 C.ar    1  UNL1        0.1057
     16 C           9.2162   -4.9806   27.4869 C.ar    1  UNL1        0.0185
     17 C           9.1457   -4.7168   26.0120 C.ar    1  UNL1        0.0058
     18 C           8.3857   -5.6515   25.1184 C.ar    1  UNL1        0.0537
     19 C           7.6962   -6.8501   25.6997 C.ar    1  UNL1        0.0058
     20 C           7.7667   -7.1139   27.1746 C.ar    1  UNL1        0.0185
     21 C           8.6676   -6.7067   31.0181 C.3     1  UNL1        0.1816
     22 S           8.5971   -6.4429   29.5432 S.O2    1  UNL1        0.0104
     23 O           9.2954   -7.7436   29.2772 O.2     1  UNL1       -0.1686
     24 O           7.8989   -5.1423   29.8092 O.2     1  UNL1       -0.1686
     25 C           0.8335    0.8875   19.7840 C.2     1  UNL1        0.3078
     26 O           0.5558    0.9047   18.3100 O.2     1  UNL1       -0.2516
     27 N           0.0425    1.7668   20.7066 N.am    1  UNL1       -0.1708
     28 H           0.2249    1.7555   21.6740 H       1  UNL1        0.2545
     29 C          -1.0262    2.6632   20.1552 C.2     1  UNL1        0.3751
     30 N          -0.7530    3.4946   18.9370 N.pl3   1  UNL1       -0.1313
     31 N          -2.3683    2.7282   20.8221 N.pl3   1  UNL1       -0.2906
     32 H           0.1278    3.4520   18.4993 H       1  UNL1        0.3060
     33 H          -2.5477    2.1825   21.6216 H       1  UNL1        0.2545
     34 H          -3.0698    3.3166   20.4602 H       1  UNL1        0.2545
     35 C           4.1085   -3.1027   19.1901 C.3     1  UNL1        0.4183
     36 F           4.6772   -4.2014   18.3419 F       1  UNL1       -0.1659
     37 F           3.2047   -4.0915   19.8649 F       1  UNL1       -0.1659
     38 F           5.0123   -2.1140   18.5153 F       1  UNL1       -0.1659
@<TRIPOS>BOND
     1    21    22    1
     2    22    23    2
     3    22    24    2
     4    22    15    1
     5    15    16   ar
     6    16    17   ar
     7    17    18   ar
     8    18     7    1
     9     7     8    2
    10     7     9   am
    11     9    10    1
    12    10    11    1
    13    11    12    1
    14    12     1    1
    15     1     2   ar
    16     2     3   ar
    17     3     4   ar
    18     4    25    1
    19    25    26    2
    20    25    27   am
    21    27    29    1
    22    29    30    2
    23    29    31    1
    24     4     5   ar
    25     5     6   ar
    26     6    35    1
    27    35    36    1
    28    35    37    1
    29    35    38    1
    30    12    13    1
    31    13    14    1
    32    18    19   ar
    33    19    20   ar
    34    20    15   ar
    35    14     9    1
    36     6     1   ar
    37    27    28    1
    38    30    32    1
    39    31    33    1
    40    31    34    1
@<TRIPOS>MOLECULE
*****
 38 40 0 0 0
SMALL
GASTEIGER

@<TRIPOS>ATOM
      1 C          -2.8292    3.8279   20.7046 C.ar    1  UNL1       -0.0185
      2 C          -4.0298    3.5524   19.8487 C.ar    1  UNL1       -0.0041
      3 C          -5.4060    3.8366   20.3733 C.ar    1  UNL1        0.0057
      4 C          -5.5816    4.3964   21.7538 C.ar    1  UNL1        0.0696
      5 C          -4.3810    4.6720   22.6097 C.ar    1  UNL1        0.0095
      6 C          -3.0048    4.3877   22.0851 C.ar    1  UNL1        0.0677
      7 C           2.6758    2.6910   18.6064 C.2     1  UNL1        0.2490
      8 O           3.4025    3.7302   17.8053 O.2     1  UNL1       -0.2699
      9 N           1.2996    2.9752   19.1310 N.am    1  UNL1       -0.2761
     10 C           0.5728    1.9360   19.9322 C.3     1  UNL1        0.0940
     11 C          -0.8034    2.2202   20.4567 C.3     1  UNL1        0.0259
     12 C          -1.4529    3.5437   20.1801 C.3     1  UNL1        0.0257
     13 C          -0.7262    4.5829   19.3789 C.3     1  UNL1        0.0259
     14 C           0.6501    4.2987   18.8543 C.3     1  UNL1        0.0940
     15 C           4.6244   -1.2795   19.4363 C.ar    1  UNL1        0.1057
     16 C           4.7907   -0.1455   20.4040 C.ar    1  UNL1        0.0185
     17 C           4.1412    1.1779   20.1274 C.ar    1  UNL1        0.0058
     18 C           3.3253    1.3675   18.8831 C.ar    1  UNL1        0.0537
     19 C           3.1590    0.2336   17.9154 C.ar    1  UNL1        0.0058
     20 C           3.8086   -1.0899   18.1920 C.ar    1  UNL1        0.0185
     21 C           5.9235   -3.9264   19.9896 C.3     1  UNL1        0.1816
     22 S           5.2739   -2.6029   19.7130 S.O2    1  UNL1        0.0104
     23 O           4.0014   -3.3050   19.3420 O.2     1  UNL1       -0.1686
     24 O           6.5465   -1.9009   20.0840 O.2     1  UNL1       -0.1686
     25 C          -6.9579    4.6806   22.2784 C.2     1  UNL1        0.3078
     26 O          -7.8321    5.6837   21.5859 O.2     1  UNL1       -0.2516
     27 N          -7.4599    3.9618   23.4955 N.am    1  UNL1       -0.1708
     28 H          -6.8861    3.3035   23.9500 H       1  UNL1        0.2545
     29 C          -8.8361    4.2461   24.0200 C.2     1  UNL1        0.3751
     30 N          -9.8968    3.1875   23.9554 N.pl3   1  UNL1       -0.1313
     31 N          -9.1517    5.5890   24.6091 N.pl3   1  UNL1       -0.2906
     32 H          -9.6898    2.3061   23.5687 H       1  UNL1        0.3060
     33 H          -8.4555    6.2838   24.6515 H       1  UNL1        0.2545
     34 H         -10.0550    5.7756   24.9534 H       1  UNL1        0.2545
     35 C          -1.8042    4.6633   22.9411 C.3     1  UNL1        0.4183
     36 F          -0.6035    4.9389   23.7969 F       1  UNL1       -0.1659
     37 F          -1.7188    6.0497   22.3749 F       1  UNL1       -0.1659
     38 F          -1.8895    3.2769   23.5073 F       1  UNL1       -0.1659
@<TRIPOS>BOND
     1    21    22    1
     2    22    23    2
     3    22    24    2
     4    22    15    1
     5    15    16   ar
     6    16    17   ar
     7    17    18   ar
     8    18     7    1
     9     7     8    2
    10     7     9   am
    11     9    10    1
    12    10    11    1
    13    11    12    1
    14    12     1    1
    15     1     2   ar
    16     2     3   ar
    17     3     4   ar
    18     4    25    1
    19    25    26    2
    20    25    27   am
    21    27    29    1
    22    29    30    2
    23    29    31    1
    24     4     5   ar
    25     5     6   ar
    26     6    35    1
    27    35    36    1
    28    35    37    1
    29    35    38    1
    30    12    13    1
    31    13    14    1
    32    18    19   ar
    33    19    20   ar
    34    20    15   ar
    35    14     9    1
    36     6     1   ar
    37    27    28    1
    38    30    32    1
    39    31    33    1
    40    31    34    1
@<TRIPOS>MOLECULE
*****
 38 40 0 0 0
SMALL
GASTEIGER

@<TRIPOS>ATOM
      1 C           1.2276    1.6672   27.8837 C.ar    1  UNL1       -0.0185
      2 C           2.6794    1.8381   27.5474 C.ar    1  UNL1       -0.0041
      3 C           3.7061    0.9481   28.1826 C.ar    1  UNL1        0.0057
      4 C           3.2811   -0.1129   29.1541 C.ar    1  UNL1        0.0696
      5 C           1.8294   -0.2837   29.4904 C.ar    1  UNL1        0.0095
      6 C           0.8026    0.6063   28.8552 C.ar    1  UNL1        0.0677
      7 C          -2.8797    5.2273   25.3428 C.2     1  UNL1        0.2490
      8 O          -3.2907    6.5008   26.0205 O.2     1  UNL1       -0.2699
      9 N          -1.8529    4.3374   25.9780 N.am    1  UNL1       -0.2761
     10 C          -1.4419    3.0638   25.3004 C.3     1  UNL1        0.0940
     11 C          -0.4151    2.1738   25.9356 C.3     1  UNL1        0.0259
     12 C           0.2008    2.5573   27.2485 C.3     1  UNL1        0.0257
     13 C          -0.2102    3.8308   27.9261 C.3     1  UNL1        0.0259
     14 C          -1.2371    4.7209   27.2909 C.3     1  UNL1        0.0940
     15 C          -4.7272    4.0768   21.4042 C.ar    1  UNL1        0.1057
     16 C          -3.6809    5.1503   21.4567 C.ar    1  UNL1        0.0185
     17 C          -3.0651    5.5338   22.7696 C.ar    1  UNL1        0.0058
     18 C          -3.4955    4.8438   24.0299 C.ar    1  UNL1        0.0537
     19 C          -4.5419    3.7704   23.9774 C.ar    1  UNL1        0.0058
     20 C          -5.1577    3.3869   22.6645 C.ar    1  UNL1        0.0185
     21 C          -5.9589    3.3098   18.7784 C.3     1  UNL1        0.1816
     22 S          -5.3431    3.6933   20.0913 S.O2    1  UNL1        0.0104
     23 O          -3.9939    3.2861   19.5774 O.2     1  UNL1       -0.1686
     24 O          -6.6922    4.1005   20.6052 O.2     1  UNL1       -0.1686
     25 C           4.3080   -1.0029   29.7893 C.2     1  UNL1        0.3078
     26 O           5.3232   -1.7043   28.9364 O.2     1  UNL1       -0.2516
     27 N           4.3196   -1.1916   31.2773 N.am    1  UNL1       -0.1708
     28 H           3.6532   -0.7313   31.8371 H       1  UNL1        0.2545
     29 C           5.3464   -2.0816   31.9125 C.2     1  UNL1        0.3751
     30 N           4.9168   -3.1786   32.8410 N.pl3   1  UNL1       -0.1313
     31 N           6.8028   -1.8748   31.6190 N.pl3   1  UNL1       -0.2906
     32 H           3.9609   -3.3143   33.0336 H       1  UNL1        0.3060
     33 H           7.0848   -1.1549   31.0096 H       1  UNL1        0.2545
     34 H           7.4768   -2.4590   32.0359 H       1  UNL1        0.2545
     35 C          -0.6492    0.4355   29.1915 C.3     1  UNL1        0.4183
     36 F          -2.1010    0.2646   29.5277 F       1  UNL1       -0.1659
     37 F          -0.8062   -0.5067   28.0349 F       1  UNL1       -0.1659
     38 F          -0.4923    1.3776   30.3480 F       1  UNL1       -0.1659
@<TRIPOS>BOND
     1    21    22    1
     2    22    23    2
     3    22    24    2
     4    22    15    1
     5    15    16   ar
     6    16    17   ar
     7    17    18   ar
     8    18     7    1
     9     7     8    2
    10     7     9   am
    11     9    10    1
    12    10    11    1
    13    11    12    1
    14    12     1    1
    15     1     2   ar
    16     2     3   ar
    17     3     4   ar
    18     4    25    1
    19    25    26    2
    20    25    27   am
    21    27    29    1
    22    29    30    2
    23    29    31    1
    24     4     5   ar
    25     5     6   ar
    26     6    35    1
    27    35    36    1
    28    35    37    1
    29    35    38    1
    30    12    13    1
    31    13    14    1
    32    18    19   ar
    33    19    20   ar
    34    20    15   ar
    35    14     9    1
    36     6     1   ar
    37    27    28    1
    38    30    32    1
    39    31    33    1
    40    31    34    1
@<TRIPOS>MOLECULE
*****
 38 40 0 0 0
SMALL
GASTEIGER

@<TRIPOS>ATOM
      1 C           0.2674    2.4148   28.8134 C.ar    1  UNL1       -0.0185
      2 C           0.4742    3.8084   28.2986 C.ar    1  UNL1       -0.0041
      3 C          -0.4120    4.3468   27.2148 C.ar    1  UNL1        0.0057
      4 C          -1.5050    3.4915   26.6457 C.ar    1  UNL1        0.0696
      5 C          -1.7119    2.0979   27.1605 C.ar    1  UNL1        0.0095
      6 C          -0.8257    1.5596   28.2444 C.ar    1  UNL1        0.0677
      7 C           3.8122    0.2611   33.1489 C.2     1  UNL1        0.2490
      8 O           3.5942    0.6794   34.5728 O.2     1  UNL1       -0.2699
      9 N           2.9260    0.7995   32.0651 N.am    1  UNL1       -0.2761
     10 C           3.1439    0.3813   30.6411 C.3     1  UNL1        0.0940
     11 C           2.2577    0.9197   29.5573 C.3     1  UNL1        0.0259
     12 C           1.1536    1.8764   29.8973 C.3     1  UNL1        0.0257
     13 C           0.9356    2.2946   31.3212 C.3     1  UNL1        0.0259
     14 C           1.8218    1.7562   32.4052 C.3     1  UNL1        0.0940
     15 C           7.1246   -2.6088   32.1287 C.ar    1  UNL1        0.1057
     16 C           7.3751   -1.1304   32.0909 C.ar    1  UNL1        0.0185
     17 C           6.2709   -0.1737   32.4310 C.ar    1  UNL1        0.0058
     18 C           4.9163   -0.6955   32.8088 C.ar    1  UNL1        0.0537
     19 C           4.6659   -2.1740   32.8466 C.ar    1  UNL1        0.0058
     20 C           5.7701   -3.1306   32.5065 C.ar    1  UNL1        0.0185
     21 C           9.3330   -4.5221   31.4486 C.3     1  UNL1        0.1816
     22 S           8.2288   -3.5655   31.7886 S.O2    1  UNL1        0.0104
     23 O           9.2188   -2.6624   32.4626 O.2     1  UNL1       -0.1686
     24 O           7.2388   -4.4686   31.1147 O.2     1  UNL1       -0.1686
     25 C          -2.3912    4.0299   25.5618 C.2     1  UNL1        0.3078
     26 O          -1.8225    4.9323   24.5071 O.2     1  UNL1       -0.2516
     27 N          -3.8461    3.6660   25.5326 N.am    1  UNL1       -0.1708
     28 H          -4.2194    3.0737   26.2248 H       1  UNL1        0.2545
     29 C          -4.7322    4.2044   24.4487 C.2     1  UNL1        0.3751
     30 N          -5.4568    3.2613   23.5346 N.pl3   1  UNL1       -0.1313
     31 N          -4.8938    5.6860   24.2788 N.pl3   1  UNL1       -0.2906
     32 H          -5.3507    2.2889   23.6461 H       1  UNL1        0.3060
     33 H          -4.4183    6.3050   24.8787 H       1  UNL1        0.2545
     34 H          -5.4754    6.0394   23.5674 H       1  UNL1        0.2545
     35 C          -1.0325    0.1659   28.7592 C.3     1  UNL1        0.4183
     36 F          -1.2393   -1.2277   29.2740 F       1  UNL1       -0.1659
     37 F          -0.0716   -0.3560   27.7324 F       1  UNL1       -0.1659
     38 F          -1.9934    0.6877   29.7860 F       1  UNL1       -0.1659
@<TRIPOS>BOND
     1    21    22    1
     2    22    23    2
     3    22    24    2
     4    22    15    1
     5    15    16   ar
     6    16    17   ar
     7    17    18   ar
     8    18     7    1
     9     7     8    2
    10     7     9   am
    11     9    10    1
    12    10    11    1
    13    11    12    1
    14    12     1    1
    15     1     2   ar
    16     2     3   ar
    17     3     4   ar
    18     4    25    1
    19    25    26    2
    20    25    27   am
    21    27    29    1
    22    29    30    2
    23    29    31    1
    24     4     5   ar
    25     5     6   ar
    26     6    35    1
    27    35    36    1
    28    35    37    1
    29    35    38    1
    30    12    13    1
    31    13    14    1
    32    18    19   ar
    33    19    20   ar
    34    20    15   ar
    35    14     9    1
    36     6     1   ar
    37    27    28    1
    38    30    32    1
    39    31    33    1
    40    31    34    1
