@<TRIPOS>MOLECULE
*****
 37 42 0 0 0
SMALL
GASTEIGER

@<TRIPOS>ATOM
      1 C           4.1057   -1.6580   24.3228 C.3     1  UNL1        0.0749
      2 C           3.5059   -1.1087   23.0624 C.3     1  UNL1        0.0444
      3 C           3.7306   -1.8117   21.7566 C.ar    1  UNL1       -0.0101
      4 C           4.5551   -3.0639   21.7111 C.ar    1  UNL1       -0.0091
      5 C           4.7798   -3.7669   20.4051 C.ar    1  UNL1       -0.0032
      6 C           4.1800   -3.2176   19.1448 C.ar    1  UNL1        0.0010
      7 C           3.3555   -1.9653   19.1903 C.ar    1  UNL1        0.0142
      8 C           3.1308   -1.2624   20.4961 C.ar    1  UNL1        0.0436
      9 C           5.1549   -3.6132   22.9714 C.3     1  UNL1        0.0954
     10 N           4.9301   -2.9103   24.2773 N.3     1  UNL1       -0.2934
     11 H           5.8509   -2.6701   24.6446 H       1  UNL1        0.1236
     12 N           2.3064   -0.0101   20.5417 N.pl3   1  UNL1       -0.3049
     13 C           0.8089   -0.0975   20.5357 C.3     1  UNL1        0.1081
     14 C          -0.0156    1.1548   20.5812 C.3     1  UNL1        0.0941
     15 N           0.6574    2.4944   20.6327 N.3     1  UNL1       -0.2647
     16 C           2.1548    2.5817   20.6386 C.3     1  UNL1        0.0941
     17 C           2.9793    1.3294   20.5931 C.3     1  UNL1        0.1081
     18 C          -0.1671    3.7467   20.6782 C.3     1  UNL1        0.1187
     19 C          -1.6571    3.6586   20.8270 C.ar    1  UNL1        0.0752
     20 C          -2.2740    3.6307   22.1940 C.ar    1  UNL1        0.0161
     21 C          -3.7639    3.5426   22.3428 C.ar    1  UNL1        0.0028
     22 C          -4.6371    3.4824   21.1246 C.ar    1  UNL1        0.0207
     23 C          -4.0203    3.5103   19.7576 C.ar    1  UNL1        0.0985
     24 N          -2.5303    3.5984   19.6088 N.ar    1  UNL1       -0.2468
     25 C           3.8810   -0.9550   25.6287 C.3     1  UNL1        0.0886
     26 C           4.7258    1.4999   25.7271 C.3     1  UNL1        0.0899
     27 N           3.5951    0.5173   25.6485 N.3     1  UNL1       -0.2667
     28 C           2.1785    1.0071   25.5896 C.3     1  UNL1        0.0978
     29 C           1.6463    1.6125   24.3246 C.3     1  UNL1        0.0224
     30 C           0.2297    2.1023   24.2657 C.3     1  UNL1        0.0065
     31 C          -0.6546    1.9868   25.4718 C.3     1  UNL1        0.0277
     32 C          -0.1223    1.3814   26.7368 C.ar    1  UNL1       -0.0073
     33 C          -1.0066    1.2658   27.9429 C.ar    1  UNL1       -0.0015
     34 C          -0.4744    0.6604   29.2078 C.ar    1  UNL1        0.0203
     35 C           0.9422    0.1706   29.2667 C.ar    1  UNL1        0.0985
     36 N           1.8265    0.2862   28.0607 N.ar    1  UNL1       -0.2471
     37 C           1.2942    0.8915   26.7957 C.ar    1  UNL1        0.0695
@<TRIPOS>BOND
     1    26    27    1
     2    27    25    1
     3     1    25    1
     4     1     2    1
     5     2     3    1
     6     3     4   ar
     7     4     5   ar
     8     5     6   ar
     9     6     7   ar
    10     7     8   ar
    11     8    12    1
    12    12    13    1
    13    13    14    1
    14    14    15    1
    15    15    18    1
    16    18    19    1
    17    19    20   ar
    18    20    21   ar
    19    21    22   ar
    20    22    23   ar
    21    23    24   ar
    22    15    16    1
    23    16    17    1
    24     4     9    1
    25     9    10    1
    26    28    27    1
    27    28    29    1
    28    29    30    1
    29    30    31    1
    30    31    32    1
    31    32    33   ar
    32    33    34   ar
    33    34    35   ar
    34    35    36   ar
    35    36    37   ar
    36    10     1    1
    37    37    28    1
    38     8     3   ar
    39    17    12    1
    40    37    32   ar
    41    24    19   ar
    42    10    11    1
@<TRIPOS>MOLECULE
*****
 37 42 0 0 0
SMALL
GASTEIGER

@<TRIPOS>ATOM
      1 C           4.1316   -1.7432   24.0846 C.3     1  UNL1        0.0749
      2 C           3.5876   -1.2979   22.7596 C.3     1  UNL1        0.0444
      3 C           3.9388   -2.0537   21.5125 C.ar    1  UNL1       -0.0101
      4 C           4.8340   -3.2548   21.5904 C.ar    1  UNL1       -0.0091
      5 C           5.1852   -4.0106   20.3432 C.ar    1  UNL1       -0.0032
      6 C           4.6412   -3.5653   19.0181 C.ar    1  UNL1        0.0010
      7 C           3.7460   -2.3643   18.9402 C.ar    1  UNL1        0.0142
      8 C           3.3948   -1.6085   20.1874 C.ar    1  UNL1        0.0436
      9 C           5.3780   -3.7000   22.9154 C.3     1  UNL1        0.0954
     10 N           5.0268   -2.9442   24.1625 N.3     1  UNL1       -0.2934
     11 H           5.9058   -2.6302   24.5739 H       1  UNL1        0.1236
     12 N           2.4996   -0.4075   20.1095 N.pl3   1  UNL1       -0.3049
     13 C           3.0798    0.9420   19.8051 C.3     1  UNL1        0.1081
     14 C           2.1845    2.1430   19.7272 C.3     1  UNL1        0.0941
     15 N           0.7091    1.9946   19.9537 N.3     1  UNL1       -0.2647
     16 C           0.1290    0.6453   20.2580 C.3     1  UNL1        0.0941
     17 C           1.0242   -0.5558   20.3359 C.3     1  UNL1        0.1081
     18 C          -0.1861    3.1957   19.8758 C.3     1  UNL1        0.1187
     19 C          -0.1488    4.0817   18.6659 C.ar    1  UNL1        0.0752
     20 C          -0.8614    3.6694   17.4121 C.ar    1  UNL1        0.0161
     21 C          -0.8240    4.5554   16.2023 C.ar    1  UNL1        0.0028
     22 C          -0.0741    5.8537   16.2464 C.ar    1  UNL1        0.0207
     23 C           0.6385    6.2660   17.5002 C.ar    1  UNL1        0.0985
     24 N           0.6012    5.3800   18.7100 N.ar    1  UNL1       -0.2468
     25 C           3.7804   -0.9874   25.3319 C.3     1  UNL1        0.0886
     26 C           4.7261    1.4314   25.2608 C.3     1  UNL1        0.0899
     27 N           3.5549    0.4943   25.2725 N.3     1  UNL1       -0.2667
     28 C           2.1581    1.0390   25.2248 C.3     1  UNL1        0.0978
     29 C           1.6148    1.5991   23.9437 C.3     1  UNL1        0.0224
     30 C           0.2180    2.1438   23.8961 C.3     1  UNL1        0.0065
     31 C          -0.6355    2.1285   25.1294 C.3     1  UNL1        0.0277
     32 C          -0.0922    1.5684   26.4106 C.ar    1  UNL1       -0.0073
     33 C          -0.9457    1.5530   27.6439 C.ar    1  UNL1       -0.0015
     34 C          -0.4025    0.9930   28.9250 C.ar    1  UNL1        0.0203
     35 C           0.9943    0.4483   28.9727 C.ar    1  UNL1        0.0985
     36 N           1.8478    0.4636   27.7393 N.ar    1  UNL1       -0.2471
     37 C           1.3046    1.0237   26.4583 C.ar    1  UNL1        0.0695
@<TRIPOS>BOND
     1    26    27    1
     2    27    25    1
     3     1    25    1
     4     1     2    1
     5     2     3    1
     6     3     4   ar
     7     4     5   ar
     8     5     6   ar
     9     6     7   ar
    10     7     8   ar
    11     8    12    1
    12    12    13    1
    13    13    14    1
    14    14    15    1
    15    15    18    1
    16    18    19    1
    17    19    20   ar
    18    20    21   ar
    19    21    22   ar
    20    22    23   ar
    21    23    24   ar
    22    15    16    1
    23    16    17    1
    24     4     9    1
    25     9    10    1
    26    28    27    1
    27    28    29    1
    28    29    30    1
    29    30    31    1
    30    31    32    1
    31    32    33   ar
    32    33    34   ar
    33    34    35   ar
    34    35    36   ar
    35    36    37   ar
    36    10     1    1
    37    37    28    1
    38     8     3   ar
    39    17    12    1
    40    37    32   ar
    41    24    19   ar
    42    10    11    1
@<TRIPOS>MOLECULE
*****
 37 42 0 0 0
SMALL
GASTEIGER

@<TRIPOS>ATOM
      1 C           6.5985   -3.7925   24.6286 C.3     1  UNL1        0.0749
      2 C           7.1040   -4.2597   25.9613 C.3     1  UNL1        0.0444
      3 C           7.9056   -5.5238   26.0582 C.ar    1  UNL1       -0.0101
      4 C           8.2016   -6.3208   24.8224 C.ar    1  UNL1       -0.0091
      5 C           9.0033   -7.5849   24.9193 C.ar    1  UNL1       -0.0032
      6 C           9.5088   -8.0521   26.2520 C.ar    1  UNL1        0.0010
      7 C           9.2127   -7.2552   27.4878 C.ar    1  UNL1        0.0142
      8 C           8.4111   -5.9911   27.3909 C.ar    1  UNL1        0.0436
      9 C           7.6961   -5.8536   23.4897 C.3     1  UNL1        0.0954
     10 N           6.8945   -4.5895   23.3928 N.3     1  UNL1       -0.2934
     11 H           5.9953   -4.8417   22.9826 H       1  UNL1        0.1236
     12 N           8.1151   -5.1942   28.6268 N.pl3   1  UNL1       -0.3049
     13 C           7.0194   -5.6286   29.5547 C.3     1  UNL1        0.1081
     14 C           6.7233   -4.8316   30.7905 C.3     1  UNL1        0.0941
     15 N           7.5229   -3.6004   31.0984 N.3     1  UNL1       -0.2647
     16 C           8.6185   -3.1661   30.1705 C.3     1  UNL1        0.0941
     17 C           8.9146   -3.9630   28.9347 C.3     1  UNL1        0.1081
     18 C           7.2268   -2.8034   32.3342 C.3     1  UNL1        0.1187
     19 C           6.0014   -1.9404   32.3945 C.ar    1  UNL1        0.0752
     20 C           5.3630   -1.6356   33.7171 C.ar    1  UNL1        0.0161
     21 C           4.1376   -0.7727   33.7773 C.ar    1  UNL1        0.0028
     22 C           3.5506   -0.2145   32.5148 C.ar    1  UNL1        0.0207
     23 C           4.1890   -0.5193   31.1921 C.ar    1  UNL1        0.0985
     24 N           5.4144   -1.3823   31.1320 N.ar    1  UNL1       -0.2468
     25 C           5.7968   -2.5284   24.5317 C.3     1  UNL1        0.0886
     26 C           7.1854   -0.8915   23.0679 C.3     1  UNL1        0.0899
     27 N           5.9184   -1.6543   23.3188 N.3     1  UNL1       -0.2667
     28 C           4.7730   -1.5431   22.3566 C.3     1  UNL1        0.0978
     29 C           3.6925   -0.5294   22.5909 C.3     1  UNL1        0.0224
     30 C           2.5471   -0.4182   21.6288 C.3     1  UNL1        0.0065
     31 C           2.4822   -1.3206   20.4323 C.3     1  UNL1        0.0277
     32 C           3.5628   -2.3343   20.1980 C.ar    1  UNL1       -0.0073
     33 C           3.4980   -3.2366   19.0016 C.ar    1  UNL1       -0.0015
     34 C           4.5785   -4.2502   18.7673 C.ar    1  UNL1        0.0203
     35 C           5.7239   -4.3615   19.7294 C.ar    1  UNL1        0.0985
     36 N           5.7887   -3.4591   20.9259 N.ar    1  UNL1       -0.2471
     37 C           4.7082   -2.4455   21.1601 C.ar    1  UNL1        0.0695
@<TRIPOS>BOND
     1    26    27    1
     2    27    25    1
     3     1    25    1
     4     1     2    1
     5     2     3    1
     6     3     4   ar
     7     4     5   ar
     8     5     6   ar
     9     6     7   ar
    10     7     8   ar
    11     8    12    1
    12    12    13    1
    13    13    14    1
    14    14    15    1
    15    15    18    1
    16    18    19    1
    17    19    20   ar
    18    20    21   ar
    19    21    22   ar
    20    22    23   ar
    21    23    24   ar
    22    15    16    1
    23    16    17    1
    24     4     9    1
    25     9    10    1
    26    28    27    1
    27    28    29    1
    28    29    30    1
    29    30    31    1
    30    31    32    1
    31    32    33   ar
    32    33    34   ar
    33    34    35   ar
    34    35    36   ar
    35    36    37   ar
    36    10     1    1
    37    37    28    1
    38     8     3   ar
    39    17    12    1
    40    37    32   ar
    41    24    19   ar
    42    10    11    1
@<TRIPOS>MOLECULE
*****
 37 42 0 0 0
SMALL
GASTEIGER

@<TRIPOS>ATOM
      1 C           8.2247   -2.2194   20.7925 C.3     1  UNL1        0.0749
      2 C           7.4646   -2.2839   22.0840 C.3     1  UNL1        0.0444
      3 C           7.5430   -3.5134   22.9397 C.ar    1  UNL1       -0.0101
      4 C           8.3816   -4.6782   22.5040 C.ar    1  UNL1       -0.0091
      5 C           8.4600   -5.9077   23.3597 C.ar    1  UNL1       -0.0032
      6 C           7.6999   -5.9723   24.6512 C.ar    1  UNL1        0.0010
      7 C           6.8613   -4.8075   25.0870 C.ar    1  UNL1        0.0142
      8 C           6.7828   -3.5780   24.2313 C.ar    1  UNL1        0.0436
      9 C           9.1417   -4.6136   21.2125 C.3     1  UNL1        0.0954
     10 N           9.0633   -3.3842   20.3568 N.3     1  UNL1       -0.2934
     11 H           8.7067   -3.6802   19.4481 H       1  UNL1        0.1236
     12 N           5.9442   -2.4132   24.6670 N.pl3   1  UNL1       -0.3049
     13 C           4.5848   -2.2023   24.0690 C.3     1  UNL1        0.1081
     14 C           3.7462   -1.0375   24.5048 C.3     1  UNL1        0.0941
     15 N           4.2671   -0.0835   25.5386 N.3     1  UNL1       -0.2647
     16 C           5.6264   -0.2943   26.1366 C.3     1  UNL1        0.0941
     17 C           6.4650   -1.4592   25.7008 C.3     1  UNL1        0.1081
     18 C           3.4285    1.0814   25.9744 C.3     1  UNL1        0.1187
     19 C           2.1661    0.8481   26.7504 C.ar    1  UNL1        0.0752
     20 C           0.8695    1.4248   26.2644 C.ar    1  UNL1        0.0161
     21 C          -0.3927    1.1915   27.0404 C.ar    1  UNL1        0.0028
     22 C          -0.3584    0.3815   28.3024 C.ar    1  UNL1        0.0207
     23 C           0.9382   -0.1953   28.7884 C.ar    1  UNL1        0.0985
     24 N           2.2004    0.0381   28.0124 N.ar    1  UNL1       -0.2468
     25 C           8.1463   -0.9899   19.9368 C.3     1  UNL1        0.0886
     26 C           7.1780    0.0925   17.7824 C.3     1  UNL1        0.0899
     27 N           7.0231   -0.8294   18.9556 N.3     1  UNL1       -0.2667
     28 C           5.7451   -1.5908   19.1475 C.3     1  UNL1        0.0978
     29 C           5.6263   -2.9971   18.6395 C.3     1  UNL1        0.0224
     30 C           4.3483   -3.7585   18.8314 C.3     1  UNL1        0.0065
     31 C           3.1889   -3.1135   19.5313 C.3     1  UNL1        0.0277
     32 C           3.3076   -1.7071   20.0394 C.ar    1  UNL1       -0.0073
     33 C           2.1482   -1.0622   20.7392 C.ar    1  UNL1       -0.0015
     34 C           2.2670    0.3442   21.2472 C.ar    1  UNL1        0.0203
     35 C           3.5450    1.1055   21.0553 C.ar    1  UNL1        0.0985
     36 N           4.7044    0.4606   20.3554 N.ar    1  UNL1       -0.2471
     37 C           4.5857   -0.9457   19.8474 C.ar    1  UNL1        0.0695
@<TRIPOS>BOND
     1    26    27    1
     2    27    25    1
     3     1    25    1
     4     1     2    1
     5     2     3    1
     6     3     4   ar
     7     4     5   ar
     8     5     6   ar
     9     6     7   ar
    10     7     8   ar
    11     8    12    1
    12    12    13    1
    13    13    14    1
    14    14    15    1
    15    15    18    1
    16    18    19    1
    17    19    20   ar
    18    20    21   ar
    19    21    22   ar
    20    22    23   ar
    21    23    24   ar
    22    15    16    1
    23    16    17    1
    24     4     9    1
    25     9    10    1
    26    28    27    1
    27    28    29    1
    28    29    30    1
    29    30    31    1
    30    31    32    1
    31    32    33   ar
    32    33    34   ar
    33    34    35   ar
    34    35    36   ar
    35    36    37   ar
    36    10     1    1
    37    37    28    1
    38     8     3   ar
    39    17    12    1
    40    37    32   ar
    41    24    19   ar
    42    10    11    1
@<TRIPOS>MOLECULE
*****
 37 42 0 0 0
SMALL
GASTEIGER

@<TRIPOS>ATOM
      1 C           2.3627    0.1459   22.4227 C.3     1  UNL1        0.0749
      2 C           3.4545   -0.5971   21.7114 C.3     1  UNL1        0.0444
      3 C           3.5193   -0.5815   20.2129 C.ar    1  UNL1       -0.0101
      4 C           2.4922    0.1771   19.4257 C.ar    1  UNL1       -0.0091
      5 C           2.5570    0.1928   17.9271 C.ar    1  UNL1       -0.0032
      6 C           3.6488   -0.5502   17.2159 C.ar    1  UNL1        0.0010
      7 C           4.6758   -1.3088   18.0031 C.ar    1  UNL1        0.0142
      8 C           4.6111   -1.3245   19.5016 C.ar    1  UNL1        0.0436
      9 C           1.4005    0.9201   20.1370 C.3     1  UNL1        0.0954
     10 N           1.3357    0.9045   21.6355 N.3     1  UNL1       -0.2934
     11 H           0.4264    0.5166   21.8869 H       1  UNL1        0.1236
     12 N           5.6381   -2.0831   20.2888 N.pl3   1  UNL1       -0.3049
     13 C           5.3645   -3.4955   20.7138 C.3     1  UNL1        0.1081
     14 C           6.3916   -4.2541   21.5010 C.3     1  UNL1        0.0941
     15 N           7.6922   -3.6004   21.8632 N.3     1  UNL1       -0.2647
     16 C           7.9657   -2.1881   21.4383 C.3     1  UNL1        0.0941
     17 C           6.9386   -1.4295   20.6511 C.3     1  UNL1        0.1081
     18 C           8.7192   -4.3590   22.6505 C.3     1  UNL1        0.1187
     19 C           8.2891   -5.2764   23.7566 C.ar    1  UNL1        0.0752
     20 C           8.6354   -6.7347   23.6988 C.ar    1  UNL1        0.0161
     21 C           8.2053   -7.6520   24.8049 C.ar    1  UNL1        0.0028
     22 C           7.4288   -7.1111   25.9687 C.ar    1  UNL1        0.0207
     23 C           7.0825   -5.6528   26.0265 C.ar    1  UNL1        0.0985
     24 N           7.5126   -4.7355   24.9204 N.ar    1  UNL1       -0.2468
     25 C           2.2979    0.1302   23.9213 C.3     1  UNL1        0.0886
     26 C           3.3604    2.3906   24.6369 C.3     1  UNL1        0.0899
     27 N           2.2172    1.4205   24.6820 N.3     1  UNL1       -0.2667
     28 C           0.9932    1.7407   25.4878 C.3     1  UNL1        0.0978
     29 C           0.9351    1.3745   26.9412 C.3     1  UNL1        0.0224
     30 C          -0.2889    1.6947   27.7470 C.3     1  UNL1        0.0065
     31 C          -1.4548    2.3812   27.0994 C.3     1  UNL1        0.0277
     32 C          -1.3967    2.7474   25.6459 C.ar    1  UNL1       -0.0073
     33 C          -2.5626    3.4339   24.9983 C.ar    1  UNL1       -0.0015
     34 C          -2.5045    3.8002   23.5449 C.ar    1  UNL1        0.0203
     35 C          -1.2805    3.4799   22.7391 C.ar    1  UNL1        0.0985
     36 N          -0.1147    2.7935   23.3867 N.ar    1  UNL1       -0.2471
     37 C          -0.1727    2.4272   24.8401 C.ar    1  UNL1        0.0695
@<TRIPOS>BOND
     1    26    27    1
     2    27    25    1
     3     1    25    1
     4     1     2    1
     5     2     3    1
     6     3     4   ar
     7     4     5   ar
     8     5     6   ar
     9     6     7   ar
    10     7     8   ar
    11     8    12    1
    12    12    13    1
    13    13    14    1
    14    14    15    1
    15    15    18    1
    16    18    19    1
    17    19    20   ar
    18    20    21   ar
    19    21    22   ar
    20    22    23   ar
    21    23    24   ar
    22    15    16    1
    23    16    17    1
    24     4     9    1
    25     9    10    1
    26    28    27    1
    27    28    29    1
    28    29    30    1
    29    30    31    1
    30    31    32    1
    31    32    33   ar
    32    33    34   ar
    33    34    35   ar
    34    35    36   ar
    35    36    37   ar
    36    10     1    1
    37    37    28    1
    38     8     3   ar
    39    17    12    1
    40    37    32   ar
    41    24    19   ar
    42    10    11    1
@<TRIPOS>MOLECULE
*****
 37 42 0 0 0
SMALL
GASTEIGER

@<TRIPOS>ATOM
      1 C           4.0621   -1.6746   24.2458 C.3     1  UNL1        0.0749
      2 C           3.5023   -1.2041   22.9362 C.3     1  UNL1        0.0444
      3 C           3.8637   -1.9167   21.6667 C.ar    1  UNL1       -0.0101
      4 C           4.7849   -3.0998   21.7069 C.ar    1  UNL1       -0.0091
      5 C           5.1463   -3.8125   20.4374 C.ar    1  UNL1       -0.0032
      6 C           4.5864   -3.3420   19.1278 C.ar    1  UNL1        0.0010
      7 C           3.6652   -2.1589   19.0876 C.ar    1  UNL1        0.0142
      8 C           3.3038   -1.4463   20.3570 C.ar    1  UNL1        0.0436
      9 C           5.3447   -3.5703   23.0166 C.3     1  UNL1        0.0954
     10 N           4.9833   -2.8577   24.2860 N.3     1  UNL1       -0.2934
     11 H           5.8573   -2.5364   24.7023 H       1  UNL1        0.1236
     12 N           2.3826   -0.2632   20.3168 N.pl3   1  UNL1       -0.3049
     13 C           2.9457    1.1222   20.1995 C.3     1  UNL1        0.1081
     14 C           2.0245    2.3053   20.1593 C.3     1  UNL1        0.0941
     15 N           0.5401    2.1030   20.2364 N.3     1  UNL1       -0.2647
     16 C          -0.0229    0.7177   20.3537 C.3     1  UNL1        0.0941
     17 C           0.8983   -0.4654   20.3939 C.3     1  UNL1        0.1081
     18 C          -0.3811    3.2861   20.1962 C.3     1  UNL1        0.1187
     19 C          -1.5791    3.3348   21.0977 C.ar    1  UNL1        0.0752
     20 C          -1.4089    3.6465   22.5550 C.ar    1  UNL1        0.0161
     21 C          -2.6069    3.6952   23.4563 C.ar    1  UNL1        0.0028
     22 C          -3.9750    3.4322   22.9004 C.ar    1  UNL1        0.0207
     23 C          -4.1452    3.1205   21.4430 C.ar    1  UNL1        0.0985
     24 N          -2.9472    3.0718   20.5417 N.ar    1  UNL1       -0.2468
     25 C           3.7007   -0.9620   25.5153 C.3     1  UNL1        0.0886
     26 C           5.1356    1.0899   24.8216 C.3     1  UNL1        0.0899
     27 N           4.0962    0.4719   25.7092 N.3     1  UNL1       -0.2667
     28 C           3.4523    1.2878   26.7907 C.3     1  UNL1        0.0978
     29 C           4.2642    1.7539   27.9627 C.3     1  UNL1        0.0224
     30 C           3.6203    2.5698   29.0442 C.3     1  UNL1        0.0065
     31 C           2.1646    2.9197   28.9537 C.3     1  UNL1        0.0277
     32 C           1.3526    2.4537   27.7817 C.ar    1  UNL1       -0.0073
     33 C          -0.1032    2.8036   27.6913 C.ar    1  UNL1       -0.0015
     34 C          -0.9151    2.3375   26.5193 C.ar    1  UNL1        0.0203
     35 C          -0.2712    1.5216   25.4378 C.ar    1  UNL1        0.0985
     36 N           1.1845    1.1717   25.5282 N.ar    1  UNL1       -0.2471
     37 C           1.9964    1.6377   26.7002 C.ar    1  UNL1        0.0695
@<TRIPOS>BOND
     1    26    27    1
     2    27    25    1
     3     1    25    1
     4     1     2    1
     5     2     3    1
     6     3     4   ar
     7     4     5   ar
     8     5     6   ar
     9     6     7   ar
    10     7     8   ar
    11     8    12    1
    12    12    13    1
    13    13    14    1
    14    14    15    1
    15    15    18    1
    16    18    19    1
    17    19    20   ar
    18    20    21   ar
    19    21    22   ar
    20    22    23   ar
    21    23    24   ar
    22    15    16    1
    23    16    17    1
    24     4     9    1
    25     9    10    1
    26    28    27    1
    27    28    29    1
    28    29    30    1
    29    30    31    1
    30    31    32    1
    31    32    33   ar
    32    33    34   ar
    33    34    35   ar
    34    35    36   ar
    35    36    37   ar
    36    10     1    1
    37    37    28    1
    38     8     3   ar
    39    17    12    1
    40    37    32   ar
    41    24    19   ar
    42    10    11    1
@<TRIPOS>MOLECULE
*****
 37 42 0 0 0
SMALL
GASTEIGER

@<TRIPOS>ATOM
      1 C           4.2306   -1.9073   23.9863 C.3     1  UNL1        0.0749
      2 C           3.6357   -1.4228   22.6974 C.3     1  UNL1        0.0444
      3 C           3.9031   -2.1656   21.4220 C.ar    1  UNL1       -0.0101
      4 C           4.7654   -3.3929   21.4355 C.ar    1  UNL1       -0.0091
      5 C           5.0328   -4.1358   20.1600 C.ar    1  UNL1       -0.0032
      6 C           4.4379   -3.6513   18.8711 C.ar    1  UNL1        0.0010
      7 C           3.5756   -2.4240   18.8576 C.ar    1  UNL1        0.0142
      8 C           3.3082   -1.6812   20.1330 C.ar    1  UNL1        0.0436
      9 C           5.3603   -3.8774   22.7244 C.3     1  UNL1        0.0954
     10 N           5.0929   -3.1346   23.9998 N.3     1  UNL1       -0.2934
     11 H           5.9997   -2.8532   24.3724 H       1  UNL1        0.1236
     12 N           2.4459   -0.4539   20.1194 N.pl3   1  UNL1       -0.3049
     13 C           3.0448    0.8799   19.7839 C.3     1  UNL1        0.1081
     14 C           2.1825    2.1072   19.7704 C.3     1  UNL1        0.0941
     15 N           0.7213    2.0007   20.0924 N.3     1  UNL1       -0.2647
     16 C           0.1225    0.6671   20.4279 C.3     1  UNL1        0.0941
     17 C           0.9848   -0.5602   20.4414 C.3     1  UNL1        0.1081
     18 C          -0.1410    3.2280   20.0788 C.3     1  UNL1        0.1187
     19 C          -1.3462    3.3077   20.9683 C.ar    1  UNL1        0.0752
     20 C          -1.1840    3.6315   22.4239 C.ar    1  UNL1        0.0161
     21 C          -2.3892    3.7111   23.3133 C.ar    1  UNL1        0.0028
     22 C          -3.7566    3.4670   22.7471 C.ar    1  UNL1        0.0207
     23 C          -3.9188    3.1432   21.2916 C.ar    1  UNL1        0.0985
     24 N          -2.7136    3.0635   20.4022 N.ar    1  UNL1       -0.2468
     25 C           3.9632   -1.1644   25.2618 C.3     1  UNL1        0.0886
     26 C           6.0105    0.4269   25.4244 C.3     1  UNL1        0.0899
     27 N           5.1040   -0.5918   26.0495 N.3     1  UNL1       -0.2667
     28 C           5.3385   -1.0378   27.4623 C.3     1  UNL1        0.0978
     29 C           4.8360   -0.2057   28.6047 C.3     1  UNL1        0.0224
     30 C           5.0705   -0.6518   30.0175 C.3     1  UNL1        0.0065
     31 C           5.8074   -1.9299   30.2880 C.3     1  UNL1        0.0277
     32 C           6.3099   -2.7621   29.1456 C.ar    1  UNL1       -0.0073
     33 C           7.0469   -4.0403   29.4160 C.ar    1  UNL1       -0.0015
     34 C           7.5493   -4.8724   28.2736 C.ar    1  UNL1        0.0203
     35 C           7.3149   -4.4264   26.8608 C.ar    1  UNL1        0.0985
     36 N           6.5779   -3.1482   26.5904 N.ar    1  UNL1       -0.2471
     37 C           6.0755   -2.3161   27.7327 C.ar    1  UNL1        0.0695
@<TRIPOS>BOND
     1    26    27    1
     2    27    25    1
     3     1    25    1
     4     1     2    1
     5     2     3    1
     6     3     4   ar
     7     4     5   ar
     8     5     6   ar
     9     6     7   ar
    10     7     8   ar
    11     8    12    1
    12    12    13    1
    13    13    14    1
    14    14    15    1
    15    15    18    1
    16    18    19    1
    17    19    20   ar
    18    20    21   ar
    19    21    22   ar
    20    22    23   ar
    21    23    24   ar
    22    15    16    1
    23    16    17    1
    24     4     9    1
    25     9    10    1
    26    28    27    1
    27    28    29    1
    28    29    30    1
    29    30    31    1
    30    31    32    1
    31    32    33   ar
    32    33    34   ar
    33    34    35   ar
    34    35    36   ar
    35    36    37   ar
    36    10     1    1
    37    37    28    1
    38     8     3   ar
    39    17    12    1
    40    37    32   ar
    41    24    19   ar
    42    10    11    1
@<TRIPOS>MOLECULE
*****
 37 42 0 0 0
SMALL
GASTEIGER

@<TRIPOS>ATOM
      1 C           1.6718    1.0929   25.9175 C.3     1  UNL1        0.0749
      2 C           1.3662    1.2688   24.4596 C.3     1  UNL1        0.0444
      3 C           0.2081    2.1217   24.0337 C.ar    1  UNL1       -0.0101
      4 C          -0.6443    2.7987   25.0657 C.ar    1  UNL1       -0.0091
      5 C          -1.8024    3.6516   24.6398 C.ar    1  UNL1       -0.0032
      6 C          -2.1080    3.8275   23.1818 C.ar    1  UNL1        0.0010
      7 C          -1.2557    3.1504   22.1498 C.ar    1  UNL1        0.0142
      8 C          -0.0976    2.2975   22.5757 C.ar    1  UNL1        0.0436
      9 C          -0.3386    2.6229   26.5237 C.3     1  UNL1        0.0954
     10 N           0.8195    1.7700   26.9496 N.3     1  UNL1       -0.2934
     11 H           0.4400    1.0349   27.5463 H       1  UNL1        0.1236
     12 N           0.7547    1.6205   21.5437 N.pl3   1  UNL1       -0.3049
     13 C           2.1197    2.1572   21.2288 C.3     1  UNL1        0.1081
     14 C           2.9720    1.4801   20.1968 C.3     1  UNL1        0.0941
     15 N           2.4595    0.2664   19.4797 N.3     1  UNL1       -0.2647
     16 C           1.0946   -0.2702   19.7945 C.3     1  UNL1        0.0941
     17 C           0.2423    0.4068   20.8266 C.3     1  UNL1        0.1081
     18 C           3.3119   -0.4107   18.4476 C.3     1  UNL1        0.1187
     19 C           3.9271   -1.7466   18.7422 C.ar    1  UNL1        0.0752
     20 C           5.4190   -1.9018   18.7414 C.ar    1  UNL1        0.0161
     21 C           6.0342   -3.2377   19.0359 C.ar    1  UNL1        0.0028
     22 C           5.1575   -4.4185   19.3312 C.ar    1  UNL1        0.0207
     23 C           3.6656   -4.2633   19.3320 C.ar    1  UNL1        0.0985
     24 N           3.0504   -2.9274   19.0375 N.ar    1  UNL1       -0.2468
     25 C           2.8299    0.2400   26.3435 C.3     1  UNL1        0.0886
     26 C           5.0560    1.3556   25.6018 C.3     1  UNL1        0.0899
     27 N           4.0850    0.2150   25.5224 N.3     1  UNL1       -0.2667
     28 C           4.3690   -0.9505   24.6220 C.3     1  UNL1        0.0978
     29 C           3.6856   -1.0538   23.2907 C.3     1  UNL1        0.0224
     30 C           3.9697   -2.2194   22.3903 C.3     1  UNL1        0.0065
     31 C           4.9372   -3.2816   22.8210 C.3     1  UNL1        0.0277
     32 C           5.6207   -3.1783   24.1523 C.ar    1  UNL1       -0.0073
     33 C           6.5882   -4.2406   24.5831 C.ar    1  UNL1       -0.0015
     34 C           7.2716   -4.1372   25.9143 C.ar    1  UNL1        0.0203
     35 C           6.9875   -2.9717   26.8148 C.ar    1  UNL1        0.0985
     36 N           6.0200   -1.9095   26.3840 N.ar    1  UNL1       -0.2471
     37 C           5.3366   -2.0128   25.0528 C.ar    1  UNL1        0.0695
@<TRIPOS>BOND
     1    26    27    1
     2    27    25    1
     3     1    25    1
     4     1     2    1
     5     2     3    1
     6     3     4   ar
     7     4     5   ar
     8     5     6   ar
     9     6     7   ar
    10     7     8   ar
    11     8    12    1
    12    12    13    1
    13    13    14    1
    14    14    15    1
    15    15    18    1
    16    18    19    1
    17    19    20   ar
    18    20    21   ar
    19    21    22   ar
    20    22    23   ar
    21    23    24   ar
    22    15    16    1
    23    16    17    1
    24     4     9    1
    25     9    10    1
    26    28    27    1
    27    28    29    1
    28    29    30    1
    29    30    31    1
    30    31    32    1
    31    32    33   ar
    32    33    34   ar
    33    34    35   ar
    34    35    36   ar
    35    36    37   ar
    36    10     1    1
    37    37    28    1
    38     8     3   ar
    39    17    12    1
    40    37    32   ar
    41    24    19   ar
    42    10    11    1
@<TRIPOS>MOLECULE
*****
 37 42 0 0 0
SMALL
GASTEIGER

@<TRIPOS>ATOM
      1 C           1.1988    1.0471   22.9370 C.3     1  UNL1        0.0749
      2 C           0.8632    1.2942   24.3779 C.3     1  UNL1        0.0444
      3 C          -0.2377    2.2468   24.7388 C.ar    1  UNL1       -0.0101
      4 C          -1.0031    2.9524   23.6588 C.ar    1  UNL1       -0.0091
      5 C          -2.1041    3.9051   24.0197 C.ar    1  UNL1       -0.0032
      6 C          -2.4397    4.1522   25.4606 C.ar    1  UNL1        0.0010
      7 C          -1.6744    3.4466   26.5406 C.ar    1  UNL1        0.0142
      8 C          -0.5734    2.4940   26.1797 C.ar    1  UNL1        0.0436
      9 C          -0.6675    2.7053   22.2178 C.3     1  UNL1        0.0954
     10 N           0.4335    1.7526   21.8570 N.3     1  UNL1       -0.2934
     11 H           1.1139    2.2819   21.3116 H       1  UNL1        0.1236
     12 N           0.1919    1.7884   27.2598 N.pl3   1  UNL1       -0.3049
     13 C           1.5355    2.3024   27.6851 C.3     1  UNL1        0.1081
     14 C           2.3008    1.5969   28.7651 C.3     1  UNL1        0.0941
     15 N           1.7226    0.3773   29.4198 N.3     1  UNL1       -0.2647
     16 C           0.3792   -0.1366   28.9945 C.3     1  UNL1        0.0941
     17 C          -0.3862    0.5690   27.9145 C.3     1  UNL1        0.1081
     18 C           2.4880   -0.3282   30.4998 C.3     1  UNL1        0.1187
     19 C           2.7274    0.3512   31.8156 C.ar    1  UNL1        0.0752
     20 C           3.8667   -0.0848   32.6884 C.ar    1  UNL1        0.0161
     21 C           4.1061    0.5945   34.0042 C.ar    1  UNL1        0.0028
     22 C           3.2061    1.7098   34.4471 C.ar    1  UNL1        0.0207
     23 C           2.0668    2.1458   33.5742 C.ar    1  UNL1        0.0985
     24 N           1.8274    1.4664   32.2585 N.ar    1  UNL1       -0.2468
     25 C           2.2999    0.0944   22.5760 C.3     1  UNL1        0.0886
     26 C           4.4071    1.5774   22.2439 C.3     1  UNL1        0.0899
     27 N           3.4410    0.5569   21.7194 N.3     1  UNL1       -0.2667
     28 C           3.6161   -0.0012   20.3381 C.3     1  UNL1        0.0978
     29 C           3.1818    0.7983   19.1456 C.3     1  UNL1        0.0224
     30 C           3.3569    0.2402   17.7643 C.3     1  UNL1        0.0065
     31 C           3.9662   -1.1174   17.5756 C.3     1  UNL1        0.0277
     32 C           4.4005   -1.9169   18.7681 C.ar    1  UNL1       -0.0073
     33 C           5.0099   -3.2745   18.5794 C.ar    1  UNL1       -0.0015
     34 C           5.4441   -4.0740   19.7719 C.ar    1  UNL1        0.0203
     35 C           5.2690   -3.5159   21.1532 C.ar    1  UNL1        0.0985
     36 N           4.6597   -2.1584   21.3419 N.ar    1  UNL1       -0.2471
     37 C           4.2254   -1.3589   20.1494 C.ar    1  UNL1        0.0695
@<TRIPOS>BOND
     1    26    27    1
     2    27    25    1
     3     1    25    1
     4     1     2    1
     5     2     3    1
     6     3     4   ar
     7     4     5   ar
     8     5     6   ar
     9     6     7   ar
    10     7     8   ar
    11     8    12    1
    12    12    13    1
    13    13    14    1
    14    14    15    1
    15    15    18    1
    16    18    19    1
    17    19    20   ar
    18    20    21   ar
    19    21    22   ar
    20    22    23   ar
    21    23    24   ar
    22    15    16    1
    23    16    17    1
    24     4     9    1
    25     9    10    1
    26    28    27    1
    27    28    29    1
    28    29    30    1
    29    30    31    1
    30    31    32    1
    31    32    33   ar
    32    33    34   ar
    33    34    35   ar
    34    35    36   ar
    35    36    37   ar
    36    10     1    1
    37    37    28    1
    38     8     3   ar
    39    17    12    1
    40    37    32   ar
    41    24    19   ar
    42    10    11    1
