@<TRIPOS>MOLECULE
*****
 37 42 0 0 0
SMALL
GASTEIGER

@<TRIPOS>ATOM
      1 C          -0.9185    3.0113   22.3213 C.3     1  UNL1        0.1023
      2 C          -2.3312    3.3277   21.9283 C.2     1  UNL1       -0.0217
      3 C          -2.7273    3.3180   20.4817 C.2     1  UNL1       -0.0050
      4 C          -4.1400    3.6343   20.0887 C.2     1  UNL1        0.0201
      5 C          -5.1564    3.9605   21.1425 C.2     1  UNL1        0.1007
      6 N          -6.6126    4.3102   21.0583 N.2     1  UNL1       -0.1482
      7 N          -7.1164    4.5362   22.4530 N.2     1  UNL1       -0.1467
      8 C          -5.9716    4.3260   23.3991 C.2     1  UNL1        0.1197
      9 C          -4.7602    3.9702   22.5892 C.2     1  UNL1        0.0216
     10 C          -3.3476    3.6538   22.9821 C.3     1  UNL1        0.0466
     11 C          -2.9514    3.6636   24.4288 C.3     1  UNL1        0.0245
     12 C          -1.5388    3.3472   24.8217 C.3     1  UNL1        0.0588
     13 C          -1.1427    3.3569   26.2685 C.3     1  UNL1        0.0174
     14 N          -0.5224    3.0211   23.7679 N.3     1  UNL1       -0.2661
     15 C           1.0009    3.7597   20.7384 C.ar    1  UNL1        0.1375
     16 C           2.0174    3.4336   19.6845 C.ar    1  UNL1        0.0509
     17 C           2.1309    2.0331   19.1599 C.ar    1  UNL1        0.0477
     18 C           1.2278    0.9584   19.6889 C.ar    1  UNL1        0.0142
     19 C           0.2114    1.2845   20.7427 C.ar    1  UNL1        0.0016
     20 C           0.0979    2.6852   21.2675 C.ar    1  UNL1        0.0301
     21 C           1.9959    5.7444   22.0879 C.3     1  UNL1        0.2525
     22 O           0.8875    5.1604   21.2631 O.3     1  UNL1       -0.4716
     23 N           3.1473    1.7069   18.1061 N.pl3   1  UNL1       -0.3317
     24 H           3.3573    2.3648   17.4043 H       1  UNL1        0.1468
     25 C           3.8438    0.3785   18.1214 C.3     1  UNL1        0.1014
     26 C           3.9192   -0.7905   17.1845 C.3     1  UNL1        0.0933
     27 N           4.8288   -1.5001   18.1431 N.3     1  UNL1       -0.2697
     28 C           4.7534   -0.3311   19.0800 C.3     1  UNL1        0.0933
     29 C           5.5254   -2.8285   18.1585 C.3     1  UNL1        0.0751
     30 C           5.0446   -3.9168   19.0719 C.3     1  UNL1        0.0554
     31 C           3.6270   -3.9127   19.5623 C.3     1  UNL1        0.1947
     32 F           2.5543   -4.5894   18.7614 F       1  UNL1       -0.2343
     33 C           0.8903    2.7047   24.1609 C.3     1  UNL1        0.1054
     34 C           1.3673    1.2826   24.1642 C.3     1  UNL1        0.1486
     35 F           0.1476    0.6000   24.7087 F       1  UNL1       -0.2386
     36 C           2.2679    0.0975   23.9785 C.3     1  UNL1        0.0368
     37 C           2.7526    1.4713   23.6209 C.3     1  UNL1        0.0368
@<TRIPOS>BOND
     1    21    22    1
     2    22    15    1
     3    15    16   ar
     4    16    17   ar
     5    17    23    1
     6    23    25    1
     7    25    26    1
     8    26    27    1
     9    27    29    1
    10    29    30    1
    11    30    31    1
    12    31    32    1
    13    27    28    1
    14    17    18   ar
    15    18    19   ar
    16    19    20   ar
    17     1    20    1
    18     1     2    1
    19     2     3    2
    20     3     4    1
    21     4     5    2
    22     5     6    1
    23     6     7    2
    24     7     8    1
    25     8     9    2
    26     9    10    1
    27    10    11    1
    28    11    12    1
    29    12    13    1
    30    12    14    1
    31    14    33    1
    32    33    34    1
    33    34    35    1
    34    34    36    1
    35    36    37    1
    36    20    15   ar
    37    14     1    1
    38    37    34    1
    39    28    25    1
    40    10     2    1
    41     9     5    1
    42    23    24    1
@<TRIPOS>MOLECULE
*****
 37 42 0 0 0
SMALL
GASTEIGER

@<TRIPOS>ATOM
      1 C           3.6291   -1.2855   21.2934 C.3     1  UNL1        0.1023
      2 C           3.9905   -1.4122   22.7437 C.2     1  UNL1       -0.0217
      3 C           3.3412   -0.5195   23.7592 C.2     1  UNL1       -0.0050
      4 C           3.7025   -0.6462   25.2096 C.2     1  UNL1        0.0201
      5 C           4.7132   -1.6658   25.6443 C.2     1  UNL1        0.1007
      6 N           5.2659   -2.0193   26.9932 N.2     1  UNL1       -0.1482
      7 N           6.2568   -3.1306   26.8113 N.2     1  UNL1       -0.1467
      8 C           6.3165   -3.4639   25.3500 C.2     1  UNL1        0.1197
      9 C           5.3625   -2.5586   24.6287 C.2     1  UNL1        0.0216
     10 C           5.0011   -2.4318   23.1785 C.3     1  UNL1        0.0466
     11 C           5.6504   -3.3246   22.1629 C.3     1  UNL1        0.0245
     12 C           5.2890   -3.1979   20.7126 C.3     1  UNL1        0.0588
     13 C           5.9384   -4.0907   19.6972 C.3     1  UNL1        0.0174
     14 N           4.2784   -2.1783   20.2779 N.3     1  UNL1       -0.2661
     15 C           3.0631    1.1138   20.4732 C.ar    1  UNL1        0.1375
     16 C           2.0524    2.1334   20.0384 C.ar    1  UNL1        0.0509
     17 C           0.5972    1.7733   19.9891 C.ar    1  UNL1        0.0477
     18 C           0.1524    0.3935   20.3746 C.ar    1  UNL1        0.0142
     19 C           1.1631   -0.6261   20.8093 C.ar    1  UNL1        0.0016
     20 C           2.6185   -0.2660   20.8586 C.ar    1  UNL1        0.0301
     21 C           5.0521    2.5619   19.6385 C.3     1  UNL1        0.2525
     22 O           4.5184    1.4740   20.5225 O.3     1  UNL1       -0.4716
     23 N          -0.4135    2.7929   19.5544 N.pl3   1  UNL1       -0.3317
     24 H          -0.3349    3.2178   18.6698 H       1  UNL1        0.1468
     25 C          -1.5439    3.1650   20.4674 C.3     1  UNL1        0.1014
     26 C          -1.6542    3.5776   21.9053 C.3     1  UNL1        0.0933
     27 N          -3.1426    3.6913   21.7586 N.3     1  UNL1       -0.2697
     28 C          -3.0324    3.2788   20.3207 C.3     1  UNL1        0.0933
     29 C          -4.2731    4.0635   22.6716 C.3     1  UNL1        0.0751
     30 C          -4.6751    3.1395   23.7827 C.3     1  UNL1        0.0554
     31 C          -5.1522    3.7007   25.0894 C.3     1  UNL1        0.1947
     32 F          -4.3182    3.5368   26.3253 F       1  UNL1       -0.2343
     33 C           3.9170   -2.0516   18.8275 C.3     1  UNL1        0.1054
     34 C           4.5909   -1.0183   17.9742 C.3     1  UNL1        0.1486
     35 F           5.8577   -0.8230   18.7532 F       1  UNL1       -0.2386
     36 C           4.8248   -0.0529   16.8503 C.3     1  UNL1        0.0368
     37 C           3.5580   -0.8548   16.8988 C.3     1  UNL1        0.0368
@<TRIPOS>BOND
     1    21    22    1
     2    22    15    1
     3    15    16   ar
     4    16    17   ar
     5    17    23    1
     6    23    25    1
     7    25    26    1
     8    26    27    1
     9    27    29    1
    10    29    30    1
    11    30    31    1
    12    31    32    1
    13    27    28    1
    14    17    18   ar
    15    18    19   ar
    16    19    20   ar
    17     1    20    1
    18     1     2    1
    19     2     3    2
    20     3     4    1
    21     4     5    2
    22     5     6    1
    23     6     7    2
    24     7     8    1
    25     8     9    2
    26     9    10    1
    27    10    11    1
    28    11    12    1
    29    12    13    1
    30    12    14    1
    31    14    33    1
    32    33    34    1
    33    34    35    1
    34    34    36    1
    35    36    37    1
    36    20    15   ar
    37    14     1    1
    38    37    34    1
    39    28    25    1
    40    10     2    1
    41     9     5    1
    42    23    24    1
@<TRIPOS>MOLECULE
*****
 37 42 0 0 0
SMALL
GASTEIGER

@<TRIPOS>ATOM
      1 C           3.7200   -0.7938   21.7805 C.3     1  UNL1        0.1023
      2 C           2.8179   -0.0410   22.7131 C.2     1  UNL1       -0.0217
      3 C           2.9916   -0.1764   24.1968 C.2     1  UNL1       -0.0050
      4 C           2.0895    0.5764   25.1294 C.2     1  UNL1        0.0201
      5 C           1.0137    1.4644   24.5781 C.2     1  UNL1        0.1007
      6 N          -0.0187    2.3236   25.2460 N.2     1  UNL1       -0.1482
      7 N          -0.8305    2.9898   24.1750 N.2     1  UNL1       -0.1467
      8 C          -0.2999    2.5425   22.8452 C.2     1  UNL1        0.1197
      9 C           0.8399    1.5997   23.0944 C.2     1  UNL1        0.0216
     10 C           1.7420    0.8470   22.1619 C.3     1  UNL1        0.0466
     11 C           1.5683    0.9823   20.6781 C.3     1  UNL1        0.0245
     12 C           2.4704    0.2296   19.7456 C.3     1  UNL1        0.0588
     13 C           2.2965    0.3649   18.2618 C.3     1  UNL1        0.0174
     14 N           3.5462   -0.6585   20.2969 N.3     1  UNL1       -0.2661
     15 C           6.1753   -1.1376   22.5569 C.ar    1  UNL1        0.1375
     16 C           7.2513   -2.0257   23.1082 C.ar    1  UNL1        0.0509
     17 C           6.9477   -3.4579   23.4343 C.ar    1  UNL1        0.0477
     18 C           5.5681   -4.0022   23.2091 C.ar    1  UNL1        0.0142
     19 C           4.4923   -3.1142   22.6579 C.ar    1  UNL1        0.0016
     20 C           4.7958   -1.6818   22.3318 C.ar    1  UNL1        0.0301
     21 C           6.4334    1.3355   23.3100 C.3     1  UNL1        0.2525
     22 O           6.4790    0.2947   22.2309 O.3     1  UNL1       -0.4716
     23 N           8.0235   -4.3459   23.9855 N.pl3   1  UNL1       -0.3317
     24 H           8.7966   -4.5880   23.4261 H       1  UNL1        0.1468
     25 C           7.9215   -4.8651   25.3891 C.3     1  UNL1        0.1014
     26 C           7.0490   -5.8640   26.0898 C.3     1  UNL1        0.0933
     27 N           7.7772   -5.5993   27.3741 N.3     1  UNL1       -0.2697
     28 C           8.6497   -4.6003   26.6735 C.3     1  UNL1        0.0933
     29 C           7.6753   -6.1184   28.7778 C.3     1  UNL1        0.0751
     30 C           6.8263   -5.3990   29.7836 C.3     1  UNL1        0.0554
     31 C           6.9995   -5.6772   31.2473 C.3     1  UNL1        0.1947
     32 F           6.5740   -4.6561   32.2604 F       1  UNL1       -0.2343
     33 C           4.4483   -1.4112   19.3643 C.3     1  UNL1        0.1054
     34 C           4.2159   -2.8713   19.1116 C.3     1  UNL1        0.1486
     35 F           2.7802   -2.9831   19.5314 F       1  UNL1       -0.2386
     36 C           4.4821   -4.2928   18.7132 C.3     1  UNL1        0.0368
     37 C           5.5709   -3.2668   18.6041 C.3     1  UNL1        0.0368
@<TRIPOS>BOND
     1    21    22    1
     2    22    15    1
     3    15    16   ar
     4    16    17   ar
     5    17    23    1
     6    23    25    1
     7    25    26    1
     8    26    27    1
     9    27    29    1
    10    29    30    1
    11    30    31    1
    12    31    32    1
    13    27    28    1
    14    17    18   ar
    15    18    19   ar
    16    19    20   ar
    17     1    20    1
    18     1     2    1
    19     2     3    2
    20     3     4    1
    21     4     5    2
    22     5     6    1
    23     6     7    2
    24     7     8    1
    25     8     9    2
    26     9    10    1
    27    10    11    1
    28    11    12    1
    29    12    13    1
    30    12    14    1
    31    14    33    1
    32    33    34    1
    33    34    35    1
    34    34    36    1
    35    36    37    1
    36    20    15   ar
    37    14     1    1
    38    37    34    1
    39    28    25    1
    40    10     2    1
    41     9     5    1
    42    23    24    1
@<TRIPOS>MOLECULE
*****
 37 42 0 0 0
SMALL
GASTEIGER

@<TRIPOS>ATOM
      1 C           5.8047   -1.6198   30.9606 C.3     1  UNL1        0.1023
      2 C           6.3729   -2.9542   30.5775 C.2     1  UNL1       -0.0217
      3 C           6.8598   -3.8949   31.6394 C.2     1  UNL1       -0.0050
      4 C           7.4280   -5.2293   31.2563 C.2     1  UNL1        0.0201
      5 C           7.5093   -5.6227   29.8111 C.2     1  UNL1        0.1007
      6 N           8.0163   -6.8622   29.1354 N.2     1  UNL1       -0.1482
      7 N           7.8429   -6.6874   27.6558 N.2     1  UNL1       -0.1467
      8 C           7.2286   -5.3399   27.4170 C.2     1  UNL1        0.1197
      9 C           7.0224   -4.6819   28.7491 C.2     1  UNL1        0.0216
     10 C           6.4542   -3.3476   29.1323 C.3     1  UNL1        0.0466
     11 C           5.9673   -2.4068   28.0703 C.3     1  UNL1        0.0245
     12 C           5.3992   -1.0725   28.4534 C.3     1  UNL1        0.0588
     13 C           4.9123   -0.1318   27.3914 C.3     1  UNL1        0.0174
     14 N           5.3179   -0.6790   29.8986 N.3     1  UNL1       -0.2661
     15 C           6.8574   -0.4812   33.0451 C.ar    1  UNL1        0.1375
     16 C           6.7761   -0.0876   34.4903 C.ar    1  UNL1        0.0509
     17 C           5.5609   -0.4393   35.2962 C.ar    1  UNL1        0.0477
     18 C           4.4268   -1.1844   34.6568 C.ar    1  UNL1        0.0142
     19 C           4.5081   -1.5779   33.2117 C.ar    1  UNL1        0.0016
     20 C           5.7234   -1.2263   32.4057 C.ar    1  UNL1        0.0301
     21 C           8.2050    1.2391   31.6399 C.3     1  UNL1        0.2525
     22 O           8.0727   -0.1295   32.2392 O.3     1  UNL1       -0.4716
     23 N           5.4796   -0.0458   36.7413 N.pl3   1  UNL1       -0.3317
     24 H           6.1589   -0.3664   37.3778 H       1  UNL1        0.1468
     25 C           4.3634    0.8363   37.2168 C.3     1  UNL1        0.1014
     26 C           3.4926    1.8800   36.5825 C.3     1  UNL1        0.0933
     27 N           2.7849    2.0837   37.8893 N.3     1  UNL1       -0.2697
     28 C           3.6558    1.0400   38.5236 C.3     1  UNL1        0.0933
     29 C           1.6687    2.9658   38.3649 C.3     1  UNL1        0.0751
     30 C           0.4666    2.3621   39.0286 C.3     1  UNL1        0.0554
     31 C           0.5703    1.8295   40.4271 C.3     1  UNL1        0.1947
     32 F           0.4962    2.7684   41.5946 F       1  UNL1       -0.2343
     33 C           4.7497    0.6553   30.2817 C.3     1  UNL1        0.1054
     34 C           3.3518    0.7494   30.8174 C.3     1  UNL1        0.1486
     35 F           2.7092   -0.3802   30.0684 F       1  UNL1       -0.2386
     36 C           2.1770    1.2358   31.6131 C.3     1  UNL1        0.0368
     37 C           3.5089    1.9118   31.7524 C.3     1  UNL1        0.0368
@<TRIPOS>BOND
     1    21    22    1
     2    22    15    1
     3    15    16   ar
     4    16    17   ar
     5    17    23    1
     6    23    25    1
     7    25    26    1
     8    26    27    1
     9    27    29    1
    10    29    30    1
    11    30    31    1
    12    31    32    1
    13    27    28    1
    14    17    18   ar
    15    18    19   ar
    16    19    20   ar
    17     1    20    1
    18     1     2    1
    19     2     3    2
    20     3     4    1
    21     4     5    2
    22     5     6    1
    23     6     7    2
    24     7     8    1
    25     8     9    2
    26     9    10    1
    27    10    11    1
    28    11    12    1
    29    12    13    1
    30    12    14    1
    31    14    33    1
    32    33    34    1
    33    34    35    1
    34    34    36    1
    35    36    37    1
    36    20    15   ar
    37    14     1    1
    38    37    34    1
    39    28    25    1
    40    10     2    1
    41     9     5    1
    42    23    24    1
@<TRIPOS>MOLECULE
*****
 37 42 0 0 0
SMALL
GASTEIGER

@<TRIPOS>ATOM
      1 C           4.3382    0.0530   33.4939 C.3     1  UNL1        0.1023
      2 C           4.3191    0.5421   34.9119 C.2     1  UNL1       -0.0217
      3 C           5.2814   -0.0240   35.9135 C.2     1  UNL1       -0.0050
      4 C           5.2623    0.4651   37.3315 C.2     1  UNL1        0.0201
      5 C           4.2808    1.5202   37.7477 C.2     1  UNL1        0.1007
      6 N           4.0287    2.1932   39.0643 N.2     1  UNL1       -0.1482
      7 N           2.9105    3.1751   38.8764 N.2     1  UNL1       -0.1467
      8 C           2.4715    3.1091   37.4436 C.2     1  UNL1        0.1197
      9 C           3.3184    2.0863   36.7460 C.2     1  UNL1        0.0216
     10 C           3.3375    1.5972   35.3281 C.3     1  UNL1        0.0466
     11 C           2.3751    2.1633   34.3264 C.3     1  UNL1        0.0245
     12 C           2.3943    1.6742   32.9085 C.3     1  UNL1        0.0588
     13 C           1.4318    2.2403   31.9069 C.3     1  UNL1        0.0174
     14 N           3.3758    0.6191   32.4923 N.3     1  UNL1       -0.2661
     15 C           6.7223   -0.6183   32.7096 C.ar    1  UNL1        0.1375
     16 C           7.7039   -1.6735   32.2933 C.ar    1  UNL1        0.0509
     17 C           7.2830   -3.1123   32.2452 C.ar    1  UNL1        0.0477
     18 C           5.8803   -3.4962   32.6134 C.ar    1  UNL1        0.0142
     19 C           4.8988   -2.4411   33.0296 C.ar    1  UNL1        0.0016
     20 C           5.3197   -1.0021   33.0777 C.ar    1  UNL1        0.0301
     21 C           8.0300    1.3789   31.6844 C.3     1  UNL1        0.2525
     22 O           7.1433    0.8206   32.7577 O.3     1  UNL1       -0.4716
     23 N           8.2645   -4.1674   31.8290 N.pl3   1  UNL1       -0.3317
     24 H           9.0349   -4.3776   32.4048 H       1  UNL1        0.1468
     25 C           8.0722   -4.9023   30.5356 C.3     1  UNL1        0.1014
     26 C           8.9455   -5.2262   29.3598 C.3     1  UNL1        0.0933
     27 N           7.8003   -5.9416   28.7064 N.3     1  UNL1       -0.2697
     28 C           6.9271   -5.6177   29.8822 C.3     1  UNL1        0.0933
     29 C           7.6080   -6.6765   27.4129 C.3     1  UNL1        0.0751
     30 C           7.0256   -5.9669   26.2267 C.3     1  UNL1        0.0554
     31 C           7.1198   -4.4732   26.1255 C.3     1  UNL1        0.1947
     32 F           6.1959   -3.6073   26.9295 F       1  UNL1       -0.2343
     33 C           3.3949    0.1300   31.0743 C.3     1  UNL1        0.1054
     34 C           4.5240    0.5127   30.1642 C.3     1  UNL1        0.1486
     35 F           4.7461    1.9289   30.6056 F       1  UNL1       -0.2386
     36 C           5.5762    0.4035   29.1006 C.3     1  UNL1        0.0368
     37 C           4.6942   -0.7707   29.4065 C.3     1  UNL1        0.0368
@<TRIPOS>BOND
     1    21    22    1
     2    22    15    1
     3    15    16   ar
     4    16    17   ar
     5    17    23    1
     6    23    25    1
     7    25    26    1
     8    26    27    1
     9    27    29    1
    10    29    30    1
    11    30    31    1
    12    31    32    1
    13    27    28    1
    14    17    18   ar
    15    18    19   ar
    16    19    20   ar
    17     1    20    1
    18     1     2    1
    19     2     3    2
    20     3     4    1
    21     4     5    2
    22     5     6    1
    23     6     7    2
    24     7     8    1
    25     8     9    2
    26     9    10    1
    27    10    11    1
    28    11    12    1
    29    12    13    1
    30    12    14    1
    31    14    33    1
    32    33    34    1
    33    34    35    1
    34    34    36    1
    35    36    37    1
    36    20    15   ar
    37    14     1    1
    38    37    34    1
    39    28    25    1
    40    10     2    1
    41     9     5    1
    42    23    24    1
@<TRIPOS>MOLECULE
*****
 37 42 0 0 0
SMALL
GASTEIGER

@<TRIPOS>ATOM
      1 C           3.8172   -1.1510   22.5326 C.3     1  UNL1        0.1023
      2 C           3.5418   -0.7495   23.9515 C.2     1  UNL1       -0.0217
      3 C           2.5630    0.3489   24.2436 C.2     1  UNL1       -0.0050
      4 C           2.2876    0.7504   25.6624 C.2     1  UNL1        0.0201
      5 C           2.9910    0.0534   26.7891 C.2     1  UNL1        0.1007
      6 N           2.9235    0.2305   28.2770 N.2     1  UNL1       -0.1482
      7 N           3.8606   -0.7585   28.9045 N.2     1  UNL1       -0.1467
      8 C           4.5073   -1.5468   27.8043 C.2     1  UNL1        0.1197
      9 C           3.9698   -1.0451   26.4969 C.2     1  UNL1        0.0216
     10 C           4.2452   -1.4465   25.0781 C.3     1  UNL1        0.0466
     11 C           5.2240   -2.5450   24.7859 C.3     1  UNL1        0.0245
     12 C           5.4994   -2.9464   23.3671 C.3     1  UNL1        0.0588
     13 C           6.4782   -4.0449   23.0751 C.3     1  UNL1        0.0174
     14 N           4.7959   -2.2494   22.2405 N.3     1  UNL1       -0.2661
     15 C           3.7703    0.7035   20.7137 C.ar    1  UNL1        0.1375
     16 C           3.0668    1.4006   19.5870 C.ar    1  UNL1        0.0509
     17 C           1.7070    0.9402   19.1526 C.ar    1  UNL1        0.0477
     18 C           1.0504   -0.2173   19.8449 C.ar    1  UNL1        0.0142
     19 C           1.7539   -0.9143   20.9715 C.ar    1  UNL1        0.0016
     20 C           3.1138   -0.4539   21.4060 C.ar    1  UNL1        0.0301
     21 C           6.3254    0.8932   20.2832 C.3     1  UNL1        0.2525
     22 O           5.1302    1.1640   21.1481 O.3     1  UNL1       -0.4716
     23 N           1.0036    1.6373   18.0260 N.pl3   1  UNL1       -0.3317
     24 H           1.1851    1.3745   17.0947 H       1  UNL1        0.1468
     25 C           0.0237    2.7347   18.3182 C.3     1  UNL1        0.1014
     26 C          -0.5872    3.3076   19.5627 C.3     1  UNL1        0.0933
     27 N          -1.3621    4.2867   18.7315 N.3     1  UNL1       -0.2697
     28 C          -0.7513    3.7138   17.4871 C.3     1  UNL1        0.0933
     29 C          -2.3421    5.3842   19.0236 C.3     1  UNL1        0.0751
     30 C          -3.8146    5.0991   19.0055 C.3     1  UNL1        0.0554
     31 C          -4.3060    3.6849   19.0982 C.3     1  UNL1        0.1947
     32 F          -4.4119    3.0138   20.4355 F       1  UNL1       -0.2343
     33 C           5.0714   -2.6509   20.8217 C.3     1  UNL1        0.1054
     34 C           4.1656   -3.6249   20.1285 C.3     1  UNL1        0.1486
     35 F           3.9638   -4.6226   21.2303 F       1  UNL1       -0.2386
     36 C           3.3297   -4.2525   19.0527 C.3     1  UNL1        0.0368
     37 C           4.0526   -2.9656   18.7859 C.3     1  UNL1        0.0368
@<TRIPOS>BOND
     1    21    22    1
     2    22    15    1
     3    15    16   ar
     4    16    17   ar
     5    17    23    1
     6    23    25    1
     7    25    26    1
     8    26    27    1
     9    27    29    1
    10    29    30    1
    11    30    31    1
    12    31    32    1
    13    27    28    1
    14    17    18   ar
    15    18    19   ar
    16    19    20   ar
    17     1    20    1
    18     1     2    1
    19     2     3    2
    20     3     4    1
    21     4     5    2
    22     5     6    1
    23     6     7    2
    24     7     8    1
    25     8     9    2
    26     9    10    1
    27    10    11    1
    28    11    12    1
    29    12    13    1
    30    12    14    1
    31    14    33    1
    32    33    34    1
    33    34    35    1
    34    34    36    1
    35    36    37    1
    36    20    15   ar
    37    14     1    1
    38    37    34    1
    39    28    25    1
    40    10     2    1
    41     9     5    1
    42    23    24    1
@<TRIPOS>MOLECULE
*****
 37 42 0 0 0
SMALL
GASTEIGER

@<TRIPOS>ATOM
      1 C          -0.1623    3.0918   26.4941 C.3     1  UNL1        0.1023
      2 C          -1.5394    3.3421   25.9545 C.2     1  UNL1       -0.0217
      3 C          -2.6895    3.5406   26.8968 C.2     1  UNL1       -0.0050
      4 C          -4.0666    3.7909   26.3572 C.2     1  UNL1        0.0201
      5 C          -4.2935    3.8426   24.8754 C.2     1  UNL1        0.1007
      6 N          -5.5296    4.0698   24.0566 N.2     1  UNL1       -0.1482
      7 N          -5.1435    4.0116   22.6084 N.2     1  UNL1       -0.1467
      8 C          -3.6687    3.7485   22.5320 C.2     1  UNL1        0.1197
      9 C          -3.1434    3.6441   23.9331 C.2     1  UNL1        0.0216
     10 C          -1.7663    3.3938   24.4727 C.3     1  UNL1        0.0466
     11 C          -0.6162    3.1953   23.5305 C.3     1  UNL1        0.0245
     12 C           0.7608    2.9450   24.0701 C.3     1  UNL1        0.0588
     13 C           1.9109    2.7464   23.1277 C.3     1  UNL1        0.0174
     14 N           0.9877    2.8933   25.5519 N.3     1  UNL1       -0.2661
     15 C          -0.1210    1.7501   28.7185 C.ar    1  UNL1        0.1375
     16 C           0.1059    1.6984   30.2004 C.ar    1  UNL1        0.0509
     17 C           0.5184    2.9366   30.9396 C.ar    1  UNL1        0.0477
     18 C           0.7039    4.2267   30.1971 C.ar    1  UNL1        0.0142
     19 C           0.4770    4.2784   28.7153 C.ar    1  UNL1        0.0016
     20 C           0.0646    3.0401   27.9759 C.ar    1  UNL1        0.0301
     21 C          -1.3244   -0.5521   28.6809 C.3     1  UNL1        0.2525
     22 O          -0.5334    0.5118   27.9792 O.3     1  UNL1       -0.4716
     23 N           0.7453    2.8849   32.4215 N.pl3   1  UNL1       -0.3317
     24 H           0.1178    3.3358   33.0316 H       1  UNL1        0.1468
     25 C           1.9281    2.1460   32.9738 C.3     1  UNL1        0.1014
     26 C           2.9514    1.2072   32.4069 C.3     1  UNL1        0.0933
     27 N           3.6009    1.1012   33.7548 N.3     1  UNL1       -0.2697
     28 C           2.5776    2.0401   34.3217 C.3     1  UNL1        0.0933
     29 C           4.7837    0.3624   34.3072 C.3     1  UNL1        0.0751
     30 C           4.6877   -1.1093   34.5809 C.3     1  UNL1        0.0554
     31 C           4.3586   -2.0593   33.4677 C.3     1  UNL1        0.1947
     32 F           4.1074   -3.5074   33.7672 F       1  UNL1       -0.2343
     33 C           2.3648    2.6430   26.0914 C.3     1  UNL1        0.1054
     34 C           2.7391    1.2781   26.5882 C.3     1  UNL1        0.1486
     35 F           2.0807    0.4300   25.5408 F       1  UNL1       -0.2386
     36 C           3.3420    0.2077   27.4488 C.3     1  UNL1        0.0368
     37 C           3.5275    1.6522   27.8083 C.3     1  UNL1        0.0368
@<TRIPOS>BOND
     1    21    22    1
     2    22    15    1
     3    15    16   ar
     4    16    17   ar
     5    17    23    1
     6    23    25    1
     7    25    26    1
     8    26    27    1
     9    27    29    1
    10    29    30    1
    11    30    31    1
    12    31    32    1
    13    27    28    1
    14    17    18   ar
    15    18    19   ar
    16    19    20   ar
    17     1    20    1
    18     1     2    1
    19     2     3    2
    20     3     4    1
    21     4     5    2
    22     5     6    1
    23     6     7    2
    24     7     8    1
    25     8     9    2
    26     9    10    1
    27    10    11    1
    28    11    12    1
    29    12    13    1
    30    12    14    1
    31    14    33    1
    32    33    34    1
    33    34    35    1
    34    34    36    1
    35    36    37    1
    36    20    15   ar
    37    14     1    1
    38    37    34    1
    39    28    25    1
    40    10     2    1
    41     9     5    1
    42    23    24    1
@<TRIPOS>MOLECULE
*****
 37 42 0 0 0
SMALL
GASTEIGER

@<TRIPOS>ATOM
      1 C           1.5957    1.6692   31.0864 C.3     1  UNL1        0.1023
      2 C           1.3317    2.7283   32.1154 C.2     1  UNL1       -0.0217
      3 C           0.4297    3.8817   31.7901 C.2     1  UNL1       -0.0050
      4 C           0.1656    4.9408   32.8191 C.2     1  UNL1        0.0201
      5 C           0.8037    4.8463   34.1733 C.2     1  UNL1        0.1007
      6 N           0.7304    5.7324   35.3814 N.2     1  UNL1       -0.1482
      7 N           1.5871    5.1266   36.4533 N.2     1  UNL1       -0.1467
      8 C           2.1900    3.8661   35.9077 C.2     1  UNL1        0.1197
      9 C           1.7058    3.6929   34.4986 C.2     1  UNL1        0.0216
     10 C           1.9698    2.6339   33.4696 C.3     1  UNL1        0.0466
     11 C           2.8719    1.4804   33.7948 C.3     1  UNL1        0.0245
     12 C           3.1358    0.4214   32.7658 C.3     1  UNL1        0.0588
     13 C           4.0380   -0.7321   33.0911 C.3     1  UNL1        0.0174
     14 N           2.4977    0.5159   31.4116 N.3     1  UNL1       -0.2661
     15 C           1.5950    2.5959   28.6592 C.ar    1  UNL1        0.1375
     16 C           0.9568    2.6904   27.3049 C.ar    1  UNL1        0.0509
     17 C          -0.3185    1.9527   27.0237 C.ar    1  UNL1        0.0477
     18 C          -0.9559    1.1205   28.0967 C.ar    1  UNL1        0.0142
     19 C          -0.3178    1.0261   29.4509 C.ar    1  UNL1        0.0016
     20 C           0.9576    1.7637   29.7322 C.ar    1  UNL1        0.0301
     21 C           2.8526    4.8234   29.1136 C.3     1  UNL1        0.2525
     22 O           2.8704    3.3336   28.9404 O.3     1  UNL1       -0.4716
     23 N          -0.9566    2.0472   25.6695 N.pl3   1  UNL1       -0.3317
     24 H          -1.9313    2.1621   25.5915 H       1  UNL1        0.1468
     25 C          -0.1097    1.9667   24.4341 C.3     1  UNL1        0.1014
     26 C           0.0099    2.7742   23.1756 C.3     1  UNL1        0.0933
     27 N           1.0880    1.8528   22.6869 N.3     1  UNL1       -0.2697
     28 C           0.9684    1.0454   23.9454 C.3     1  UNL1        0.0933
     29 C           1.9350    1.7723   21.4515 C.3     1  UNL1        0.0751
     30 C           1.3979    1.1131   20.2157 C.3     1  UNL1        0.0554
     31 C           0.8040   -0.2619   20.2969 C.3     1  UNL1        0.1947
     32 F           1.6609   -1.4655   20.0383 F       1  UNL1       -0.2343
     33 C           2.7618   -0.5432   30.3826 C.3     1  UNL1        0.1054
     34 C           3.7113   -0.2719   29.2537 C.3     1  UNL1        0.1486
     35 F           4.8141    0.4178   30.0008 F       1  UNL1       -0.2386
     36 C           4.2779   -0.2401   27.8652 C.3     1  UNL1        0.0368
     37 C           2.9384   -0.8674   28.1144 C.3     1  UNL1        0.0368
@<TRIPOS>BOND
     1    21    22    1
     2    22    15    1
     3    15    16   ar
     4    16    17   ar
     5    17    23    1
     6    23    25    1
     7    25    26    1
     8    26    27    1
     9    27    29    1
    10    29    30    1
    11    30    31    1
    12    31    32    1
    13    27    28    1
    14    17    18   ar
    15    18    19   ar
    16    19    20   ar
    17     1    20    1
    18     1     2    1
    19     2     3    2
    20     3     4    1
    21     4     5    2
    22     5     6    1
    23     6     7    2
    24     7     8    1
    25     8     9    2
    26     9    10    1
    27    10    11    1
    28    11    12    1
    29    12    13    1
    30    12    14    1
    31    14    33    1
    32    33    34    1
    33    34    35    1
    34    34    36    1
    35    36    37    1
    36    20    15   ar
    37    14     1    1
    38    37    34    1
    39    28    25    1
    40    10     2    1
    41     9     5    1
    42    23    24    1
@<TRIPOS>MOLECULE
*****
 37 42 0 0 0
SMALL
GASTEIGER

@<TRIPOS>ATOM
      1 C           2.9688   -0.2889   21.1999 C.3     1  UNL1        0.1023
      2 C           2.9632   -0.0907   22.6868 C.2     1  UNL1       -0.0217
      3 C           2.3082    1.1216   23.2793 C.2     1  UNL1       -0.0050
      4 C           2.3026    1.3198   24.7662 C.2     1  UNL1        0.0201
      5 C           2.9520    0.3057   25.6605 C.2     1  UNL1        0.1007
      6 N           3.1031    0.2323   27.1510 N.2     1  UNL1       -0.1482
      7 N           3.8516   -1.0253   27.4797 N.2     1  UNL1       -0.1467
      8 C           4.1631   -1.7293   26.1922 C.2     1  UNL1        0.1197
      9 C           3.6071   -0.9066   25.0679 C.2     1  UNL1        0.0216
     10 C           3.6127   -1.1048   23.5811 C.3     1  UNL1        0.0466
     11 C           4.2677   -2.3172   22.9885 C.3     1  UNL1        0.0245
     12 C           4.2733   -2.5154   21.5017 C.3     1  UNL1        0.0588
     13 C           4.9284   -3.7278   20.9091 C.3     1  UNL1        0.0174
     14 N           3.6239   -1.5012   20.6074 N.3     1  UNL1       -0.2661
     15 C           3.1060    1.9033   19.8124 C.ar    1  UNL1        0.1375
     16 C           2.4565    2.9175   18.9181 C.ar    1  UNL1        0.0509
     17 C           1.0205    2.7536   18.5172 C.ar    1  UNL1        0.0477
     18 C           0.2338    1.5755   19.0104 C.ar    1  UNL1        0.0142
     19 C           0.8833    0.5613   19.9047 C.ar    1  UNL1        0.0016
     20 C           2.3194    0.7252   20.3057 C.ar    1  UNL1        0.0301
     21 C           4.9089    3.0117   21.3194 C.3     1  UNL1        0.2525
     22 O           4.5421    2.0672   20.2134 O.3     1  UNL1       -0.4716
     23 N           0.3711    3.7677   17.6229 N.pl3   1  UNL1       -0.3317
     24 H           0.9216    4.3121   17.0148 H       1  UNL1        0.1468
     25 C          -1.1172    3.9525   17.6553 C.3     1  UNL1        0.1014
     26 C          -2.1174    4.3223   18.7102 C.3     1  UNL1        0.0933
     27 N          -3.2218    4.2138   17.7010 N.3     1  UNL1       -0.2697
     28 C          -2.2216    3.8440   16.6461 C.3     1  UNL1        0.0933
     29 C          -4.7101    4.3985   17.7332 C.3     1  UNL1        0.0751
     30 C          -5.5653    3.4590   18.5307 C.3     1  UNL1        0.0554
     31 C          -6.1003    3.8824   19.8665 C.3     1  UNL1        0.1947
     32 F          -5.4079    4.9624   20.6437 F       1  UNL1       -0.2343
     33 C           3.6295   -1.6995   19.1205 C.3     1  UNL1        0.1054
     34 C           4.5765   -0.9139   18.2627 C.3     1  UNL1        0.1486
     35 F           5.7668   -0.8566   19.1736 F       1  UNL1       -0.2386
     36 C           5.1101   -0.1481   17.0885 C.3     1  UNL1        0.0368
     37 C           3.7151   -0.6983   17.0538 C.3     1  UNL1        0.0368
@<TRIPOS>BOND
     1    21    22    1
     2    22    15    1
     3    15    16   ar
     4    16    17   ar
     5    17    23    1
     6    23    25    1
     7    25    26    1
     8    26    27    1
     9    27    29    1
    10    29    30    1
    11    30    31    1
    12    31    32    1
    13    27    28    1
    14    17    18   ar
    15    18    19   ar
    16    19    20   ar
    17     1    20    1
    18     1     2    1
    19     2     3    2
    20     3     4    1
    21     4     5    2
    22     5     6    1
    23     6     7    2
    24     7     8    1
    25     8     9    2
    26     9    10    1
    27    10    11    1
    28    11    12    1
    29    12    13    1
    30    12    14    1
    31    14    33    1
    32    33    34    1
    33    34    35    1
    34    34    36    1
    35    36    37    1
    36    20    15   ar
    37    14     1    1
    38    37    34    1
    39    28    25    1
    40    10     2    1
    41     9     5    1
    42    23    24    1
