@<TRIPOS>MOLECULE
*****
 32 35 0 0 0
SMALL
GASTEIGER

@<TRIPOS>ATOM
      1 C           6.4986   -0.1857   17.3606 C.3     1  UNL1        0.0177
      2 C           6.0265   -0.6460   18.7079 C.3     1  UNL1        0.0622
      3 C           6.6654   -1.8361   19.3602 C.3     1  UNL1        0.0384
      4 C           6.1933   -2.2964   20.7075 C.2     1  UNL1       -0.0343
      5 C           5.0824   -1.5666   21.4026 C.2     1  UNL1       -0.0106
      6 C           4.6103   -2.0269   22.7498 C.2     1  UNL1       -0.0020
      7 C           5.2492   -3.2171   23.4022 C.2     1  UNL1        0.0169
      8 C           6.3602   -3.9468   22.7071 C.2     1  UNL1        0.0896
      9 N           7.1751   -5.1433   23.0999 N.2     1  UNL1       -0.1520
     10 N           8.1508   -5.4224   21.9954 N.2     1  UNL1       -0.1507
     11 C           7.9389   -4.3985   20.9199 C.2     1  UNL1        0.1054
     12 C           6.8322   -3.4865   21.3598 C.3     1  UNL1        0.1032
     13 C           4.4435   -0.3765   20.7503 C.3     1  UNL1        0.1068
     14 N           4.9155    0.0838   19.4030 N.3     1  UNL1       -0.2655
     15 C           3.3325    0.3533   21.4453 C.ar    1  UNL1        0.0512
     16 C           1.9146   -0.1082   21.2823 C.ar    1  UNL1        0.1399
     17 F           1.6077   -1.2995   20.4241 F       1  UNL1       -0.2044
     18 C           0.8036    0.6216   21.9774 C.ar    1  UNL1        0.0295
     19 C           1.1106    1.8130   22.8356 C.ar    1  UNL1        0.0045
     20 C           2.5284    2.2745   22.9987 C.ar    1  UNL1        0.0295
     21 C           3.6394    1.5446   22.3035 C.ar    1  UNL1        0.1399
     22 F           5.0573    2.0062   22.4666 F       1  UNL1       -0.2044
     23 C          -0.0003    2.5428   23.5307 C.2     1  UNL1        0.0013
     24 C          -0.3925    2.1579   24.9264 C.2     1  UNL1        0.0151
     25 C          -1.5034    2.8877   25.6215 C.2     1  UNL1        0.0729
     26 O          -1.4249    3.1431   27.0975 O.co2   1  UNL1       -0.5446
     27 O          -2.6930    3.3622   24.8405 O.co2   1  UNL1       -0.5446
     28 C           4.2766    1.2740   18.7507 C.3     1  UNL1        0.1054
     29 C           2.8388    1.2155   18.3276 C.3     1  UNL1        0.1486
     30 C           3.0677   -0.1444   17.7375 C.3     1  UNL1        0.0368
     31 C           2.6098    2.5754   18.9176 C.3     1  UNL1        0.0368
     32 F           1.4009    1.1570   17.9044 F       1  UNL1       -0.2386
@<TRIPOS>UNITY_ATOM_ATTR
26 1
charge -1
@<TRIPOS>BOND
     1     2     1    1
     2     2     3    1
     3     3     4    1
     4     4     5    2
     5     5     6    1
     6     6     7    2
     7     7     8    1
     8     8     9    2
     9     9    10    1
    10    10    11    2
    11    11    12    1
    12     5    13    1
    13    13    15    1
    14    15    16   ar
    15    16    17    1
    16    16    18   ar
    17    18    19   ar
    18    19    23    1
    19    23    24    2
    20    24    25    1
    21    25    26   ar
    22    25    27   ar
    23    19    20   ar
    24    20    21   ar
    25    21    22    1
    26    13    14    1
    27    14    28    1
    28    28    29    1
    29    29    30    1
    30    29    31    1
    31    29    32    1
    32    14     2    1
    33    12     4    1
    34    21    15   ar
    35    12     8    1
@<TRIPOS>MOLECULE
*****
 32 35 0 0 0
SMALL
GASTEIGER

@<TRIPOS>ATOM
      1 C           4.9009   -0.3969   27.2713 C.3     1  UNL1        0.0177
      2 C           5.4175   -1.2835   28.3654 C.3     1  UNL1        0.0622
      3 C           6.0252   -2.6130   28.0292 C.3     1  UNL1        0.0384
      4 C           6.5418   -3.4997   29.1233 C.2     1  UNL1       -0.0343
      5 C           6.4508   -3.0568   30.5535 C.2     1  UNL1       -0.0106
      6 C           6.9674   -3.9434   31.6475 C.2     1  UNL1       -0.0020
      7 C           7.5751   -5.2730   31.3114 C.2     1  UNL1        0.0169
      8 C           7.6662   -5.7159   29.8811 C.2     1  UNL1        0.0896
      9 N           8.2095   -6.9631   29.2493 N.2     1  UNL1       -0.1520
     10 N           8.0287   -6.8473   27.7648 N.2     1  UNL1       -0.1507
     11 C           7.3736   -5.5285   27.4791 C.2     1  UNL1        0.1054
     12 C           7.1495   -4.8292   28.7871 C.3     1  UNL1        0.1032
     13 C           5.8430   -1.7272   30.8896 C.3     1  UNL1        0.1068
     14 N           5.3265   -0.8406   29.7956 N.3     1  UNL1       -0.2655
     15 C           5.7520   -1.2844   32.3199 C.ar    1  UNL1        0.0512
     16 C           4.6122   -1.7483   33.1776 C.ar    1  UNL1        0.1399
     17 F           3.5635   -2.6552   32.6051 F       1  UNL1       -0.2044
     18 C           4.5211   -1.3055   34.6079 C.ar    1  UNL1        0.0295
     19 C           5.5699   -0.3986   35.1804 C.ar    1  UNL1        0.0045
     20 C           6.7096    0.0654   34.3227 C.ar    1  UNL1        0.0295
     21 C           6.8007   -0.3775   32.8924 C.ar    1  UNL1        0.1399
     22 F           7.9405    0.0865   32.0347 F       1  UNL1       -0.2044
     23 C           5.4789    0.0443   36.6106 C.2     1  UNL1        0.0013
     24 C           4.3096    0.8646   37.0687 C.2     1  UNL1        0.0151
     25 C           4.2185    1.3074   38.4989 C.2     1  UNL1        0.0729
     26 O           3.0294    0.9233   39.3287 O.co2   1  UNL1       -0.5446
     27 O           5.3166    2.1345   39.0993 O.co2   1  UNL1       -0.5446
     28 C           4.7187    0.4890   30.1318 C.3     1  UNL1        0.1054
     29 C           3.4296    0.5527   30.8958 C.3     1  UNL1        0.1486
     30 C           2.8687   -0.5449   30.0411 C.3     1  UNL1        0.0368
     31 C           3.9903    1.6504   31.7505 C.3     1  UNL1        0.0368
     32 F           2.1403    0.6164   31.6598 F       1  UNL1       -0.2386
@<TRIPOS>UNITY_ATOM_ATTR
26 1
charge -1
@<TRIPOS>BOND
     1     2     1    1
     2     2     3    1
     3     3     4    1
     4     4     5    2
     5     5     6    1
     6     6     7    2
     7     7     8    1
     8     8     9    2
     9     9    10    1
    10    10    11    2
    11    11    12    1
    12     5    13    1
    13    13    15    1
    14    15    16   ar
    15    16    17    1
    16    16    18   ar
    17    18    19   ar
    18    19    23    1
    19    23    24    2
    20    24    25    1
    21    25    26   ar
    22    25    27   ar
    23    19    20   ar
    24    20    21   ar
    25    21    22    1
    26    13    14    1
    27    14    28    1
    28    28    29    1
    29    29    30    1
    30    29    31    1
    31    29    32    1
    32    14     2    1
    33    12     4    1
    34    21    15   ar
    35    12     8    1
@<TRIPOS>MOLECULE
*****
 32 35 0 0 0
SMALL
GASTEIGER

@<TRIPOS>ATOM
      1 C           1.3759    2.2491   32.1874 C.3     1  UNL1        0.0177
      2 C           2.3943    1.6627   33.1197 C.3     1  UNL1        0.0622
      3 C           2.4256    2.0861   34.5583 C.3     1  UNL1        0.0384
      4 C           3.4439    1.4997   35.4907 C.2     1  UNL1       -0.0343
      5 C           4.4309    0.4900   34.9844 C.2     1  UNL1       -0.0106
      6 C           5.4492   -0.0963   35.9167 C.2     1  UNL1       -0.0020
      7 C           5.4805    0.3271   37.3554 C.2     1  UNL1        0.0169
      8 C           4.4936    1.3368   37.8617 C.2     1  UNL1        0.0896
      9 N           4.2835    1.9425   39.2178 N.2     1  UNL1       -0.1520
     10 N           3.1354    2.9031   39.1236 N.2     1  UNL1       -0.1507
     11 C           2.6358    2.8912   37.7092 C.2     1  UNL1        0.1054
     12 C           3.4753    1.9231   36.9294 C.3     1  UNL1        0.1032
     13 C           4.3995    0.0667   33.5457 C.3     1  UNL1        0.1068
     14 N           3.3813    0.6530   32.6134 N.3     1  UNL1       -0.2655
     15 C           5.3865   -0.9430   33.0394 C.ar    1  UNL1        0.0512
     16 C           6.7409   -0.4990   32.5718 C.ar    1  UNL1        0.1399
     17 F           7.1082    0.9548   32.6105 F       1  UNL1       -0.2044
     18 C           7.7278   -1.5087   32.0655 C.ar    1  UNL1        0.0295
     19 C           7.3604   -2.9625   32.0267 C.ar    1  UNL1        0.0045
     20 C           6.0062   -3.4066   32.4943 C.ar    1  UNL1        0.0295
     21 C           5.0192   -2.3968   33.0006 C.ar    1  UNL1        0.1399
     22 F           3.6648   -2.8409   33.4682 F       1  UNL1       -0.2044
     23 C           8.3474   -3.9722   31.5204 C.2     1  UNL1        0.0013
     24 C           7.9367   -5.4056   31.3564 C.2     1  UNL1        0.0151
     25 C           8.9237   -6.4153   30.8501 C.2     1  UNL1        0.0729
     26 O           9.5306   -7.4099   31.7947 O.co2   1  UNL1       -0.5446
     27 O           9.3038   -6.4302   29.3990 O.co2   1  UNL1       -0.5446
     28 C           3.3499    0.2296   31.1746 C.3     1  UNL1        0.1054
     29 C           4.4844    0.5896   30.2620 C.3     1  UNL1        0.1486
     30 C           4.4969    1.9796   30.8258 C.3     1  UNL1        0.0368
     31 C           4.4720   -0.8002   29.6981 C.3     1  UNL1        0.0368
     32 F           5.6191    0.9497   29.3493 F       1  UNL1       -0.2386
@<TRIPOS>UNITY_ATOM_ATTR
26 1
charge -1
@<TRIPOS>BOND
     1     2     1    1
     2     2     3    1
     3     3     4    1
     4     4     5    2
     5     5     6    1
     6     6     7    2
     7     7     8    1
     8     8     9    2
     9     9    10    1
    10    10    11    2
    11    11    12    1
    12     5    13    1
    13    13    15    1
    14    15    16   ar
    15    16    17    1
    16    16    18   ar
    17    18    19   ar
    18    19    23    1
    19    23    24    2
    20    24    25    1
    21    25    26   ar
    22    25    27   ar
    23    19    20   ar
    24    20    21   ar
    25    21    22    1
    26    13    14    1
    27    14    28    1
    28    28    29    1
    29    29    30    1
    30    29    31    1
    31    29    32    1
    32    14     2    1
    33    12     4    1
    34    21    15   ar
    35    12     8    1
@<TRIPOS>MOLECULE
*****
 32 35 0 0 0
SMALL
GASTEIGER

@<TRIPOS>ATOM
      1 C          -3.2106    4.1361   22.5298 C.3     1  UNL1        0.0177
      2 C          -1.9680    3.3920   22.9201 C.3     1  UNL1        0.0622
      3 C          -1.7087    3.0694   24.3618 C.3     1  UNL1        0.0384
      4 C          -0.4662    2.3253   24.7522 C.2     1  UNL1       -0.0343
      5 C           0.5171    1.9037   23.7008 C.2     1  UNL1       -0.0106
      6 C           1.7596    1.1597   24.0911 C.2     1  UNL1       -0.0020
      7 C           2.0190    0.8370   25.5329 C.2     1  UNL1        0.0169
      8 C           1.0357    1.2586   26.5843 C.2     1  UNL1        0.0896
      9 N           1.0222    1.0830   28.0739 N.2     1  UNL1       -0.1520
     10 N          -0.2287    1.7185   28.6042 N.2     1  UNL1       -0.1507
     11 C          -0.9883    2.2870   27.4423 C.2     1  UNL1        0.1054
     12 C          -0.2069    2.0027   26.1939 C.3     1  UNL1        0.1032
     13 C           0.2577    2.2264   22.2590 C.3     1  UNL1        0.1068
     14 N          -0.9847    2.9704   21.8687 N.3     1  UNL1       -0.2655
     15 C           1.2410    1.8048   21.2075 C.ar    1  UNL1        0.0512
     16 C           1.0174    0.5378   20.4363 C.ar    1  UNL1        0.1399
     17 F          -0.1895   -0.3076   20.7165 F       1  UNL1       -0.2044
     18 C           2.0007    0.1163   19.3849 C.ar    1  UNL1        0.0295
     19 C           3.2076    0.9618   19.1047 C.ar    1  UNL1        0.0045
     20 C           3.4312    2.2287   19.8758 C.ar    1  UNL1        0.0295
     21 C           2.4479    2.6503   20.9273 C.ar    1  UNL1        0.1399
     22 F           2.6716    3.9173   21.6985 F       1  UNL1       -0.2044
     23 C           4.1909    0.5403   18.0533 C.2     1  UNL1        0.0013
     24 C           5.4813   -0.1125   18.4518 C.2     1  UNL1        0.0151
     25 C           6.4645   -0.5340   17.4004 C.2     1  UNL1        0.0729
     26 O           6.8881   -1.9696   17.3020 O.co2   1  UNL1       -0.5446
     27 O           7.0242    0.4801   16.4473 O.co2   1  UNL1       -0.5446
     28 C          -1.2441    3.2930   20.4268 C.3     1  UNL1        0.1054
     29 C          -0.3578    4.2637   19.7043 C.3     1  UNL1        0.1486
     30 C          -0.3337    3.3540   18.5118 C.3     1  UNL1        0.0368
     31 C          -0.3818    5.1733   20.8967 C.3     1  UNL1        0.0368
     32 F           0.5286    5.2343   18.9816 F       1  UNL1       -0.2386
@<TRIPOS>UNITY_ATOM_ATTR
26 1
charge -1
@<TRIPOS>BOND
     1     2     1    1
     2     2     3    1
     3     3     4    1
     4     4     5    2
     5     5     6    1
     6     6     7    2
     7     7     8    1
     8     8     9    2
     9     9    10    1
    10    10    11    2
    11    11    12    1
    12     5    13    1
    13    13    15    1
    14    15    16   ar
    15    16    17    1
    16    16    18   ar
    17    18    19   ar
    18    19    23    1
    19    23    24    2
    20    24    25    1
    21    25    26   ar
    22    25    27   ar
    23    19    20   ar
    24    20    21   ar
    25    21    22    1
    26    13    14    1
    27    14    28    1
    28    28    29    1
    29    29    30    1
    30    29    31    1
    31    29    32    1
    32    14     2    1
    33    12     4    1
    34    21    15   ar
    35    12     8    1
@<TRIPOS>MOLECULE
*****
 32 35 0 0 0
SMALL
GASTEIGER

@<TRIPOS>ATOM
      1 C           3.9091   -0.8377   16.9313 C.3     1  UNL1        0.0177
      2 C           3.5932   -0.6102   18.3800 C.3     1  UNL1        0.0622
      3 C           2.3821    0.1854   18.7675 C.3     1  UNL1        0.0384
      4 C           2.0662    0.4129   20.2161 C.2     1  UNL1       -0.0343
      5 C           2.9613   -0.1552   21.2772 C.2     1  UNL1       -0.0106
      6 C           2.6455    0.0723   22.7257 C.2     1  UNL1       -0.0020
      7 C           1.4343    0.8679   23.1133 C.2     1  UNL1        0.0169
      8 C           0.5391    1.4360   22.0522 C.2     1  UNL1        0.0896
      9 N          -0.7151    2.2551   22.1301 N.2     1  UNL1       -0.1520
     10 N          -1.1743    2.5339   20.7296 N.2     1  UNL1       -0.1507
     11 C          -0.2039    1.8870   19.7862 C.2     1  UNL1        0.1054
     12 C           0.8550    1.2085   20.6036 C.3     1  UNL1        0.1032
     13 C           4.1725   -0.9509   20.8895 C.3     1  UNL1        0.1068
     14 N           4.4884   -1.1783   19.4410 N.3     1  UNL1       -0.2655
     15 C           5.0677   -1.5190   21.9506 C.ar    1  UNL1        0.0512
     16 C           4.7941   -2.8831   22.5114 C.ar    1  UNL1        0.1399
     17 F           3.6253   -3.6790   22.0111 F       1  UNL1       -0.2044
     18 C           5.6893   -3.4512   23.5725 C.ar    1  UNL1        0.0295
     19 C           6.8582   -2.6551   24.0728 C.ar    1  UNL1        0.0045
     20 C           7.1317   -1.2911   23.5121 C.ar    1  UNL1        0.0295
     21 C           6.2365   -0.7230   22.4509 C.ar    1  UNL1        0.1399
     22 F           6.5101    0.6411   21.8902 F       1  UNL1       -0.2044
     23 C           7.7533   -3.2232   25.1339 C.2     1  UNL1        0.0013
     24 C           7.3412   -4.4566   25.8814 C.2     1  UNL1        0.0151
     25 C           8.2364   -5.0247   26.9425 C.2     1  UNL1        0.0729
     26 O           9.2562   -6.0650   26.5853 O.co2   1  UNL1       -0.5446
     27 O           8.1116   -4.5524   28.3608 O.co2   1  UNL1       -0.5446
     28 C           5.6995   -1.9740   19.0534 C.3     1  UNL1        0.1054
     29 C           5.7647   -3.4400   19.3637 C.3     1  UNL1        0.1486
     30 C           7.1549   -3.2650   19.8991 C.3     1  UNL1        0.0368
     31 C           4.3745   -3.6151   18.8283 C.3     1  UNL1        0.0368
     32 F           5.8299   -4.9061   19.6740 F       1  UNL1       -0.2386
@<TRIPOS>UNITY_ATOM_ATTR
26 1
charge -1
@<TRIPOS>BOND
     1     2     1    1
     2     2     3    1
     3     3     4    1
     4     4     5    2
     5     5     6    1
     6     6     7    2
     7     7     8    1
     8     8     9    2
     9     9    10    1
    10    10    11    2
    11    11    12    1
    12     5    13    1
    13    13    15    1
    14    15    16   ar
    15    16    17    1
    16    16    18   ar
    17    18    19   ar
    18    19    23    1
    19    23    24    2
    20    24    25    1
    21    25    26   ar
    22    25    27   ar
    23    19    20   ar
    24    20    21   ar
    25    21    22    1
    26    13    14    1
    27    14    28    1
    28    28    29    1
    29    29    30    1
    30    29    31    1
    31    29    32    1
    32    14     2    1
    33    12     4    1
    34    21    15   ar
    35    12     8    1
@<TRIPOS>MOLECULE
*****
 32 35 0 0 0
SMALL
GASTEIGER

@<TRIPOS>ATOM
      1 C           5.5670    2.4074   17.2519 C.3     1  UNL1        0.0177
      2 C           4.6578    1.8302   18.2961 C.3     1  UNL1        0.0622
      3 C           3.2639    2.3616   18.4533 C.3     1  UNL1        0.0384
      4 C           2.3546    1.7845   19.4975 C.2     1  UNL1       -0.0343
      5 C           2.8392    0.6760   20.3843 C.2     1  UNL1       -0.0106
      6 C           1.9300    0.0989   21.4283 C.2     1  UNL1       -0.0020
      7 C           0.5360    0.6303   21.5857 C.2     1  UNL1        0.0169
      8 C           0.0514    1.7387   20.6988 C.2     1  UNL1        0.0896
      9 N          -1.2611    2.4607   20.6209 N.2     1  UNL1       -0.1520
     10 N          -1.1629    3.4841   19.5286 N.2     1  UNL1       -0.1507
     11 C           0.2102    3.3945   18.9315 C.2     1  UNL1        0.1054
     12 C           0.9607    2.3158   19.6547 C.3     1  UNL1        0.1032
     13 C           4.2331    0.1447   20.2270 C.3     1  UNL1        0.1068
     14 N           5.1423    0.7218   19.1829 N.3     1  UNL1       -0.2655
     15 C           4.7177   -0.9638   21.1138 C.ar    1  UNL1        0.0512
     16 C           4.3980   -2.3896   20.7751 C.ar    1  UNL1        0.1399
     17 F           3.5936   -2.7070   19.5494 F       1  UNL1       -0.2044
     18 C           4.8826   -3.4981   21.6619 C.ar    1  UNL1        0.0295
     19 C           5.6870   -3.1806   22.8876 C.ar    1  UNL1        0.0045
     20 C           6.0067   -1.7549   23.2264 C.ar    1  UNL1        0.0295
     21 C           5.5221   -0.6464   22.3395 C.ar    1  UNL1        0.1399
     22 F           5.8419    0.7794   22.6783 F       1  UNL1       -0.2044
     23 C           6.1716   -4.2891   23.7744 C.2     1  UNL1        0.0013
     24 C           7.4492   -5.0050   23.4500 C.2     1  UNL1        0.0151
     25 C           7.9337   -6.1134   24.3369 C.2     1  UNL1        0.0729
     26 O           7.9305   -5.9379   25.8266 O.co2   1  UNL1       -0.5446
     27 O           8.4216   -7.3974   23.7339 O.co2   1  UNL1       -0.5446
     28 C           6.5363    0.1904   19.0256 C.3     1  UNL1        0.1054
     29 C           6.7560   -1.1882   18.4770 C.3     1  UNL1        0.1486
     30 C           5.6554   -0.9677   17.4820 C.3     1  UNL1        0.0368
     31 C           7.8566   -1.4088   19.4720 C.3     1  UNL1        0.0368
     32 F           6.9757   -2.5669   17.9284 F       1  UNL1       -0.2386
@<TRIPOS>UNITY_ATOM_ATTR
26 1
charge -1
@<TRIPOS>BOND
     1     2     1    1
     2     2     3    1
     3     3     4    1
     4     4     5    2
     5     5     6    1
     6     6     7    2
     7     7     8    1
     8     8     9    2
     9     9    10    1
    10    10    11    2
    11    11    12    1
    12     5    13    1
    13    13    15    1
    14    15    16   ar
    15    16    17    1
    16    16    18   ar
    17    18    19   ar
    18    19    23    1
    19    23    24    2
    20    24    25    1
    21    25    26   ar
    22    25    27   ar
    23    19    20   ar
    24    20    21   ar
    25    21    22    1
    26    13    14    1
    27    14    28    1
    28    28    29    1
    29    29    30    1
    30    29    31    1
    31    29    32    1
    32    14     2    1
    33    12     4    1
    34    21    15   ar
    35    12     8    1
@<TRIPOS>MOLECULE
*****
 32 35 0 0 0
SMALL
GASTEIGER

@<TRIPOS>ATOM
      1 C           3.9530   -0.8176   32.6871 C.3     1  UNL1        0.0177
      2 C           3.0925    0.3740   32.3877 C.3     1  UNL1        0.0622
      3 C           2.8133    1.3858   33.4593 C.3     1  UNL1        0.0384
      4 C           1.9528    2.5773   33.1600 C.2     1  UNL1       -0.0343
      5 C           1.3714    2.7572   31.7890 C.2     1  UNL1       -0.0106
      6 C           0.5109    3.9487   31.4896 C.2     1  UNL1       -0.0020
      7 C           0.2317    4.9605   32.5613 C.2     1  UNL1        0.0169
      8 C           0.8131    4.7807   33.9322 C.2     1  UNL1        0.0896
      9 N           0.7132    5.6058   35.1809 N.2     1  UNL1       -0.1520
     10 N           1.5120    4.9241   36.2520 N.2     1  UNL1       -0.1507
     11 C           2.1056    3.6777   35.6653 C.2     1  UNL1        0.1054
     12 C           1.6737    3.5891   34.2316 C.3     1  UNL1        0.1032
     13 C           1.6505    1.7453   30.7173 C.3     1  UNL1        0.1068
     14 N           2.5110    0.5538   31.0167 N.3     1  UNL1       -0.2655
     15 C           1.0691    1.9251   29.3464 C.ar    1  UNL1        0.0512
     16 C           1.7964    2.7489   28.3253 C.ar    1  UNL1        0.1399
     17 F           3.1052    3.3928   28.6752 F       1  UNL1       -0.2044
     18 C           1.2150    2.9287   26.9543 C.ar    1  UNL1        0.0295
     19 C          -0.0938    2.2847   26.6044 C.ar    1  UNL1        0.0045
     20 C          -0.8211    1.4611   27.6253 C.ar    1  UNL1        0.0295
     21 C          -0.2396    1.2812   28.9964 C.ar    1  UNL1        0.1399
     22 F          -0.9670    0.4575   30.0174 F       1  UNL1       -0.2044
     23 C          -0.6753    2.4645   25.2334 C.2     1  UNL1        0.0013
     24 C          -1.8632    3.3584   25.0339 C.2     1  UNL1        0.0151
     25 C          -2.4446    3.5383   23.6629 C.2     1  UNL1        0.0729
     26 O          -3.8781    3.9505   23.5043 O.co2   1  UNL1       -0.5446
     27 O          -1.5924    3.3059   22.4505 O.co2   1  UNL1       -0.5446
     28 C           2.7902   -0.4580   29.9450 C.3     1  UNL1        0.1054
     29 C           3.6894   -0.1062   28.7973 C.3     1  UNL1        0.1486
     30 C           2.7477   -0.7891   27.8502 C.3     1  UNL1        0.0368
     31 C           4.6311    0.5768   29.7442 C.3     1  UNL1        0.0368
     32 F           4.5886    0.2456   27.6493 F       1  UNL1       -0.2386
@<TRIPOS>UNITY_ATOM_ATTR
26 1
charge -1
@<TRIPOS>BOND
     1     2     1    1
     2     2     3    1
     3     3     4    1
     4     4     5    2
     5     5     6    1
     6     6     7    2
     7     7     8    1
     8     8     9    2
     9     9    10    1
    10    10    11    2
    11    11    12    1
    12     5    13    1
    13    13    15    1
    14    15    16   ar
    15    16    17    1
    16    16    18   ar
    17    18    19   ar
    18    19    23    1
    19    23    24    2
    20    24    25    1
    21    25    26   ar
    22    25    27   ar
    23    19    20   ar
    24    20    21   ar
    25    21    22    1
    26    13    14    1
    27    14    28    1
    28    28    29    1
    29    29    30    1
    30    29    31    1
    31    29    32    1
    32    14     2    1
    33    12     4    1
    34    21    15   ar
    35    12     8    1
@<TRIPOS>MOLECULE
*****
 32 35 0 0 0
SMALL
GASTEIGER

@<TRIPOS>ATOM
      1 C           1.2160    3.0097   22.4790 C.3     1  UNL1        0.0177
      2 C           0.1761    3.1496   23.5510 C.3     1  UNL1        0.0622
      3 C          -1.2453    3.4553   23.1816 C.3     1  UNL1        0.0384
      4 C          -2.2852    3.5952   24.2534 C.2     1  UNL1       -0.0343
      5 C          -1.9039    3.4295   25.6947 C.2     1  UNL1       -0.0106
      6 C          -2.9438    3.5694   26.7665 C.2     1  UNL1       -0.0020
      7 C          -4.3652    3.8751   26.3971 C.2     1  UNL1        0.0169
      8 C          -4.7465    4.0408   24.9559 C.2     1  UNL1        0.0896
      9 N          -6.0577    4.3429   24.2930 N.2     1  UNL1       -0.1520
     10 N          -5.8281    4.3897   22.8114 N.2     1  UNL1       -0.1507
     11 C          -4.3750    4.1165   22.5587 C.2     1  UNL1        0.1054
     12 C          -3.7065    3.9009   23.8841 C.3     1  UNL1        0.1032
     13 C          -0.4825    3.1238   26.0640 C.3     1  UNL1        0.1068
     14 N           0.5574    2.9839   24.9922 N.3     1  UNL1       -0.2655
     15 C          -0.1012    2.9581   27.5052 C.ar    1  UNL1        0.0512
     16 C          -0.2459    1.6214   28.1704 C.ar    1  UNL1        0.1399
     17 F          -0.7719    0.4505   27.3944 F       1  UNL1       -0.2044
     18 C           0.1354    1.4557   29.6117 C.ar    1  UNL1        0.0295
     19 C           0.6614    2.6267   30.3877 C.ar    1  UNL1        0.0045
     20 C           0.8061    3.9633   29.7225 C.ar    1  UNL1        0.0295
     21 C           0.4248    4.1290   28.2812 C.ar    1  UNL1        0.1399
     22 F           0.5695    5.4656   27.6161 F       1  UNL1       -0.2044
     23 C           1.0428    2.4610   31.8289 C.2     1  UNL1        0.0013
     24 C           2.3466    1.8132   32.1900 C.2     1  UNL1        0.0151
     25 C           2.7279    1.6474   33.6312 C.2     1  UNL1        0.0729
     26 O           3.8491    0.7254   34.0091 O.co2   1  UNL1       -0.5446
     27 O           1.9879    2.4038   34.6945 O.co2   1  UNL1       -0.5446
     28 C           1.9788    2.6782   25.3615 C.3     1  UNL1        0.1054
     29 C           2.3434    1.3184   25.8790 C.3     1  UNL1        0.1486
     30 C           1.5155    0.6858   24.8000 C.3     1  UNL1        0.0368
     31 C           3.1712    1.9510   26.9581 C.3     1  UNL1        0.0368
     32 F           2.7080   -0.0415   26.3965 F       1  UNL1       -0.2386
@<TRIPOS>UNITY_ATOM_ATTR
26 1
charge -1
@<TRIPOS>BOND
     1     2     1    1
     2     2     3    1
     3     3     4    1
     4     4     5    2
     5     5     6    1
     6     6     7    2
     7     7     8    1
     8     8     9    2
     9     9    10    1
    10    10    11    2
    11    11    12    1
    12     5    13    1
    13    13    15    1
    14    15    16   ar
    15    16    17    1
    16    16    18   ar
    17    18    19   ar
    18    19    23    1
    19    23    24    2
    20    24    25    1
    21    25    26   ar
    22    25    27   ar
    23    19    20   ar
    24    20    21   ar
    25    21    22    1
    26    13    14    1
    27    14    28    1
    28    28    29    1
    29    29    30    1
    30    29    31    1
    31    29    32    1
    32    14     2    1
    33    12     4    1
    34    21    15   ar
    35    12     8    1
@<TRIPOS>MOLECULE
*****
 32 35 0 0 0
SMALL
GASTEIGER

@<TRIPOS>ATOM
      1 C           0.3166    3.1578   21.6403 C.3     1  UNL1        0.0177
      2 C          -0.5854    3.3254   22.8271 C.3     1  UNL1        0.0622
      3 C          -2.0498    3.5804   22.6259 C.3     1  UNL1        0.0384
      4 C          -2.9519    3.7480   23.8125 C.2     1  UNL1       -0.0343
      5 C          -2.3896    3.6606   25.2004 C.2     1  UNL1       -0.0106
      6 C          -3.2916    3.8281   26.3870 C.2     1  UNL1       -0.0020
      7 C          -4.7561    4.0832   26.1859 C.2     1  UNL1        0.0169
      8 C          -5.3184    4.1707   24.7980 C.2     1  UNL1        0.0896
      9 N          -6.7100    4.4106   24.2922 N.2     1  UNL1       -0.1520
     10 N          -6.6680    4.3913   22.7930 N.2     1  UNL1       -0.1507
     11 C          -5.2504    4.1394   22.3721 C.2     1  UNL1        0.1054
     12 C          -4.4163    4.0031   23.6114 C.3     1  UNL1        0.1032
     13 C          -0.9251    3.4055   25.4015 C.3     1  UNL1        0.1068
     14 N          -0.0231    3.2379   24.2149 N.3     1  UNL1       -0.2655
     15 C          -0.3628    3.3180   26.7894 C.ar    1  UNL1        0.0512
     16 C           0.2003    4.5418   27.4491 C.ar    1  UNL1        0.1399
     17 F           0.2010    5.8532   26.7208 F       1  UNL1       -0.2044
     18 C           0.7626    4.4544   28.8369 C.ar    1  UNL1        0.0295
     19 C           0.7618    3.1429   29.5651 C.ar    1  UNL1        0.0045
     20 C           0.1987    1.9191   28.9055 C.ar    1  UNL1        0.0295
     21 C          -0.3636    2.0066   27.5176 C.ar    1  UNL1        0.1399
     22 F          -0.9267    0.7828   26.8580 F       1  UNL1       -0.2044
     23 C           1.3241    3.0554   30.9530 C.2     1  UNL1        0.0013
     24 C           1.6774    1.7194   31.5362 C.2     1  UNL1        0.0151
     25 C           2.2397    1.6319   32.9240 C.2     1  UNL1        0.0729
     26 O           1.7231    2.5391   34.0011 O.co2   1  UNL1       -0.5446
     27 O           3.3187    0.6372   33.2347 O.co2   1  UNL1       -0.5446
     28 C           1.4413    2.9828   24.4160 C.3     1  UNL1        0.1054
     29 C           1.9021    1.6835   25.0070 C.3     1  UNL1        0.1486
     30 C           0.9207    0.9441   24.1467 C.3     1  UNL1        0.0368
     31 C           2.8835    2.4227   25.8674 C.3     1  UNL1        0.0368
     32 F           2.3628    0.3841   25.5980 F       1  UNL1       -0.2386
@<TRIPOS>UNITY_ATOM_ATTR
26 1
charge -1
@<TRIPOS>BOND
     1     2     1    1
     2     2     3    1
     3     3     4    1
     4     4     5    2
     5     5     6    1
     6     6     7    2
     7     7     8    1
     8     8     9    2
     9     9    10    1
    10    10    11    2
    11    11    12    1
    12     5    13    1
    13    13    15    1
    14    15    16   ar
    15    16    17    1
    16    16    18   ar
    17    18    19   ar
    18    19    23    1
    19    23    24    2
    20    24    25    1
    21    25    26   ar
    22    25    27   ar
    23    19    20   ar
    24    20    21   ar
    25    21    22    1
    26    13    14    1
    27    14    28    1
    28    28    29    1
    29    29    30    1
    30    29    31    1
    31    29    32    1
    32    14     2    1
    33    12     4    1
    34    21    15   ar
    35    12     8    1
