@<TRIPOS>MOLECULE
*****
 28 31 0 0 0
SMALL
GASTEIGER

@<TRIPOS>ATOM
      1 C           0.1369    4.9641   27.5821 C.3     1  UNL1        0.0233
      2 C          -0.0032    3.5372   28.0231 C.3     1  UNL1        0.0953
      3 C           0.9187    2.9810   29.0674 C.3     1  UNL1        0.1106
      4 N           0.7786    1.5542   29.5085 N.pl3   1  UNL1       -0.3041
      5 C          -0.2835    0.6836   28.9052 C.3     1  UNL1        0.1123
      6 C          -1.2054    1.2398   27.8609 C.3     1  UNL1        0.1149
      7 N          -1.0653    2.6666   27.4199 N.pl3   1  UNL1       -0.2777
      8 C          -1.9873    3.2228   26.3755 C.ar    1  UNL1        0.2035
      9 N          -3.2646    3.8949   26.7839 N.ar    1  UNL1       -0.2133
     10 C          -4.1866    4.4510   25.7396 C.ar    1  UNL1        0.1065
     11 C          -3.8313    4.3352   24.2869 C.ar    1  UNL1        0.0815
     12 C          -2.5540    3.6631   23.8785 C.ar    1  UNL1        0.2646
     13 O          -2.1987    3.5472   22.4258 O.2     1  UNL1       -0.2668
     14 N          -1.6320    3.1069   24.9228 N.ar    1  UNL1       -0.2667
     15 C          -0.3547    2.4348   24.5145 C.3     1  UNL1        0.1363
     16 C          -5.4639    5.1231   26.1480 C.ar    1  UNL1        0.1024
     17 C          -6.5210    5.4107   25.1234 C.ar    1  UNL1        0.0414
     18 C          -7.7983    6.0828   25.5317 C.ar    1  UNL1        0.1023
     19 N          -8.0186    6.4672   26.9648 N.ar    1  UNL1       -0.2224
     20 C          -6.9615    6.1797   27.9895 C.ar    1  UNL1        0.1989
     21 N          -5.6842    5.5076   27.5811 N.ar    1  UNL1       -0.2224
     22 C           1.7006    0.9980   30.5528 C.ar    1  UNL1        0.0480
     23 C           2.4212   -0.2942   30.3057 C.ar    1  UNL1        0.0154
     24 C           3.3431   -0.8504   31.3500 C.ar    1  UNL1        0.0127
     25 C           3.5446   -0.1144   32.6415 C.ar    1  UNL1        0.0578
     26 CL          4.4666   -0.6706   33.6858 Cl      1  UNL1       -0.0822
     27 C           2.8240    1.1778   32.8886 C.ar    1  UNL1        0.0127
     28 C           1.9020    1.7340   31.8442 C.ar    1  UNL1        0.0154
@<TRIPOS>BOND
     1     2     1    1
     2     2     3    1
     3     3     4    1
     4     4    22    1
     5    22    23   ar
     6    23    24   ar
     7    24    25   ar
     8    25    26    1
     9    25    27   ar
    10    27    28   ar
    11     4     5    1
    12     5     6    1
    13     6     7    1
    14     7     8    1
    15     8     9   ar
    16     9    10   ar
    17    10    16    1
    18    16    17   ar
    19    17    18   ar
    20    18    19   ar
    21    19    20   ar
    22    20    21   ar
    23    10    11   ar
    24    11    12   ar
    25    12    13    2
    26    12    14   ar
    27    14    15    1
    28     7     2    1
    29    14     8   ar
    30    28    22   ar
    31    21    16   ar
@<TRIPOS>MOLECULE
*****
 28 31 0 0 0
SMALL
GASTEIGER

@<TRIPOS>ATOM
      1 C           1.3249    3.2033   22.4727 C.3     1  UNL1        0.0233
      2 C           1.4262    1.8553   21.8227 C.3     1  UNL1        0.0953
      3 C           2.4220    0.8528   22.3261 C.3     1  UNL1        0.1106
      4 N           2.5234   -0.4952   21.6760 N.pl3   1  UNL1       -0.3041
      5 C           1.6290   -0.8408   20.5226 C.3     1  UNL1        0.1123
      6 C           0.6331    0.1616   20.0192 C.3     1  UNL1        0.1149
      7 N           0.5318    1.5097   20.6692 N.pl3   1  UNL1       -0.2777
      8 C          -0.4641    2.5121   20.1658 C.ar    1  UNL1        0.2035
      9 N          -1.7946    2.6531   20.8439 N.ar    1  UNL1       -0.2133
     10 C          -2.7905    3.6555   20.3405 C.ar    1  UNL1        0.1065
     11 C          -2.4559    4.5169   19.1589 C.ar    1  UNL1        0.0815
     12 C          -1.1254    4.3759   18.4808 C.ar    1  UNL1        0.2646
     13 O          -0.7907    5.2372   17.2993 O.2     1  UNL1       -0.2668
     14 N          -0.1295    3.3734   18.9842 N.ar    1  UNL1       -0.2667
     15 C           1.2010    3.2324   18.3061 C.3     1  UNL1        0.1363
     16 C          -4.1210    3.7966   21.0187 C.ar    1  UNL1        0.1024
     17 C          -4.2750    3.4017   22.4575 C.ar    1  UNL1        0.0414
     18 C          -5.6055    3.5428   23.1356 C.ar    1  UNL1        0.1023
     19 N          -6.7820    4.0787   22.3749 N.ar    1  UNL1       -0.2224
     20 C          -6.6280    4.4735   20.9360 C.ar    1  UNL1        0.1989
     21 N          -5.2975    4.3325   20.2579 N.ar    1  UNL1       -0.2224
     22 C           3.5193   -1.4976   22.1795 C.ar    1  UNL1        0.0480
     23 C           3.9771   -1.4481   23.6071 C.ar    1  UNL1        0.0154
     24 C           4.9729   -2.4505   24.1106 C.ar    1  UNL1        0.0127
     25 C           5.5110   -3.5024   23.1864 C.ar    1  UNL1        0.0578
     26 CL          6.5068   -4.5048   23.6899 Cl      1  UNL1       -0.0822
     27 C           5.0532   -3.5519   21.7589 C.ar    1  UNL1        0.0127
     28 C           4.0573   -2.5495   21.2554 C.ar    1  UNL1        0.0154
@<TRIPOS>BOND
     1     2     1    1
     2     2     3    1
     3     3     4    1
     4     4    22    1
     5    22    23   ar
     6    23    24   ar
     7    24    25   ar
     8    25    26    1
     9    25    27   ar
    10    27    28   ar
    11     4     5    1
    12     5     6    1
    13     6     7    1
    14     7     8    1
    15     8     9   ar
    16     9    10   ar
    17    10    16    1
    18    16    17   ar
    19    17    18   ar
    20    18    19   ar
    21    19    20   ar
    22    20    21   ar
    23    10    11   ar
    24    11    12   ar
    25    12    13    2
    26    12    14   ar
    27    14    15    1
    28     7     2    1
    29    14     8   ar
    30    28    22   ar
    31    21    16   ar
@<TRIPOS>MOLECULE
*****
 28 31 0 0 0
SMALL
GASTEIGER

@<TRIPOS>ATOM
      1 C           4.8632    1.5049   21.4215 C.3     1  UNL1        0.0233
      2 C           3.4711    1.0117   21.1590 C.3     1  UNL1        0.0953
      3 C           2.2959    1.9033   21.4305 C.3     1  UNL1        0.1106
      4 N           0.9038    1.4101   21.1680 N.pl3   1  UNL1       -0.3041
      5 C           0.6870    0.0253   20.6340 C.3     1  UNL1        0.1123
      6 C           1.8622   -0.8664   20.3625 C.3     1  UNL1        0.1149
      7 N           3.2543   -0.3732   20.6250 N.pl3   1  UNL1       -0.2777
      8 C           4.4296   -1.2649   20.3535 C.ar    1  UNL1        0.2035
      9 N           4.9983   -2.1117   21.4532 N.ar    1  UNL1       -0.2133
     10 C           6.1736   -3.0034   21.1817 C.ar    1  UNL1        0.1065
     11 C           6.7801   -3.0483   19.8105 C.ar    1  UNL1        0.0815
     12 C           6.2113   -2.2014   18.7108 C.ar    1  UNL1        0.2646
     13 O           6.8178   -2.2462   17.3396 O.2     1  UNL1       -0.2668
     14 N           5.0361   -1.3097   18.9823 N.ar    1  UNL1       -0.2667
     15 C           4.4673   -0.4628   17.8826 C.3     1  UNL1        0.1363
     16 C           6.7423   -3.8503   22.2814 C.ar    1  UNL1        0.1024
     17 C           6.2297   -3.7025   23.6833 C.ar    1  UNL1        0.0414
     18 C           6.7984   -4.5494   24.7830 C.ar    1  UNL1        0.1023
     19 N           7.8798   -5.5440   24.4808 N.ar    1  UNL1       -0.2224
     20 C           8.3925   -5.6918   23.0789 C.ar    1  UNL1        0.1989
     21 N           7.8237   -4.8449   21.9792 N.ar    1  UNL1       -0.2224
     22 C          -0.2715    2.3018   21.4395 C.ar    1  UNL1        0.0480
     23 C          -0.5077    2.8307   22.8231 C.ar    1  UNL1        0.0154
     24 C          -1.6829    3.7224   23.0947 C.ar    1  UNL1        0.0127
     25 C          -2.6219    4.0852   21.9826 C.ar    1  UNL1        0.0578
     26 CL         -3.7971    4.9768   22.2541 Cl      1  UNL1       -0.0822
     27 C          -2.3857    3.5562   20.5990 C.ar    1  UNL1        0.0127
     28 C          -1.2104    2.6645   20.3274 C.ar    1  UNL1        0.0154
@<TRIPOS>BOND
     1     2     1    1
     2     2     3    1
     3     3     4    1
     4     4    22    1
     5    22    23   ar
     6    23    24   ar
     7    24    25   ar
     8    25    26    1
     9    25    27   ar
    10    27    28   ar
    11     4     5    1
    12     5     6    1
    13     6     7    1
    14     7     8    1
    15     8     9   ar
    16     9    10   ar
    17    10    16    1
    18    16    17   ar
    19    17    18   ar
    20    18    19   ar
    21    19    20   ar
    22    20    21   ar
    23    10    11   ar
    24    11    12   ar
    25    12    13    2
    26    12    14   ar
    27    14    15    1
    28     7     2    1
    29    14     8   ar
    30    28    22   ar
    31    21    16   ar
@<TRIPOS>MOLECULE
*****
 28 31 0 0 0
SMALL
GASTEIGER

@<TRIPOS>ATOM
      1 C           6.5197    0.0730   21.2812 C.3     1  UNL1        0.0233
      2 C           6.0145   -1.2382   21.8060 C.3     1  UNL1        0.0953
      3 C           6.7493   -1.9368   22.9114 C.3     1  UNL1        0.1106
      4 N           6.2441   -3.2480   23.4363 N.pl3   1  UNL1       -0.3041
      5 C           5.0041   -3.8606   22.8558 C.3     1  UNL1        0.1123
      6 C           4.2693   -3.1620   21.7504 C.3     1  UNL1        0.1149
      7 N           4.7745   -1.8508   21.2255 N.pl3   1  UNL1       -0.2777
      8 C           4.0397   -1.1522   20.1201 C.ar    1  UNL1        0.2035
      9 N           2.9468   -0.1774   20.4449 N.ar    1  UNL1       -0.2133
     10 C           2.2119    0.5212   19.3395 C.ar    1  UNL1        0.1065
     11 C           2.5699    0.2451   17.9092 C.ar    1  UNL1        0.0815
     12 C           3.6628   -0.7297   17.5844 C.ar    1  UNL1        0.2646
     13 O           4.0208   -1.0058   16.1542 O.2     1  UNL1       -0.2668
     14 N           4.3976   -1.4283   18.6898 N.ar    1  UNL1       -0.2667
     15 C           5.4905   -2.4031   18.3650 C.3     1  UNL1        0.1363
     16 C           1.1191    1.4959   19.6644 C.ar    1  UNL1        0.1024
     17 C           0.5725    2.3938   18.5944 C.ar    1  UNL1        0.0414
     18 C          -0.5204    3.3686   18.9192 C.ar    1  UNL1        0.1023
     19 N          -1.0666    3.4455   20.3141 N.ar    1  UNL1       -0.2224
     20 C          -0.5200    2.5475   21.3842 C.ar    1  UNL1        0.1989
     21 N           0.5728    1.5728   21.0593 N.ar    1  UNL1       -0.2224
     22 C           6.9790   -3.9466   24.5418 C.ar    1  UNL1        0.0480
     23 C           7.0317   -3.3355   25.9106 C.ar    1  UNL1        0.0154
     24 C           7.7665   -4.0341   27.0161 C.ar    1  UNL1        0.0127
     25 C           8.4487   -5.3438   26.7527 C.ar    1  UNL1        0.0578
     26 CL          9.1836   -6.0423   27.8581 Cl      1  UNL1       -0.0822
     27 C           8.3961   -5.9549   25.3838 C.ar    1  UNL1        0.0127
     28 C           7.6612   -5.2563   24.2783 C.ar    1  UNL1        0.0154
@<TRIPOS>BOND
     1     2     1    1
     2     2     3    1
     3     3     4    1
     4     4    22    1
     5    22    23   ar
     6    23    24   ar
     7    24    25   ar
     8    25    26    1
     9    25    27   ar
    10    27    28   ar
    11     4     5    1
    12     5     6    1
    13     6     7    1
    14     7     8    1
    15     8     9   ar
    16     9    10   ar
    17    10    16    1
    18    16    17   ar
    19    17    18   ar
    20    18    19   ar
    21    19    20   ar
    22    20    21   ar
    23    10    11   ar
    24    11    12   ar
    25    12    13    2
    26    12    14   ar
    27    14    15    1
    28     7     2    1
    29    14     8   ar
    30    28    22   ar
    31    21    16   ar
@<TRIPOS>MOLECULE
*****
 28 31 0 0 0
SMALL
GASTEIGER

@<TRIPOS>ATOM
      1 C          -0.1534    2.8822   18.2012 C.3     1  UNL1        0.0233
      2 C          -0.4679    2.8888   19.6678 C.3     1  UNL1        0.0953
      3 C          -1.8498    3.2354   20.1369 C.3     1  UNL1        0.1106
      4 N          -2.1643    3.2420   21.6036 N.pl3   1  UNL1       -0.3041
      5 C          -1.0970    2.9020   22.6011 C.3     1  UNL1        0.1123
      6 C           0.2849    2.5554   22.1319 C.3     1  UNL1        0.1149
      7 N           0.5995    2.5488   20.6653 N.pl3   1  UNL1       -0.2777
      8 C           1.9815    2.2022   20.1962 C.ar    1  UNL1        0.2035
      9 N           2.3463    0.7718   19.9297 N.ar    1  UNL1       -0.2133
     10 C           3.7282    0.4252   19.4606 C.ar    1  UNL1        0.1065
     11 C           4.7454    1.5089   19.2579 C.ar    1  UNL1        0.0815
     12 C           4.3806    2.9392   19.5244 C.ar    1  UNL1        0.2646
     13 O           5.3976    4.0229   19.3217 O.2     1  UNL1       -0.2668
     14 N           2.9986    3.2859   19.9935 N.ar    1  UNL1       -0.2667
     15 C           2.6337    4.7162   20.2600 C.3     1  UNL1        0.1363
     16 C           4.0931   -1.0052   19.1942 C.ar    1  UNL1        0.1024
     17 C           3.1704   -2.1071   19.6237 C.ar    1  UNL1        0.0414
     18 C           3.5352   -3.5374   19.3572 C.ar    1  UNL1        0.1023
     19 N           4.8227   -3.8659   18.6612 N.ar    1  UNL1       -0.2224
     20 C           5.7454   -2.7640   18.2317 C.ar    1  UNL1        0.1989
     21 N           5.3806   -1.3336   18.4981 N.ar    1  UNL1       -0.2224
     22 C          -3.5463    3.5886   22.0727 C.ar    1  UNL1        0.0480
     23 C          -3.8714    3.5570   23.5367 C.ar    1  UNL1        0.0154
     24 C          -5.2533    3.9036   24.0059 C.ar    1  UNL1        0.0127
     25 C          -6.3103    4.2819   23.0110 C.ar    1  UNL1        0.0578
     26 CL         -7.6922    4.6285   23.4801 Cl      1  UNL1       -0.0822
     27 C          -5.9852    4.3135   21.5470 C.ar    1  UNL1        0.0127
     28 C          -4.6032    3.9669   21.0778 C.ar    1  UNL1        0.0154
@<TRIPOS>BOND
     1     2     1    1
     2     2     3    1
     3     3     4    1
     4     4    22    1
     5    22    23   ar
     6    23    24   ar
     7    24    25   ar
     8    25    26    1
     9    25    27   ar
    10    27    28   ar
    11     4     5    1
    12     5     6    1
    13     6     7    1
    14     7     8    1
    15     8     9   ar
    16     9    10   ar
    17    10    16    1
    18    16    17   ar
    19    17    18   ar
    20    18    19   ar
    21    19    20   ar
    22    20    21   ar
    23    10    11   ar
    24    11    12   ar
    25    12    13    2
    26    12    14   ar
    27    14    15    1
    28     7     2    1
    29    14     8   ar
    30    28    22   ar
    31    21    16   ar
@<TRIPOS>MOLECULE
*****
 28 31 0 0 0
SMALL
GASTEIGER

@<TRIPOS>ATOM
      1 C           2.7270    3.6417   28.9447 C.3     1  UNL1        0.0233
      2 C           1.4803    2.9016   28.5598 C.3     1  UNL1        0.0953
      3 C           0.7021    3.3224   27.3485 C.3     1  UNL1        0.1106
      4 N          -0.5445    2.5823   26.9635 N.pl3   1  UNL1       -0.3041
      5 C          -1.0129    1.4214   27.7898 C.3     1  UNL1        0.1123
      6 C          -0.2347    1.0005   29.0011 C.3     1  UNL1        0.1149
      7 N           1.0119    1.7406   29.3861 N.pl3   1  UNL1       -0.2777
      8 C           1.7902    1.3197   30.5974 C.ar    1  UNL1        0.2035
      9 N           2.8164    0.2312   30.4886 N.ar    1  UNL1       -0.2133
     10 C           3.5946   -0.1897   31.6998 C.ar    1  UNL1        0.1065
     11 C           3.3466    0.4779   33.0200 C.ar    1  UNL1        0.0815
     12 C           2.3204    1.5665   33.1288 C.ar    1  UNL1        0.2646
     13 O           2.0723    2.2342   34.4489 O.2     1  UNL1       -0.2668
     14 N           1.5421    1.9874   31.9175 N.ar    1  UNL1       -0.2667
     15 C           0.5159    3.0760   32.0263 C.3     1  UNL1        0.1363
     16 C           4.6209   -1.2783   31.5910 C.ar    1  UNL1        0.1024
     17 C           4.7806   -2.2723   32.7029 C.ar    1  UNL1        0.0414
     18 C           5.8069   -3.3609   32.5941 C.ar    1  UNL1        0.1023
     19 N           6.6734   -3.4554   31.3734 N.ar    1  UNL1       -0.2224
     20 C           6.5136   -2.4614   30.2614 C.ar    1  UNL1        0.1989
     21 N           5.4874   -1.3728   30.3702 N.ar    1  UNL1       -0.2224
     22 C          -1.3227    3.0032   25.7522 C.ar    1  UNL1        0.0480
     23 C          -0.6726    2.9879   24.4005 C.ar    1  UNL1        0.0154
     24 C          -1.4507    3.4087   23.1891 C.ar    1  UNL1        0.0127
     25 C          -2.8791    3.8449   23.3295 C.ar    1  UNL1        0.0578
     26 CL         -3.6572    4.2658   22.1182 Cl      1  UNL1       -0.0822
     27 C          -3.5292    3.8603   24.6812 C.ar    1  UNL1        0.0127
     28 C          -2.7510    3.4394   25.8926 C.ar    1  UNL1        0.0154
@<TRIPOS>BOND
     1     2     1    1
     2     2     3    1
     3     3     4    1
     4     4    22    1
     5    22    23   ar
     6    23    24   ar
     7    24    25   ar
     8    25    26    1
     9    25    27   ar
    10    27    28   ar
    11     4     5    1
    12     5     6    1
    13     6     7    1
    14     7     8    1
    15     8     9   ar
    16     9    10   ar
    17    10    16    1
    18    16    17   ar
    19    17    18   ar
    20    18    19   ar
    21    19    20   ar
    22    20    21   ar
    23    10    11   ar
    24    11    12   ar
    25    12    13    2
    26    12    14   ar
    27    14    15    1
    28     7     2    1
    29    14     8   ar
    30    28    22   ar
    31    21    16   ar
@<TRIPOS>MOLECULE
*****
 28 31 0 0 0
SMALL
GASTEIGER

@<TRIPOS>ATOM
      1 C           2.0107    3.7019   20.9700 C.3     1  UNL1        0.0233
      2 C           1.8173    2.2335   20.7331 C.3     1  UNL1        0.0953
      3 C           2.9950    1.3055   20.7752 C.3     1  UNL1        0.1106
      4 N           2.8016   -0.1630   20.5383 N.pl3   1  UNL1       -0.3041
      5 C           1.4305   -0.7035   20.2592 C.3     1  UNL1        0.1123
      6 C           0.2528    0.2245   20.2171 C.3     1  UNL1        0.1149
      7 N           0.4462    1.6930   20.4540 N.pl3   1  UNL1       -0.2777
      8 C          -0.7316    2.6210   20.4119 C.ar    1  UNL1        0.2035
      9 N          -1.6129    2.7693   21.6165 N.ar    1  UNL1       -0.2133
     10 C          -2.7907    3.6973   21.5745 C.ar    1  UNL1        0.1065
     11 C          -3.0871    4.4769   20.3277 C.ar    1  UNL1        0.0815
     12 C          -2.2057    4.3286   19.1231 C.ar    1  UNL1        0.2646
     13 O          -2.5020    5.1082   17.8763 O.2     1  UNL1       -0.2668
     14 N          -1.0279    3.4006   19.1652 N.ar    1  UNL1       -0.2667
     15 C          -0.1465    3.2522   17.9605 C.3     1  UNL1        0.1363
     16 C          -3.6720    3.8456   22.7791 C.ar    1  UNL1        0.1024
     17 C          -3.0921    3.7025   24.1550 C.ar    1  UNL1        0.0414
     18 C          -3.9734    3.8508   25.3596 C.ar    1  UNL1        0.1023
     19 N          -5.4348    4.1423   25.1884 N.ar    1  UNL1       -0.2224
     20 C          -6.0149    4.2855   23.8125 C.ar    1  UNL1        0.1989
     21 N          -5.1335    4.1372   22.6078 N.ar    1  UNL1       -0.2224
     22 C           3.9794   -1.0910   20.5804 C.ar    1  UNL1        0.0480
     23 C           5.3134   -0.5891   21.0478 C.ar    1  UNL1        0.0154
     24 C           6.4911   -1.5170   21.0899 C.ar    1  UNL1        0.0127
     25 C           6.3349   -2.9470   20.6646 C.ar    1  UNL1        0.0578
     26 CL          7.5127   -3.8749   20.7068 Cl      1  UNL1       -0.0822
     27 C           5.0009   -3.4490   20.1973 C.ar    1  UNL1        0.0127
     28 C           3.8231   -2.5210   20.1551 C.ar    1  UNL1        0.0154
@<TRIPOS>BOND
     1     2     1    1
     2     2     3    1
     3     3     4    1
     4     4    22    1
     5    22    23   ar
     6    23    24   ar
     7    24    25   ar
     8    25    26    1
     9    25    27   ar
    10    27    28   ar
    11     4     5    1
    12     5     6    1
    13     6     7    1
    14     7     8    1
    15     8     9   ar
    16     9    10   ar
    17    10    16    1
    18    16    17   ar
    19    17    18   ar
    20    18    19   ar
    21    19    20   ar
    22    20    21   ar
    23    10    11   ar
    24    11    12   ar
    25    12    13    2
    26    12    14   ar
    27    14    15    1
    28     7     2    1
    29    14     8   ar
    30    28    22   ar
    31    21    16   ar
@<TRIPOS>MOLECULE
*****
 28 31 0 0 0
SMALL
GASTEIGER

@<TRIPOS>ATOM
      1 C           5.3255    1.4787   29.0254 C.3     1  UNL1        0.0233
      2 C           3.9039    1.0002   29.0163 C.3     1  UNL1        0.0953
      3 C           2.9238    1.5798   28.0399 C.3     1  UNL1        0.1106
      4 N           1.5021    1.1014   28.0308 N.pl3   1  UNL1       -0.3041
      5 C           1.0607    0.0433   28.9980 C.3     1  UNL1        0.1123
      6 C           2.0409   -0.5363   29.9744 C.3     1  UNL1        0.1149
      7 N           3.4625   -0.0578   29.9835 N.pl3   1  UNL1       -0.2777
      8 C           4.4427   -0.6375   30.9599 C.ar    1  UNL1        0.2035
      9 N           5.2971   -1.8043   30.5617 N.ar    1  UNL1       -0.2133
     10 C           6.2773   -2.3839   31.5380 C.ar    1  UNL1        0.1065
     11 C           6.4030   -1.7968   32.9126 C.ar    1  UNL1        0.0815
     12 C           5.5486   -0.6301   33.3109 C.ar    1  UNL1        0.2646
     13 O           5.6743   -0.0429   34.6854 O.2     1  UNL1       -0.2668
     14 N           4.5684   -0.0504   32.3345 N.ar    1  UNL1       -0.2667
     15 C           3.7140    1.1164   32.7327 C.3     1  UNL1        0.1363
     16 C           7.1317   -3.5507   31.1397 C.ar    1  UNL1        0.1024
     17 C           8.5430   -3.6513   31.6376 C.ar    1  UNL1        0.0414
     18 C           9.3975   -4.8181   31.2394 C.ar    1  UNL1        0.1023
     19 N           8.8405   -5.8843   30.3433 N.ar    1  UNL1       -0.2224
     20 C           7.4291   -5.7837   29.8453 C.ar    1  UNL1        0.1989
     21 N           6.5747   -4.6169   30.2436 N.ar    1  UNL1       -0.2224
     22 C           0.5220    1.6810   27.0544 C.ar    1  UNL1        0.0480
     23 C          -0.6766    2.4332   27.5520 C.ar    1  UNL1        0.0154
     24 C          -1.6568    3.0128   26.5757 C.ar    1  UNL1        0.0127
     25 C          -1.4384    2.8403   25.1017 C.ar    1  UNL1        0.0578
     26 CL         -2.4186    3.4200   24.1254 Cl      1  UNL1       -0.0822
     27 C          -0.2398    2.0882   24.6041 C.ar    1  UNL1        0.0127
     28 C           0.7404    1.5085   25.5805 C.ar    1  UNL1        0.0154
@<TRIPOS>BOND
     1     2     1    1
     2     2     3    1
     3     3     4    1
     4     4    22    1
     5    22    23   ar
     6    23    24   ar
     7    24    25   ar
     8    25    26    1
     9    25    27   ar
    10    27    28   ar
    11     4     5    1
    12     5     6    1
    13     6     7    1
    14     7     8    1
    15     8     9   ar
    16     9    10   ar
    17    10    16    1
    18    16    17   ar
    19    17    18   ar
    20    18    19   ar
    21    19    20   ar
    22    20    21   ar
    23    10    11   ar
    24    11    12   ar
    25    12    13    2
    26    12    14   ar
    27    14    15    1
    28     7     2    1
    29    14     8   ar
    30    28    22   ar
    31    21    16   ar
@<TRIPOS>MOLECULE
*****
 28 31 0 0 0
SMALL
GASTEIGER

@<TRIPOS>ATOM
      1 C           2.7478    3.6694   29.2469 C.3     1  UNL1        0.0233
      2 C           1.4988    2.9233   28.8819 C.3     1  UNL1        0.0953
      3 C           0.7278    3.3068   27.6537 C.3     1  UNL1        0.1106
      4 N          -0.5212    2.5607   27.2887 N.pl3   1  UNL1       -0.3041
      5 C          -0.9992    1.4309   28.1519 C.3     1  UNL1        0.1123
      6 C          -0.2283    1.0473   29.3801 C.3     1  UNL1        0.1149
      7 N           1.0207    1.7935   29.7451 N.pl3   1  UNL1       -0.2777
      8 C           1.7917    1.4099   30.9733 C.ar    1  UNL1        0.2035
      9 N           1.6399    2.2084   32.2340 N.ar    1  UNL1       -0.2133
     10 C           2.4108    1.8248   33.4622 C.ar    1  UNL1        0.1065
     11 C           3.3336    0.6427   33.4297 C.ar    1  UNL1        0.0815
     12 C           3.4855   -0.1558   32.1690 C.ar    1  UNL1        0.2646
     13 O           4.4082   -1.3379   32.1366 O.2     1  UNL1       -0.2668
     14 N           2.7145    0.2278   30.9408 N.ar    1  UNL1       -0.2667
     15 C           2.8663   -0.5707   29.6801 C.3     1  UNL1        0.1363
     16 C           2.2589    2.6234   34.7228 C.ar    1  UNL1        0.1024
     17 C           1.7491    4.0327   34.6611 C.ar    1  UNL1        0.0414
     18 C           1.5973    4.8312   35.9218 C.ar    1  UNL1        0.1023
     19 N           1.9552    4.2204   37.2442 N.ar    1  UNL1       -0.2224
     20 C           2.4651    2.8110   37.3059 C.ar    1  UNL1        0.1989
     21 N           2.6170    2.0125   36.0453 N.ar    1  UNL1       -0.2224
     22 C          -1.2922    2.9443   26.0605 C.ar    1  UNL1        0.0480
     23 C          -0.6542    2.8286   24.7079 C.ar    1  UNL1        0.0154
     24 C          -1.4251    3.2122   23.4797 C.ar    1  UNL1        0.0127
     25 C          -2.8341    3.7115   23.6041 C.ar    1  UNL1        0.0578
     26 CL         -3.6050    4.0951   22.3759 Cl      1  UNL1       -0.0822
     27 C          -3.4721    3.8272   24.9567 C.ar    1  UNL1        0.0127
     28 C          -2.7011    3.4436   26.1849 C.ar    1  UNL1        0.0154
@<TRIPOS>BOND
     1     2     1    1
     2     2     3    1
     3     3     4    1
     4     4    22    1
     5    22    23   ar
     6    23    24   ar
     7    24    25   ar
     8    25    26    1
     9    25    27   ar
    10    27    28   ar
    11     4     5    1
    12     5     6    1
    13     6     7    1
    14     7     8    1
    15     8     9   ar
    16     9    10   ar
    17    10    16    1
    18    16    17   ar
    19    17    18   ar
    20    18    19   ar
    21    19    20   ar
    22    20    21   ar
    23    10    11   ar
    24    11    12   ar
    25    12    13    2
    26    12    14   ar
    27    14    15    1
    28     7     2    1
    29    14     8   ar
    30    28    22   ar
    31    21    16   ar
