@<TRIPOS>MOLECULE
*****
 59 64 0 0 0
SMALL
GASTEIGER

@<TRIPOS>ATOM
      1 C           5.7857   -2.7237   26.0346 C.ar    1  UNL1        0.0194
      2 C           6.5435   -3.4494   27.1065 C.ar    1  UNL1        0.0016
      3 C           6.4286   -3.0086   28.5356 C.ar    1  UNL1        0.0000
      4 C           5.5559   -1.8421   28.8928 C.ar    1  UNL1        0.0000
      5 C           4.7981   -1.1163   27.8209 C.ar    1  UNL1        0.0000
      6 C           4.9130   -1.5571   26.3918 C.ar    1  UNL1        0.0016
      7 C           5.3669   -3.6347   22.2848 C.ar    1  UNL1        0.1377
      8 N           6.7876   -4.0506   22.5273 N.ar    1  UNL1       -0.2021
      9 C           7.1174   -3.7600   23.9614 C.ar    1  UNL1        0.2390
     10 F           8.4330   -4.0193   24.6336 F       1  UNL1       -0.1816
     11 C           5.9006   -3.1644   24.6053 C.ar    1  UNL1        0.1040
     12 N           4.8187   -3.0870   23.5692 N.ar    1  UNL1       -0.3376
     13 H           3.9087   -2.7380   23.7077 H       1  UNL1        0.1672
     14 C           4.1822   -1.1502   20.5320 C.2     1  UNL1        0.2439
     15 O           4.8802   -0.7300   21.7914 O.2     1  UNL1       -0.2731
     16 N           4.0803   -2.6048   20.1805 N.am    1  UNL1       -0.2730
     17 C           3.4159   -3.1728   18.9615 C.3     1  UNL1        0.0939
     18 C           3.5498   -4.6659   19.0138 C.3     1  UNL1        0.0237
     19 C           4.2970   -5.0207   20.2651 C.3     1  UNL1        0.0293
     20 C           4.6248   -3.7468   20.9861 C.3     1  UNL1        0.1320
     21 C           3.5860   -0.1156   19.6240 C.3     1  UNL1        0.1512
     22 C           5.0387    0.4260   17.5392 C.2     1  UNL1        0.4021
     23 O           4.7059   -0.9164   16.9585 O.2     1  UNL1       -0.2264
     24 N           4.4788    0.8264   18.8720 N.am    1  UNL1       -0.2640
     25 H           4.6973    1.7074   19.2531 H       1  UNL1        0.1532
     26 C           7.4158    1.1516   16.7823 C.3     1  UNL1        0.2573
     27 O           5.9315    1.3680   16.7872 O.3     1  UNL1       -0.4306
     28 C           2.0970   -0.0231   19.4681 C.3     1  UNL1        0.0270
     29 C           1.5090    0.5905   18.2322 C.3     1  UNL1        0.0022
     30 C           1.1959   -0.5443   20.5482 C.3     1  UNL1        0.0022
     31 C           5.4410   -1.4013   30.3220 C.ar    1  UNL1        0.0000
     32 C           5.8161   -2.3412   31.4292 C.ar    1  UNL1        0.0001
     33 C           5.7012   -1.9004   32.8584 C.ar    1  UNL1        0.0036
     34 C           5.2112   -0.5197   33.1804 C.ar    1  UNL1        0.0461
     35 C           4.8362    0.4202   32.0731 C.ar    1  UNL1        0.0036
     36 C           4.9511   -0.0206   30.6440 C.ar    1  UNL1        0.0001
     37 C           5.0963   -0.0789   34.6095 C.2     1  UNL1        0.2537
     38 N           3.8585    0.4480   35.2729 N.2     1  UNL1       -0.0343
     39 C           4.1962    0.7650   36.6996 C.2     1  UNL1        0.3673
     40 N           5.6429    0.4339   36.9179 N.2     1  UNL1       -0.0209
     41 C           6.1991   -0.0877   35.6262 C.3     1  UNL1        0.4358
     42 F           7.6104   -0.5388   35.3923 F       1  UNL1       -0.1710
     43 C           3.2530    1.3162   37.7274 C.3     1  UNL1        0.1875
     44 C           2.3685    0.5122   38.6336 C.3     1  UNL1        0.0344
     45 C           1.5975    1.4673   39.4957 C.3     1  UNL1        0.0238
     46 C           2.0055    2.8616   39.1224 C.3     1  UNL1        0.0940
     47 N           3.0287    2.7682   38.0294 N.am    1  UNL1       -0.2691
     48 C           3.7082    3.9239   37.3567 C.2     1  UNL1        0.2440
     49 O           4.7156    3.6747   36.2738 O.2     1  UNL1       -0.2731
     50 C           3.3802    5.3290   37.7671 C.3     1  UNL1        0.1512
     51 N           4.0501    5.9367   38.9637 N.am    1  UNL1       -0.2640
     52 C           5.4314    6.5084   38.8402 C.2     1  UNL1        0.4021
     53 O           6.1428    6.4724   37.5201 O.2     1  UNL1       -0.2264
     54 H           3.5833    5.9603   39.8301 H       1  UNL1        0.1532
     55 O           6.1013    7.1161   40.0368 O.3     1  UNL1       -0.4306
     56 C           5.7608    6.6303   41.4144 C.3     1  UNL1        0.2573
     57 C           2.3822    6.1264   36.9808 C.3     1  UNL1        0.0270
     58 C           1.2694    5.4295   36.2557 C.3     1  UNL1        0.0022
     59 C           2.4971    7.6208   36.9197 C.3     1  UNL1        0.0022
@<TRIPOS>BOND
     1    26    27    1
     2    27    22    1
     3    22    23    2
     4    22    24   am
     5    21    24    1
     6    21    14    1
     7    14    15    2
     8    14    16   am
     9    16    17    1
    10    17    18    1
    11    18    19    1
    12    19    20    1
    13    20     7    1
    14     7     8   ar
    15     8     9   ar
    16     9    10    1
    17     9    11   ar
    18    11     1    1
    19     1     2   ar
    20     2     3   ar
    21     3     4   ar
    22     4    31    1
    23    31    32   ar
    24    32    33   ar
    25    33    34   ar
    26    34    37    1
    27    37    38    2
    28    38    39    1
    29    43    39    1
    30    43    44    1
    31    44    45    1
    32    45    46    1
    33    46    47    1
    34    47    48   am
    35    48    49    2
    36    48    50    1
    37    50    51    1
    38    51    52   am
    39    52    53    2
    40    52    55    1
    41    55    56    1
    42    50    57    1
    43    57    58    1
    44    57    59    1
    45    39    40    2
    46    40    41    1
    47    41    42    1
    48    34    35   ar
    49    35    36   ar
    50     4     5   ar
    51     5     6   ar
    52    11    12   ar
    53    21    28    1
    54    28    29    1
    55    28    30    1
    56    20    16    1
    57    12     7   ar
    58     6     1   ar
    59    36    31   ar
    60    41    37    1
    61    47    43    1
    62    24    25    1
    63    51    54    1
    64    12    13    1
@<TRIPOS>MOLECULE
*****
 59 64 0 0 0
SMALL
GASTEIGER

@<TRIPOS>ATOM
      1 C           1.1054    1.3671   23.1007 C.ar    1  UNL1        0.0194
      2 C           0.1818    1.7376   24.2230 C.ar    1  UNL1        0.0016
      3 C           0.6314    1.5843   25.6458 C.ar    1  UNL1        0.0000
      4 C           2.0045    1.0606   25.9462 C.ar    1  UNL1        0.0000
      5 C           2.9281    0.6902   24.8239 C.ar    1  UNL1        0.0000
      6 C           2.4785    0.8435   23.4011 C.ar    1  UNL1        0.0016
      7 C          -0.2157    2.4721   19.6222 C.ar    1  UNL1        0.1377
      8 N           0.1439    1.0406   19.3544 N.ar    1  UNL1       -0.2021
      9 C           0.6826    0.4525   20.6248 C.ar    1  UNL1        0.2390
     10 F           1.1634   -0.9562   20.8097 F       1  UNL1       -0.1816
     11 C           0.6559    1.5204   21.6778 C.ar    1  UNL1        0.1040
     12 N           0.1007    2.7686   21.0581 N.ar    1  UNL1       -0.3376
     13 H          -0.0326    3.6310   21.5139 H       1  UNL1        0.1672
     14 C          -3.1651    3.8594   19.7815 C.2     1  UNL1        0.2439
     15 O          -2.8642    2.9332   20.9223 O.2     1  UNL1       -0.2731
     16 N          -2.1464    4.0751   18.7018 N.am    1  UNL1       -0.2730
     17 C          -2.3046    4.9664   17.5057 C.3     1  UNL1        0.0939
     18 C          -1.0466    4.8796   16.6933 C.3     1  UNL1        0.0237
     19 C          -0.1110    3.9346   17.3873 C.3     1  UNL1        0.0293
     20 C          -0.7907    3.4375   18.6285 C.3     1  UNL1        0.1320
     21 C          -4.4847    4.5700   19.7202 C.3     1  UNL1        0.1512
     22 C          -5.4131    5.3932   22.0029 C.2     1  UNL1        0.4021
     23 O          -5.7518    3.9801   22.3748 O.2     1  UNL1       -0.2264
     24 N          -4.7796    5.6882   20.6756 N.am    1  UNL1       -0.2640
     25 H          -4.5573    6.6157   20.4315 H       1  UNL1        0.1532
     26 C          -6.8490    6.3913   23.9244 C.3     1  UNL1        0.2573
     27 O          -5.7079    6.5115   22.9581 O.3     1  UNL1       -0.4306
     28 C          -5.5095    4.1623   18.7036 C.3     1  UNL1        0.0270
     29 C          -5.6547    4.9423   17.4306 C.3     1  UNL1        0.0022
     30 C          -6.3893    2.9747   18.9599 C.3     1  UNL1        0.0022
     31 C           2.4541    0.9073   27.3691 C.ar    1  UNL1        0.0000
     32 C           1.5969    0.1643   28.3505 C.ar    1  UNL1        0.0001
     33 C           2.0465    0.0111   29.7734 C.ar    1  UNL1        0.0036
     34 C           3.3532    0.6008   30.2148 C.ar    1  UNL1        0.0461
     35 C           4.2103    1.3438   29.2332 C.ar    1  UNL1        0.0036
     36 C           3.7608    1.4970   27.8104 C.ar    1  UNL1        0.0001
     37 C           3.8027    0.4475   31.6375 C.2     1  UNL1        0.2537
     38 N           4.2590    1.5538   32.5421 N.2     1  UNL1       -0.0343
     39 C           4.6132    0.9511   33.8692 C.2     1  UNL1        0.3673
     40 N           4.3758   -0.5276   33.7849 N.2     1  UNL1       -0.0209
     41 C           3.8749   -0.8388   32.4057 C.3     1  UNL1        0.4358
     42 F           3.5103   -2.1978   31.8859 F       1  UNL1       -0.1710
     43 C           5.1165    1.6963   35.0698 C.3     1  UNL1        0.1875
     44 C           6.5287    1.7028   35.5753 C.3     1  UNL1        0.0344
     45 C           6.5808    2.5763   36.7936 C.3     1  UNL1        0.0238
     46 C           5.2008    3.1096   37.0410 C.3     1  UNL1        0.0940
     47 N           4.2958    2.5656   35.9756 N.am    1  UNL1       -0.2691
     48 C           2.8278    2.8425   35.8399 C.2     1  UNL1        0.2440
     49 O           2.0486    2.2246   34.7170 O.2     1  UNL1       -0.2731
     50 C           2.1391    3.7375   36.8273 C.3     1  UNL1        0.1512
     51 N           1.2607    3.1464   37.8899 N.am    1  UNL1       -0.2640
     52 C           1.8639    2.6469   39.1692 C.2     1  UNL1        0.4021
     53 O           3.3453    2.7383   39.3859 O.2     1  UNL1       -0.2264
     54 H           0.2884    3.0864   37.7477 H       1  UNL1        0.1532
     55 O           0.9856    2.0558   40.2319 O.3     1  UNL1       -0.4306
     56 C           0.8235    0.5678   40.3291 C.3     1  UNL1        0.2573
     57 C           2.3286    5.2236   36.7519 C.3     1  UNL1        0.0270
     58 C           1.6419    6.0138   35.6778 C.3     1  UNL1        0.0022
     59 C           3.2050    5.9195   37.7509 C.3     1  UNL1        0.0022
@<TRIPOS>BOND
     1    26    27    1
     2    27    22    1
     3    22    23    2
     4    22    24   am
     5    21    24    1
     6    21    14    1
     7    14    15    2
     8    14    16   am
     9    16    17    1
    10    17    18    1
    11    18    19    1
    12    19    20    1
    13    20     7    1
    14     7     8   ar
    15     8     9   ar
    16     9    10    1
    17     9    11   ar
    18    11     1    1
    19     1     2   ar
    20     2     3   ar
    21     3     4   ar
    22     4    31    1
    23    31    32   ar
    24    32    33   ar
    25    33    34   ar
    26    34    37    1
    27    37    38    2
    28    38    39    1
    29    43    39    1
    30    43    44    1
    31    44    45    1
    32    45    46    1
    33    46    47    1
    34    47    48   am
    35    48    49    2
    36    48    50    1
    37    50    51    1
    38    51    52   am
    39    52    53    2
    40    52    55    1
    41    55    56    1
    42    50    57    1
    43    57    58    1
    44    57    59    1
    45    39    40    2
    46    40    41    1
    47    41    42    1
    48    34    35   ar
    49    35    36   ar
    50     4     5   ar
    51     5     6   ar
    52    11    12   ar
    53    21    28    1
    54    28    29    1
    55    28    30    1
    56    20    16    1
    57    12     7   ar
    58     6     1   ar
    59    36    31   ar
    60    41    37    1
    61    47    43    1
    62    24    25    1
    63    51    54    1
    64    12    13    1
@<TRIPOS>MOLECULE
*****
 59 64 0 0 0
SMALL
GASTEIGER

@<TRIPOS>ATOM
      1 C           5.8351   -2.8088   26.1296 C.ar    1  UNL1        0.0194
      2 C           6.5806   -3.5103   27.2259 C.ar    1  UNL1        0.0016
      3 C           6.4329   -3.0512   28.6462 C.ar    1  UNL1        0.0000
      4 C           5.5397   -1.8906   28.9702 C.ar    1  UNL1        0.0000
      5 C           4.7941   -1.1890   27.8739 C.ar    1  UNL1        0.0000
      6 C           4.9418   -1.6481   26.4536 C.ar    1  UNL1        0.0016
      7 C           5.5404   -3.6791   22.3584 C.ar    1  UNL1        0.1377
      8 N           6.8794   -4.2694   22.6884 N.ar    1  UNL1       -0.2021
      9 C           7.1528   -4.0151   24.1412 C.ar    1  UNL1        0.2390
     10 F           8.3806   -4.4346   24.8939 F       1  UNL1       -0.1816
     11 C           5.9828   -3.2678   24.7092 C.ar    1  UNL1        0.1040
     12 N           4.9863   -3.0602   23.6073 N.ar    1  UNL1       -0.3376
     13 H           4.1206   -2.5987   23.6895 H       1  UNL1        0.1672
     14 C           4.9126   -1.0849   20.4810 C.2     1  UNL1        0.2439
     15 O           5.5922   -0.7507   21.7758 O.2     1  UNL1       -0.2731
     16 N           4.5843   -2.5112   20.1525 N.am    1  UNL1       -0.2730
     17 C           3.9098   -2.9954   18.9033 C.3     1  UNL1        0.0939
     18 C           3.7815   -4.4871   18.9942 C.3     1  UNL1        0.0237
     19 C           4.3768   -4.9248   20.2996 C.3     1  UNL1        0.0293
     20 C           4.8729   -3.7036   21.0154 C.3     1  UNL1        0.1320
     21 C           4.5611    0.0073   19.5147 C.3     1  UNL1        0.1512
     22 C           2.3330    0.2677   18.2041 C.2     1  UNL1        0.4021
     23 O           2.9236   -0.4869   17.0501 O.2     1  UNL1       -0.2264
     24 N           3.1518    0.5148   19.4364 N.am    1  UNL1       -0.2640
     25 H           2.7641    1.0100   20.1939 H       1  UNL1        0.1532
     26 C           0.5722    2.1073   18.7192 C.3     1  UNL1        0.2573
     27 O           0.9237    0.7752   18.1259 O.3     1  UNL1       -0.4306
     28 C           5.6192    0.5920   18.6267 C.3     1  UNL1        0.0270
     29 C           5.9452    2.0537   18.7106 C.3     1  UNL1        0.0022
     30 C           6.3514   -0.2850   17.6546 C.3     1  UNL1        0.0022
     31 C           5.3920   -1.4315   30.3906 C.ar    1  UNL1        0.0000
     32 C           4.0983   -0.8300   30.8538 C.ar    1  UNL1        0.0001
     33 C           3.9506   -0.3709   32.2742 C.ar    1  UNL1        0.0036
     34 C           5.0967   -0.5133   33.2314 C.ar    1  UNL1        0.0461
     35 C           6.3904   -1.1148   32.7682 C.ar    1  UNL1        0.0036
     36 C           6.5381   -1.5739   31.3478 C.ar    1  UNL1        0.0001
     37 C           4.9491   -0.0543   34.6518 C.2     1  UNL1        0.2537
     38 N           3.6895    0.4555   35.2872 N.2     1  UNL1       -0.0343
     39 C           3.9971    0.8004   36.7143 C.2     1  UNL1        0.3673
     40 N           5.4467    0.5038   36.9607 N.2     1  UNL1       -0.0209
     41 C           6.0350   -0.0244   35.6860 C.3     1  UNL1        0.4358
     42 F           7.4593   -0.4483   35.4816 F       1  UNL1       -0.1710
     43 C           3.0256    1.3461   37.7185 C.3     1  UNL1        0.1875
     44 C           2.3763    0.5726   38.8275 C.3     1  UNL1        0.0344
     45 C           1.4823    1.5096   39.5844 C.3     1  UNL1        0.0238
     46 C           1.5791    2.8621   38.9432 C.3     1  UNL1        0.0940
     47 N           2.5330    2.7611   37.7899 N.am    1  UNL1       -0.2691
     48 C           2.9253    3.8788   36.8697 C.2     1  UNL1        0.2440
     49 O           3.8957    3.6263   35.7541 O.2     1  UNL1       -0.2731
     50 C           2.3472    5.2491   37.0652 C.3     1  UNL1        0.1512
     51 N           0.9760    5.5657   36.5461 N.am    1  UNL1       -0.2640
     52 C           0.8006    6.0487   35.1368 C.2     1  UNL1        0.4021
     53 O           1.9964    6.2151   34.2467 O.2     1  UNL1       -0.2264
     54 H           0.1912    5.4566   37.1303 H       1  UNL1        0.1532
     55 O          -0.5706    6.3654   34.6178 O.3     1  UNL1       -0.4306
     56 C          -1.5541    7.0884   35.4894 C.3     1  UNL1        0.2573
     57 C           3.1404    6.3028   37.7798 C.3     1  UNL1        0.0270
     58 C           4.4486    5.9496   38.4229 C.3     1  UNL1        0.0022
     59 C           2.6253    7.7098   37.8512 C.3     1  UNL1        0.0022
@<TRIPOS>BOND
     1    26    27    1
     2    27    22    1
     3    22    23    2
     4    22    24   am
     5    21    24    1
     6    21    14    1
     7    14    15    2
     8    14    16   am
     9    16    17    1
    10    17    18    1
    11    18    19    1
    12    19    20    1
    13    20     7    1
    14     7     8   ar
    15     8     9   ar
    16     9    10    1
    17     9    11   ar
    18    11     1    1
    19     1     2   ar
    20     2     3   ar
    21     3     4   ar
    22     4    31    1
    23    31    32   ar
    24    32    33   ar
    25    33    34   ar
    26    34    37    1
    27    37    38    2
    28    38    39    1
    29    43    39    1
    30    43    44    1
    31    44    45    1
    32    45    46    1
    33    46    47    1
    34    47    48   am
    35    48    49    2
    36    48    50    1
    37    50    51    1
    38    51    52   am
    39    52    53    2
    40    52    55    1
    41    55    56    1
    42    50    57    1
    43    57    58    1
    44    57    59    1
    45    39    40    2
    46    40    41    1
    47    41    42    1
    48    34    35   ar
    49    35    36   ar
    50     4     5   ar
    51     5     6   ar
    52    11    12   ar
    53    21    28    1
    54    28    29    1
    55    28    30    1
    56    20    16    1
    57    12     7   ar
    58     6     1   ar
    59    36    31   ar
    60    41    37    1
    61    47    43    1
    62    24    25    1
    63    51    54    1
    64    12    13    1
@<TRIPOS>MOLECULE
*****
 59 64 0 0 0
SMALL
GASTEIGER

@<TRIPOS>ATOM
      1 C           5.7253   -2.4353   26.0609 C.ar    1  UNL1        0.0194
      2 C           6.4513   -3.2045   27.1244 C.ar    1  UNL1        0.0016
      3 C           6.3294   -2.7943   28.5621 C.ar    1  UNL1        0.0000
      4 C           5.4814   -1.6149   28.9362 C.ar    1  UNL1        0.0000
      5 C           4.7554   -0.8457   27.8727 C.ar    1  UNL1        0.0000
      6 C           4.8773   -1.2559   26.4350 C.ar    1  UNL1        0.0016
      7 C           5.2939   -3.3971   22.3253 C.ar    1  UNL1        0.1377
      8 N           6.7757   -3.5560   22.4963 N.ar    1  UNL1       -0.2021
      9 C           7.1176   -3.2150   23.9165 C.ar    1  UNL1        0.2390
     10 F           8.4892   -3.2394   24.5233 F       1  UNL1       -0.1816
     11 C           5.8472   -2.8454   24.6232 C.ar    1  UNL1        0.1040
     12 N           4.7201   -2.9580   23.6398 N.ar    1  UNL1       -0.3376
     13 H           3.7705   -2.7756   23.8247 H       1  UNL1        0.1672
     14 C           3.7923   -1.1182   20.5362 C.2     1  UNL1        0.2439
     15 O           4.4869   -0.5798   21.7517 O.2     1  UNL1       -0.2731
     16 N           3.8314   -2.5880   20.2394 N.am    1  UNL1       -0.2730
     17 C           3.1871   -3.2684   19.0681 C.3     1  UNL1        0.0939
     18 C           3.4791   -4.7364   19.1666 C.3     1  UNL1        0.0237
     19 C           4.3039   -4.9633   20.3987 C.3     1  UNL1        0.0293
     20 C           4.5216   -3.6355   21.0617 C.3     1  UNL1        0.1320
     21 C           3.0584   -0.1869   19.6175 C.3     1  UNL1        0.1512
     22 C           1.1746    1.0962   20.8644 C.2     1  UNL1        0.4021
     23 O           2.2064    1.8267   21.6717 O.2     1  UNL1       -0.2264
     24 N           1.6006    0.0894   19.8373 N.am    1  UNL1       -0.2640
     25 H           0.9233   -0.3901   19.3075 H       1  UNL1        0.1532
     26 C          -0.9169    2.5872   20.4736 C.3     1  UNL1        0.2573
     27 O          -0.2833    1.3724   21.0842 O.3     1  UNL1       -0.4306
     28 C           3.7825    0.4682   18.4788 C.3     1  UNL1        0.0270
     29 C           4.0686    1.9401   18.5195 C.3     1  UNL1        0.0022
     30 C           4.2205   -0.3485   17.2993 C.3     1  UNL1        0.0022
     31 C           5.3595   -1.2048   30.3739 C.ar    1  UNL1        0.0000
     32 C           5.7584   -2.1571   31.4619 C.ar    1  UNL1        0.0001
     33 C           5.6365   -1.7469   32.8997 C.ar    1  UNL1        0.0036
     34 C           5.1156   -0.3844   33.2493 C.ar    1  UNL1        0.0461
     35 C           4.7166    0.5679   32.1611 C.ar    1  UNL1        0.0036
     36 C           4.8386    0.1578   30.7235 C.ar    1  UNL1        0.0001
     37 C           4.9937    0.0258   34.6869 C.2     1  UNL1        0.2537
     38 N           3.7662    0.5850   35.3432 N.2     1  UNL1       -0.0343
     39 C           4.0917    0.8536   36.7826 C.2     1  UNL1        0.3673
     40 N           5.5203    0.4604   37.0159 N.2     1  UNL1       -0.0209
     41 C           6.0777   -0.0513   35.7207 C.3     1  UNL1        0.4358
     42 F           7.4741   -0.5520   35.4984 F       1  UNL1       -0.1710
     43 C           3.1533    1.4166   37.8085 C.3     1  UNL1        0.1875
     44 C           2.2288    0.6258   38.6859 C.3     1  UNL1        0.0344
     45 C           1.4789    1.5897   39.5568 C.3     1  UNL1        0.0238
     46 C           1.9399    2.9762   39.2176 C.3     1  UNL1        0.0940
     47 N           2.9748    2.8692   38.1371 N.am    1  UNL1       -0.2691
     48 C           3.7033    4.0138   37.4975 C.2     1  UNL1        0.2440
     49 O           4.7170    3.7515   36.4235 O.2     1  UNL1       -0.2731
     50 C           3.4180    5.4209   37.9320 C.3     1  UNL1        0.1512
     51 N           3.9985    5.9427   39.2129 N.am    1  UNL1       -0.2640
     52 C           5.4159    6.4322   39.2494 C.2     1  UNL1        0.4021
     53 O           6.2528    6.3999   38.0050 O.2     1  UNL1       -0.2264
     54 H           3.4492    5.9640   40.0297 H       1  UNL1        0.1532
     55 O           5.9965    6.9540   40.5303 O.3     1  UNL1       -0.4306
     56 C           5.7320    6.2367   41.8207 C.3     1  UNL1        0.2573
     57 C           2.5521    6.3063   37.0855 C.3     1  UNL1        0.0270
     58 C           1.1601    5.8755   36.7298 C.3     1  UNL1        0.0022
     59 C           3.0783    7.6226   36.5948 C.3     1  UNL1        0.0022
@<TRIPOS>BOND
     1    26    27    1
     2    27    22    1
     3    22    23    2
     4    22    24   am
     5    21    24    1
     6    21    14    1
     7    14    15    2
     8    14    16   am
     9    16    17    1
    10    17    18    1
    11    18    19    1
    12    19    20    1
    13    20     7    1
    14     7     8   ar
    15     8     9   ar
    16     9    10    1
    17     9    11   ar
    18    11     1    1
    19     1     2   ar
    20     2     3   ar
    21     3     4   ar
    22     4    31    1
    23    31    32   ar
    24    32    33   ar
    25    33    34   ar
    26    34    37    1
    27    37    38    2
    28    38    39    1
    29    43    39    1
    30    43    44    1
    31    44    45    1
    32    45    46    1
    33    46    47    1
    34    47    48   am
    35    48    49    2
    36    48    50    1
    37    50    51    1
    38    51    52   am
    39    52    53    2
    40    52    55    1
    41    55    56    1
    42    50    57    1
    43    57    58    1
    44    57    59    1
    45    39    40    2
    46    40    41    1
    47    41    42    1
    48    34    35   ar
    49    35    36   ar
    50     4     5   ar
    51     5     6   ar
    52    11    12   ar
    53    21    28    1
    54    28    29    1
    55    28    30    1
    56    20    16    1
    57    12     7   ar
    58     6     1   ar
    59    36    31   ar
    60    41    37    1
    61    47    43    1
    62    24    25    1
    63    51    54    1
    64    12    13    1
@<TRIPOS>MOLECULE
*****
 59 64 0 0 0
SMALL
GASTEIGER

@<TRIPOS>ATOM
      1 C           0.1760    1.5699   20.6043 C.ar    1  UNL1        0.0194
      2 C           0.6444    0.4434   19.7316 C.ar    1  UNL1        0.0016
      3 C           1.7089   -0.4926   20.2222 C.ar    1  UNL1        0.0000
      4 C           2.3050   -0.3021   21.5854 C.ar    1  UNL1        0.0000
      5 C           1.8367    0.8244   22.4580 C.ar    1  UNL1        0.0000
      6 C           0.7722    1.7604   21.9675 C.ar    1  UNL1        0.0016
      7 C          -3.0382    3.5772   19.7645 C.ar    1  UNL1        0.1377
      8 N          -2.0151    4.3157   18.9534 N.ar    1  UNL1       -0.2021
      9 C          -0.6865    3.6537   19.1692 C.ar    1  UNL1        0.2390
     10 F           0.6154    4.0668   18.5494 F       1  UNL1       -0.1816
     11 C          -0.8885    2.5060   20.1137 C.ar    1  UNL1        0.1040
     12 N          -2.3419    2.4588   20.4816 N.ar    1  UNL1       -0.3376
     13 H          -2.7646    1.8080   21.0874 H       1  UNL1        0.1672
     14 C          -4.5814    4.8594   22.3382 C.2     1  UNL1        0.2439
     15 O          -3.1121    4.6459   22.5520 O.2     1  UNL1       -0.2731
     16 N          -5.2101    4.4897   21.0275 N.am    1  UNL1       -0.2730
     17 C          -6.6585    4.6446   20.6696 C.3     1  UNL1        0.0939
     18 C          -6.8443    4.1509   19.2654 C.3     1  UNL1        0.0237
     19 C          -5.5108    3.6910   18.7554 C.3     1  UNL1        0.0293
     20 C          -4.5008    3.9004   19.8445 C.3     1  UNL1        0.1320
     21 C          -5.4220    5.4425   23.4352 C.3     1  UNL1        0.1512
     22 C          -7.9379    6.0896   23.3966 C.2     1  UNL1        0.4021
     23 O          -8.2874    4.7677   24.0134 O.2     1  UNL1       -0.2264
     24 N          -6.5052    6.4270   23.1075 N.am    1  UNL1       -0.2640
     25 H          -6.2758    7.2946   22.7026 H       1  UNL1        0.1532
     26 C         -10.1131    7.3456   24.0607 C.3     1  UNL1        0.2573
     27 O          -9.0210    7.0741   23.0688 O.3     1  UNL1       -0.4306
     28 C          -5.1794    5.0411   24.8600 C.3     1  UNL1        0.0270
     29 C          -5.0807    3.5892   25.2237 C.3     1  UNL1        0.0022
     30 C          -5.0353    6.0915   25.9211 C.3     1  UNL1        0.0022
     31 C           3.3696   -1.2382   22.0759 C.ar    1  UNL1        0.0000
     32 C           3.7959   -1.2018   23.5135 C.ar    1  UNL1        0.0001
     33 C           4.8605   -2.1379   24.0041 C.ar    1  UNL1        0.0036
     34 C           5.4986   -3.1104   23.0569 C.ar    1  UNL1        0.0461
     35 C           5.0722   -3.1467   21.6192 C.ar    1  UNL1        0.0036
     36 C           4.0077   -2.2107   21.1287 C.ar    1  UNL1        0.0001
     37 C           6.5631   -4.0464   23.5474 C.2     1  UNL1        0.2537
     38 N           6.5338   -4.8191   24.8327 N.2     1  UNL1       -0.0343
     39 C           7.7964   -5.6244   24.9184 C.2     1  UNL1        0.3673
     40 N           8.6060   -5.3494   23.6859 N.2     1  UNL1       -0.0209
     41 C           7.8438   -4.3742   22.8386 C.3     1  UNL1        0.4358
     42 F           8.2848   -3.8235   21.5149 F       1  UNL1       -0.1710
     43 C           8.1817   -6.5433   26.0396 C.3     1  UNL1        0.1875
     44 C           8.3280   -8.0333   25.9476 C.3     1  UNL1        0.0344
     45 C           8.7251   -8.5444   27.3008 C.3     1  UNL1        0.0238
     46 C           8.8243   -7.3703   28.2290 C.3     1  UNL1        0.0940
     47 N           8.4884   -6.1335   27.4495 N.am    1  UNL1       -0.2691
     48 C           8.4637   -4.7329   27.9858 C.2     1  UNL1        0.2440
     49 O           8.1074   -3.5899   27.0821 O.2     1  UNL1       -0.2731
     50 C           8.7952   -4.4753   29.4259 C.3     1  UNL1        0.1512
     51 N           9.5355   -3.2297   29.8139 N.am    1  UNL1       -0.2640
     52 C           8.7793   -1.9664   30.1006 C.2     1  UNL1        0.4021
     53 O           7.2828   -1.9486   29.9992 O.2     1  UNL1       -0.2264
     54 H          10.5177   -3.2414   29.8804 H       1  UNL1        0.1532
     55 O           9.5195   -0.7208   30.4887 O.3     1  UNL1       -0.4306
     56 C           8.7621    0.4895   30.9482 C.3     1  UNL1        0.2573
     57 C           8.3865   -5.4633   30.4780 C.3     1  UNL1        0.0270
     58 C           6.9362   -5.7899   30.6772 C.3     1  UNL1        0.0022
     59 C           9.4283   -6.1247   31.3309 C.3     1  UNL1        0.0022
@<TRIPOS>BOND
     1    26    27    1
     2    27    22    1
     3    22    23    2
     4    22    24   am
     5    21    24    1
     6    21    14    1
     7    14    15    2
     8    14    16   am
     9    16    17    1
    10    17    18    1
    11    18    19    1
    12    19    20    1
    13    20     7    1
    14     7     8   ar
    15     8     9   ar
    16     9    10    1
    17     9    11   ar
    18    11     1    1
    19     1     2   ar
    20     2     3   ar
    21     3     4   ar
    22     4    31    1
    23    31    32   ar
    24    32    33   ar
    25    33    34   ar
    26    34    37    1
    27    37    38    2
    28    38    39    1
    29    43    39    1
    30    43    44    1
    31    44    45    1
    32    45    46    1
    33    46    47    1
    34    47    48   am
    35    48    49    2
    36    48    50    1
    37    50    51    1
    38    51    52   am
    39    52    53    2
    40    52    55    1
    41    55    56    1
    42    50    57    1
    43    57    58    1
    44    57    59    1
    45    39    40    2
    46    40    41    1
    47    41    42    1
    48    34    35   ar
    49    35    36   ar
    50     4     5   ar
    51     5     6   ar
    52    11    12   ar
    53    21    28    1
    54    28    29    1
    55    28    30    1
    56    20    16    1
    57    12     7   ar
    58     6     1   ar
    59    36    31   ar
    60    41    37    1
    61    47    43    1
    62    24    25    1
    63    51    54    1
    64    12    13    1
@<TRIPOS>MOLECULE
*****
 59 64 0 0 0
SMALL
GASTEIGER

@<TRIPOS>ATOM
      1 C           0.8098    4.9584   30.2090 C.ar    1  UNL1        0.0194
      2 C           0.9192    5.9074   29.0527 C.ar    1  UNL1        0.0016
      3 C           1.1229    5.3776   27.6643 C.ar    1  UNL1        0.0000
      4 C           1.2173    3.8986   27.4323 C.ar    1  UNL1        0.0000
      5 C           1.1078    2.9496   28.5886 C.ar    1  UNL1        0.0000
      6 C           0.9041    3.4794   29.9770 C.ar    1  UNL1        0.0016
      7 C           0.9712    6.0513   33.9300 C.ar    1  UNL1        0.1377
      8 N          -0.3861    6.5558   33.5383 N.ar    1  UNL1       -0.2021
      9 C          -0.6117    6.2078   32.0967 C.ar    1  UNL1        0.2390
     10 F          -1.8396    6.5240   31.2952 F       1  UNL1       -0.1816
     11 C           0.6060    5.4883   31.5975 C.ar    1  UNL1        0.1040
     12 N           1.5843    5.3915   32.7305 N.ar    1  UNL1       -0.3376
     13 H           2.4728    4.9691   32.6934 H       1  UNL1        0.1672
     14 C           2.1885    3.6126   35.7244 C.2     1  UNL1        0.2439
     15 O           1.6176    3.1753   34.4080 O.2     1  UNL1       -0.2731
     16 N           2.1637    5.0625   36.1082 N.am    1  UNL1       -0.2730
     17 C           2.6940    5.6459   37.3843 C.3     1  UNL1        0.0939
     18 C           2.4622    7.1274   37.3481 C.3     1  UNL1        0.0237
     19 C           1.7886    7.4596   36.0497 C.3     1  UNL1        0.0293
     20 C           1.6041    6.1834   35.2834 C.3     1  UNL1        0.1320
     21 C           2.7843    2.6000   36.6570 C.3     1  UNL1        0.1512
     22 C           2.0718    2.1194   39.1088 C.2     1  UNL1        0.4021
     23 O           3.1094    3.0850   39.5997 O.2     1  UNL1       -0.2264
     24 N           1.9092    1.8770   37.6375 N.am    1  UNL1       -0.2640
     25 H           1.2282    1.2432   37.3153 H       1  UNL1        0.1532
     26 C           1.0618   -0.0959   40.0158 C.3     1  UNL1        0.2573
     27 O           1.1966    1.3963   40.0892 O.3     1  UNL1       -0.4306
     28 C           4.2554    2.3106   36.6091 C.3     1  UNL1        0.0270
     29 C           5.2297    3.4196   36.3432 C.3     1  UNL1        0.0022
     30 C           4.7521    0.9121   36.8273 C.3     1  UNL1        0.0022
     31 C           1.4210    3.3687   26.0438 C.ar    1  UNL1        0.0000
     32 C           2.3130    4.1004   25.0852 C.ar    1  UNL1        0.0001
     33 C           2.5167    3.5706   23.6967 C.ar    1  UNL1        0.0036
     34 C           1.8285    2.3090   23.2669 C.ar    1  UNL1        0.0461
     35 C           0.9365    1.5773   24.2256 C.ar    1  UNL1        0.0036
     36 C           0.7328    2.1072   25.6140 C.ar    1  UNL1        0.0001
     37 C           2.0322    1.7791   21.8785 C.2     1  UNL1        0.2537
     38 N           3.3453    1.3880   21.2679 N.2     1  UNL1       -0.0343
     39 C           3.0832    0.9145   19.8689 C.2     1  UNL1        0.3673
     40 N           1.6081    1.0129   19.6150 N.2     1  UNL1       -0.0209
     41 C           0.9586    1.5473   20.8570 C.3     1  UNL1        0.4358
     42 F          -0.5072    1.8047   21.0444 F       1  UNL1       -0.1710
     43 C           4.1150    0.4279   18.8950 C.3     1  UNL1        0.1875
     44 C           4.7163    1.2253   17.7758 C.3     1  UNL1        0.0344
     45 C           5.6996    0.3487   17.0583 C.3     1  UNL1        0.0238
     46 C           5.7060   -0.9904   17.7341 C.3     1  UNL1        0.0940
     47 N           4.7267   -0.9415   18.8693 N.am    1  UNL1       -0.2691
     48 C           4.4139   -2.0647   19.8130 C.2     1  UNL1        0.2440
     49 O           3.4060   -1.8672   20.9061 O.2     1  UNL1       -0.2731
     50 C           5.1091   -3.3854   19.6634 C.3     1  UNL1        0.1512
     51 N           6.5465   -3.5266   20.0684 N.am    1  UNL1       -0.2640
     52 C           6.8943   -3.9370   21.4686 C.2     1  UNL1        0.4021
     53 O           5.8048   -4.2062   22.4638 O.2     1  UNL1       -0.2264
     54 H           7.2616   -3.3499   19.4152 H       1  UNL1        0.1532
     55 O           8.3317   -4.0781   21.8737 O.3     1  UNL1       -0.4306
     56 C           8.9427   -5.4414   22.0079 C.3     1  UNL1        0.2573
     57 C           4.3669   -4.5651   19.1087 C.3     1  UNL1        0.0270
     58 C           5.1218   -5.7747   18.6430 C.3     1  UNL1        0.0022
     59 C           2.8698   -4.5351   19.0199 C.3     1  UNL1        0.0022
@<TRIPOS>BOND
     1    26    27    1
     2    27    22    1
     3    22    23    2
     4    22    24   am
     5    21    24    1
     6    21    14    1
     7    14    15    2
     8    14    16   am
     9    16    17    1
    10    17    18    1
    11    18    19    1
    12    19    20    1
    13    20     7    1
    14     7     8   ar
    15     8     9   ar
    16     9    10    1
    17     9    11   ar
    18    11     1    1
    19     1     2   ar
    20     2     3   ar
    21     3     4   ar
    22     4    31    1
    23    31    32   ar
    24    32    33   ar
    25    33    34   ar
    26    34    37    1
    27    37    38    2
    28    38    39    1
    29    43    39    1
    30    43    44    1
    31    44    45    1
    32    45    46    1
    33    46    47    1
    34    47    48   am
    35    48    49    2
    36    48    50    1
    37    50    51    1
    38    51    52   am
    39    52    53    2
    40    52    55    1
    41    55    56    1
    42    50    57    1
    43    57    58    1
    44    57    59    1
    45    39    40    2
    46    40    41    1
    47    41    42    1
    48    34    35   ar
    49    35    36   ar
    50     4     5   ar
    51     5     6   ar
    52    11    12   ar
    53    21    28    1
    54    28    29    1
    55    28    30    1
    56    20    16    1
    57    12     7   ar
    58     6     1   ar
    59    36    31   ar
    60    41    37    1
    61    47    43    1
    62    24    25    1
    63    51    54    1
    64    12    13    1
@<TRIPOS>MOLECULE
*****
 59 64 0 0 0
SMALL
GASTEIGER

@<TRIPOS>ATOM
      1 C           6.4455   -2.7981   26.0251 C.ar    1  UNL1        0.0194
      2 C           6.5663   -3.7195   27.2025 C.ar    1  UNL1        0.0016
      3 C           6.6840   -3.1553   28.5873 C.ar    1  UNL1        0.0000
      4 C           6.6811   -1.6697   28.7947 C.ar    1  UNL1        0.0000
      5 C           6.5603   -0.7483   27.6172 C.ar    1  UNL1        0.0000
      6 C           6.4426   -1.3125   26.2324 C.ar    1  UNL1        0.0016
      7 C           5.5328   -3.8155   22.3922 C.ar    1  UNL1        0.1377
      8 N           6.7602   -4.6455   22.6260 N.ar    1  UNL1       -0.2021
      9 C           7.2515   -4.3655   24.0153 C.ar    1  UNL1        0.2390
     10 F           8.4551   -4.9806   24.6655 F       1  UNL1       -0.1816
     11 C           6.3278   -3.3623   24.6402 C.ar    1  UNL1        0.1040
     12 N           5.2656   -3.0224   23.6370 N.ar    1  UNL1       -0.3376
     13 H           4.5234   -2.3899   23.7720 H       1  UNL1        0.1672
     14 C           4.9547   -1.1875   20.5459 C.2     1  UNL1        0.2439
     15 O           5.8086   -0.9126   21.7480 O.2     1  UNL1       -0.2731
     16 N           4.4504   -2.5761   20.2858 N.am    1  UNL1       -0.2730
     17 C           3.5918   -3.0005   19.1313 C.3     1  UNL1        0.0939
     18 C           3.3270   -4.4707   19.2665 C.3     1  UNL1        0.0237
     19 C           4.0218   -4.9549   20.5045 C.3     1  UNL1        0.0293
     20 C           4.7161   -3.7840   21.1344 C.3     1  UNL1        0.1320
     21 C           4.6050   -0.0739   19.6037 C.3     1  UNL1        0.1512
     22 C           2.4257    0.2376   18.2239 C.2     1  UNL1        0.4021
     23 O           3.0808   -0.4139   17.0422 O.2     1  UNL1       -0.2264
     24 N           3.1878    0.4076   19.5047 N.am    1  UNL1       -0.2640
     25 H           2.7579    0.8353   20.2802 H       1  UNL1        0.1532
     26 C           0.6202    2.0364   18.7285 C.3     1  UNL1        0.2573
     27 O           1.0086    0.7192   18.1249 O.3     1  UNL1       -0.4306
     28 C           5.6725    0.5582   18.7606 C.3     1  UNL1        0.0270
     29 C           6.5145   -0.2914   17.8554 C.3     1  UNL1        0.0022
     30 C           5.8982    2.0399   18.8227 C.3     1  UNL1        0.0022
     31 C           6.7988   -1.1055   30.1796 C.ar    1  UNL1        0.0000
     32 C           6.3942   -1.9329   31.3634 C.ar    1  UNL1        0.0001
     33 C           6.5120   -1.3687   32.7483 C.ar    1  UNL1        0.0036
     34 C           7.0344    0.0230   32.9493 C.ar    1  UNL1        0.0461
     35 C           7.4390    0.8504   31.7653 C.ar    1  UNL1        0.0036
     36 C           7.3212    0.2862   30.3805 C.ar    1  UNL1        0.0001
     37 C           7.1521    0.5872   34.3341 C.2     1  UNL1        0.2537
     38 N           6.4479    1.8060   34.8524 N.2     1  UNL1       -0.0343
     39 C           6.8553    2.0038   36.2824 C.2     1  UNL1        0.3673
     40 N           7.8114    0.9071   36.6478 N.2     1  UNL1       -0.0209
     41 C           7.9948    0.0317   35.4437 C.3     1  UNL1        0.4358
     42 F           8.8676   -1.1855   35.3634 F       1  UNL1       -0.1710
     43 C           6.3887    3.1048   37.1879 C.3     1  UNL1        0.1875
     44 C           7.2533    4.1615   37.8090 C.3     1  UNL1        0.0344
     45 C           6.3745    5.0522   38.6363 C.3     1  UNL1        0.0238
     46 C           4.9668    4.5459   38.5265 C.3     1  UNL1        0.0940
     47 N           4.9756    3.3423   37.6313 N.am    1  UNL1       -0.2691
     48 C           3.7810    2.5206   37.2470 C.2     1  UNL1        0.2440
     49 O           3.9447    1.3384   36.3384 O.2     1  UNL1       -0.2731
     50 C           2.4226    2.8811   37.7713 C.3     1  UNL1        0.1512
     51 N           1.7815    4.1753   37.3663 N.am    1  UNL1       -0.2640
     52 C           1.4263    4.4189   35.9295 C.2     1  UNL1        0.4021
     53 O           1.7122    3.3683   34.8977 O.2     1  UNL1       -0.2264
     54 H           1.5938    4.8648   38.0435 H       1  UNL1        0.1532
     55 O           0.7851    5.7130   35.5244 O.3     1  UNL1       -0.4306
     56 C           0.9931    6.9451   36.3542 C.3     1  UNL1        0.2573
     57 C           1.7054    1.9474   38.7008 C.3     1  UNL1        0.0270
     58 C           2.3314    0.6378   39.0788 C.3     1  UNL1        0.0022
     59 C           0.3620    2.3235   39.2523 C.3     1  UNL1        0.0022
@<TRIPOS>BOND
     1    26    27    1
     2    27    22    1
     3    22    23    2
     4    22    24   am
     5    21    24    1
     6    21    14    1
     7    14    15    2
     8    14    16   am
     9    16    17    1
    10    17    18    1
    11    18    19    1
    12    19    20    1
    13    20     7    1
    14     7     8   ar
    15     8     9   ar
    16     9    10    1
    17     9    11   ar
    18    11     1    1
    19     1     2   ar
    20     2     3   ar
    21     3     4   ar
    22     4    31    1
    23    31    32   ar
    24    32    33   ar
    25    33    34   ar
    26    34    37    1
    27    37    38    2
    28    38    39    1
    29    43    39    1
    30    43    44    1
    31    44    45    1
    32    45    46    1
    33    46    47    1
    34    47    48   am
    35    48    49    2
    36    48    50    1
    37    50    51    1
    38    51    52   am
    39    52    53    2
    40    52    55    1
    41    55    56    1
    42    50    57    1
    43    57    58    1
    44    57    59    1
    45    39    40    2
    46    40    41    1
    47    41    42    1
    48    34    35   ar
    49    35    36   ar
    50     4     5   ar
    51     5     6   ar
    52    11    12   ar
    53    21    28    1
    54    28    29    1
    55    28    30    1
    56    20    16    1
    57    12     7   ar
    58     6     1   ar
    59    36    31   ar
    60    41    37    1
    61    47    43    1
    62    24    25    1
    63    51    54    1
    64    12    13    1
@<TRIPOS>MOLECULE
*****
 59 64 0 0 0
SMALL
GASTEIGER

@<TRIPOS>ATOM
      1 C           7.5588   -3.5655   27.5901 C.ar    1  UNL1        0.0194
      2 C           6.3163   -2.9006   28.1038 C.ar    1  UNL1        0.0016
      3 C           6.3070   -2.2818   29.4702 C.ar    1  UNL1        0.0000
      4 C           7.5402   -2.3279   30.3228 C.ar    1  UNL1        0.0000
      5 C           8.7827   -2.9928   29.8091 C.ar    1  UNL1        0.0000
      6 C           8.7921   -3.6116   28.4428 C.ar    1  UNL1        0.0016
      7 C           7.8942   -4.5142   23.8413 C.ar    1  UNL1        0.1377
      8 N           7.2711   -5.7589   24.4007 N.ar    1  UNL1       -0.2021
      9 C           7.0697   -5.5549   25.8731 C.ar    1  UNL1        0.2390
     10 F           6.4742   -6.5474   26.8273 F       1  UNL1       -0.1816
     11 C           7.5682   -4.1844   26.2237 C.ar    1  UNL1        0.1040
     12 N           8.0778   -3.5412   24.9680 N.ar    1  UNL1       -0.3376
     13 H           8.4648   -2.6388   24.8960 H       1  UNL1        0.1672
     14 C           6.0916   -2.9471   21.6179 C.2     1  UNL1        0.2439
     15 O           5.4566   -3.0227   22.9746 O.2     1  UNL1       -0.2731
     16 N           7.4394   -3.5630   21.3851 N.am    1  UNL1       -0.2730
     17 C           8.1953   -3.5666   20.0895 C.3     1  UNL1        0.0939
     18 C           9.4910   -4.2893   20.3109 C.3     1  UNL1        0.0237
     19 C           9.5359   -4.7322   21.7432 C.3     1  UNL1        0.0293
     20 C           8.2680   -4.2833   22.4072 C.3     1  UNL1        0.1320
     21 C           5.3789   -2.2555   20.4936 C.3     1  UNL1        0.1512
     22 C           6.3299   -1.0031   18.4255 C.2     1  UNL1        0.4021
     23 O           6.1054   -2.2237   17.5831 O.2     1  UNL1       -0.2264
     24 N           5.9667   -1.0190   19.8808 N.am    1  UNL1       -0.2640
     25 H           6.1140   -0.2179   20.4337 H       1  UNL1        0.1532
     26 C           7.8120    1.1214   18.6264 C.3     1  UNL1        0.2573
     27 O           6.9177    0.2335   17.8128 O.3     1  UNL1       -0.4306
     28 C           4.0784   -2.8005   19.9822 C.3     1  UNL1        0.0270
     29 C           2.9070   -1.8845   19.7850 C.3     1  UNL1        0.0022
     30 C           3.9491   -4.2616   19.6681 C.3     1  UNL1        0.0022
     31 C           7.5308   -1.7091   31.6893 C.ar    1  UNL1        0.0000
     32 C           6.2290   -1.3404   32.3367 C.ar    1  UNL1        0.0001
     33 C           6.2196   -0.7216   33.7031 C.ar    1  UNL1        0.0036
     34 C           7.5121   -0.4715   34.4220 C.ar    1  UNL1        0.0461
     35 C           8.8140   -0.8402   33.7745 C.ar    1  UNL1        0.0036
     36 C           8.8234   -1.4590   32.4081 C.ar    1  UNL1        0.0001
     37 C           7.5028    0.1473   35.7884 C.2     1  UNL1        0.2537
     38 N           6.6958    1.3390   36.2111 N.2     1  UNL1       -0.0343
     39 C           6.9931    1.6113   37.6559 C.2     1  UNL1        0.3673
     40 N           7.9839    0.5879   38.1261 N.2     1  UNL1       -0.0209
     41 C           8.2989   -0.3169   36.9719 C.3     1  UNL1        0.4358
     42 F           9.2440   -1.4814   36.9969 F       1  UNL1       -0.1710
     43 C           6.4032    2.7134   38.4849 C.3     1  UNL1        0.1875
     44 C           7.1716    3.7177   39.2917 C.3     1  UNL1        0.0344
     45 C           6.1847    4.6297   39.9581 C.3     1  UNL1        0.0238
     46 C           4.8063    4.1891   39.5632 C.3     1  UNL1        0.0940
     47 N           4.9414    3.0047   38.6527 N.am    1  UNL1       -0.2691
     48 C           3.8128    2.2450   38.0210 C.2     1  UNL1        0.2440
     49 O           4.1032    1.0754   37.1279 O.2     1  UNL1       -0.2731
     50 C           2.3938    2.6551   38.2823 C.3     1  UNL1        0.1512
     51 N           1.8517    3.9128   37.6705 N.am    1  UNL1       -0.2640
     52 C           1.6960    4.0163   36.1822 C.2     1  UNL1        0.4021
     53 O           2.0824    2.8620   35.3056 O.2     1  UNL1       -0.2264
     54 H           1.5981    4.6704   38.2458 H       1  UNL1        0.1532
     55 O           1.1539    5.2740   35.5704 O.3     1  UNL1       -0.4306
     56 C           0.5973    5.2512   34.1778 C.3     1  UNL1        0.2573
     57 C           1.5168    1.8074   39.1554 C.3     1  UNL1        0.0270
     58 C           1.6570    0.3142   39.1351 C.3     1  UNL1        0.0022
     59 C           0.4995    2.4531   40.0490 C.3     1  UNL1        0.0022
@<TRIPOS>BOND
     1    26    27    1
     2    27    22    1
     3    22    23    2
     4    22    24   am
     5    21    24    1
     6    21    14    1
     7    14    15    2
     8    14    16   am
     9    16    17    1
    10    17    18    1
    11    18    19    1
    12    19    20    1
    13    20     7    1
    14     7     8   ar
    15     8     9   ar
    16     9    10    1
    17     9    11   ar
    18    11     1    1
    19     1     2   ar
    20     2     3   ar
    21     3     4   ar
    22     4    31    1
    23    31    32   ar
    24    32    33   ar
    25    33    34   ar
    26    34    37    1
    27    37    38    2
    28    38    39    1
    29    43    39    1
    30    43    44    1
    31    44    45    1
    32    45    46    1
    33    46    47    1
    34    47    48   am
    35    48    49    2
    36    48    50    1
    37    50    51    1
    38    51    52   am
    39    52    53    2
    40    52    55    1
    41    55    56    1
    42    50    57    1
    43    57    58    1
    44    57    59    1
    45    39    40    2
    46    40    41    1
    47    41    42    1
    48    34    35   ar
    49    35    36   ar
    50     4     5   ar
    51     5     6   ar
    52    11    12   ar
    53    21    28    1
    54    28    29    1
    55    28    30    1
    56    20    16    1
    57    12     7   ar
    58     6     1   ar
    59    36    31   ar
    60    41    37    1
    61    47    43    1
    62    24    25    1
    63    51    54    1
    64    12    13    1
@<TRIPOS>MOLECULE
*****
 59 64 0 0 0
SMALL
GASTEIGER

@<TRIPOS>ATOM
      1 C           2.1685    1.6039   24.3718 C.ar    1  UNL1        0.0194
      2 C           3.3605    2.2054   25.0552 C.ar    1  UNL1        0.0016
      3 C           3.3429    2.4246   26.5390 C.ar    1  UNL1        0.0000
      4 C           2.1331    2.0425   27.3393 C.ar    1  UNL1        0.0000
      5 C           0.9410    1.4410   26.6558 C.ar    1  UNL1        0.0000
      6 C           0.9587    1.2218   25.1720 C.ar    1  UNL1        0.0016
      7 C           2.9431    0.8778   20.6383 C.ar    1  UNL1        0.1377
      8 N           1.4834    1.2165   20.5709 N.ar    1  UNL1       -0.2021
      9 C           1.0155    1.5297   21.9613 C.ar    1  UNL1        0.2390
     10 F          -0.3782    1.9195   22.3556 F       1  UNL1       -0.1816
     11 C           2.1861    1.3846   22.8879 C.ar    1  UNL1        0.1040
     12 N           3.3774    0.9817   22.0703 N.ar    1  UNL1       -0.3376
     13 H           4.2850    0.8148   22.4133 H       1  UNL1        0.1672
     14 C           4.3503   -2.0273   20.1594 C.2     1  UNL1        0.2439
     15 O           3.5316   -1.9454   21.4135 O.2     1  UNL1       -0.2731
     16 N           4.4622   -0.8340   19.2574 N.am    1  UNL1       -0.2730
     17 C           5.2406   -0.7665   17.9770 C.3     1  UNL1        0.0939
     18 C           5.0748    0.6105   17.4058 C.3     1  UNL1        0.0237
     19 C           4.1940    1.3941   18.3332 C.3     1  UNL1        0.0293
     20 C           3.8154    0.5013   19.4776 C.3     1  UNL1        0.1320
     21 C           5.0572   -3.3025   19.8071 C.3     1  UNL1        0.1512
     22 C           6.9546   -3.9532   21.4584 C.2     1  UNL1        0.4021
     23 O           5.9309   -4.2906   22.5016 O.2     1  UNL1       -0.2264
     24 N           6.5177   -3.4592   20.1111 N.am    1  UNL1       -0.2640
     25 H           7.1896   -3.2378   19.4264 H       1  UNL1        0.1532
     26 C           9.2817   -4.9465   20.8683 C.3     1  UNL1        0.2573
     27 O           8.4150   -4.1099   21.7623 O.3     1  UNL1       -0.4306
     28 C           4.3036   -4.4211   19.1508 C.3     1  UNL1        0.0270
     29 C           5.0373   -5.6354   18.6638 C.3     1  UNL1        0.0022
     30 C           2.8162   -4.3254   18.9813 C.3     1  UNL1        0.0022
     31 C           2.1155    2.2618   28.8231 C.ar    1  UNL1        0.0000
     32 C           3.3353    2.7906   29.5176 C.ar    1  UNL1        0.0001
     33 C           3.3177    3.0099   31.0014 C.ar    1  UNL1        0.0036
     34 C           2.0802    2.7003   31.7907 C.ar    1  UNL1        0.0461
     35 C           0.8604    2.1715   31.0961 C.ar    1  UNL1        0.0036
     36 C           0.8780    1.9522   29.6123 C.ar    1  UNL1        0.0001
     37 C           2.0625    2.9196   33.2744 C.2     1  UNL1        0.2537
     38 N           2.6546    2.0074   34.3076 N.2     1  UNL1       -0.0343
     39 C           2.4077    2.6136   35.6573 C.2     1  UNL1        0.3673
     40 N           1.6630    3.9005   35.4582 N.2     1  UNL1       -0.0209
     41 C           1.4497    4.0895   33.9855 C.3     1  UNL1        0.4358
     42 F           0.7470    5.2456   33.3377 F       1  UNL1       -0.1710
     43 C           2.8311    2.0347   36.9747 C.3     1  UNL1        0.1875
     44 C           1.9287    1.3926   37.9863 C.3     1  UNL1        0.0344
     45 C           2.7711    0.9573   39.1486 C.3     1  UNL1        0.0238
     46 C           4.1941    1.3303   38.8552 C.3     1  UNL1        0.0940
     47 N           4.2311    1.9961   37.5116 N.am    1  UNL1       -0.2691
     48 C           5.4536    2.5298   36.8255 C.2     1  UNL1        0.2440
     49 O           5.3354    3.1737   35.4759 O.2     1  UNL1       -0.2731
     50 C           6.7943    2.4196   37.4890 C.3     1  UNL1        0.1512
     51 N           7.4030    3.6185   38.1539 N.am    1  UNL1       -0.2640
     52 C           7.2257    3.8291   39.6285 C.2     1  UNL1        0.4021
     53 O           6.4397    2.8408   40.4381 O.2     1  UNL1       -0.2264
     54 H           7.9189    4.2671   37.6226 H       1  UNL1        0.1532
     55 O           7.8344    5.0280   40.2934 O.3     1  UNL1       -0.4306
     56 C           7.0102    5.8702   41.2214 C.3     1  UNL1        0.2573
     57 C           7.5265    1.1103   37.4876 C.3     1  UNL1        0.0270
     58 C           6.9991   -0.0431   36.6868 C.3     1  UNL1        0.0022
     59 C           8.7861    0.9546   38.2873 C.3     1  UNL1        0.0022
@<TRIPOS>BOND
     1    26    27    1
     2    27    22    1
     3    22    23    2
     4    22    24   am
     5    21    24    1
     6    21    14    1
     7    14    15    2
     8    14    16   am
     9    16    17    1
    10    17    18    1
    11    18    19    1
    12    19    20    1
    13    20     7    1
    14     7     8   ar
    15     8     9   ar
    16     9    10    1
    17     9    11   ar
    18    11     1    1
    19     1     2   ar
    20     2     3   ar
    21     3     4   ar
    22     4    31    1
    23    31    32   ar
    24    32    33   ar
    25    33    34   ar
    26    34    37    1
    27    37    38    2
    28    38    39    1
    29    43    39    1
    30    43    44    1
    31    44    45    1
    32    45    46    1
    33    46    47    1
    34    47    48   am
    35    48    49    2
    36    48    50    1
    37    50    51    1
    38    51    52   am
    39    52    53    2
    40    52    55    1
    41    55    56    1
    42    50    57    1
    43    57    58    1
    44    57    59    1
    45    39    40    2
    46    40    41    1
    47    41    42    1
    48    34    35   ar
    49    35    36   ar
    50     4     5   ar
    51     5     6   ar
    52    11    12   ar
    53    21    28    1
    54    28    29    1
    55    28    30    1
    56    20    16    1
    57    12     7   ar
    58     6     1   ar
    59    36    31   ar
    60    41    37    1
    61    47    43    1
    62    24    25    1
    63    51    54    1
    64    12    13    1
