@<TRIPOS>MOLECULE
*****
 29 31 0 0 0
SMALL
GASTEIGER

@<TRIPOS>ATOM
      1 N          -6.3853  -18.7322   20.9053 N.3     1  UNL1       -0.2972
      2 H          -6.4900  -17.7290   20.7538 H       1  UNL1        0.1233
      3 C          -7.7897  -19.3325   22.3774 C.3     1  UNL1        0.0161
      4 C          -7.7648  -19.3206   20.8777 C.3     1  UNL1        0.0462
      5 C          -7.7399  -19.3087   19.3779 C.3     1  UNL1        0.0161
      6 C          -9.1444  -19.9090   20.8501 C.3     1  UNL1        0.0424
      7 C         -10.3442  -19.0107   20.9111 C.2     1  UNL1       -0.0006
      8 C         -10.8822  -18.1805   19.7836 C.2     1  UNL1        0.0942
      9 N         -12.0871  -17.4417   20.2859 N.2     1  UNL1       -0.2482
     10 C         -12.2938  -17.8154   21.7239 C.2     1  UNL1        0.0631
     11 C         -13.3236  -17.3979   22.7314 C.3     1  UNL1        0.0717
     12 C         -13.2763  -17.9501   24.1252 C.2     1  UNL1       -0.0198
     13 C         -12.1991  -18.9198   24.5115 C.2     1  UNL1       -0.0042
     14 C         -11.1692  -19.3373   23.5041 C.2     1  UNL1        0.0006
     15 C         -11.2166  -18.7851   22.1103 C.2     1  UNL1        0.0114
     16 C          -5.5230  -18.8989   22.1213 C.3     1  UNL1        0.1020
     17 C          -4.3232  -18.0199   22.3161 C.3     1  UNL1        0.1697
     18 O          -3.2425  -17.9846   21.2765 O.3     1  UNL1       -0.3793
     19 H          -3.4738  -18.5834   20.5492 H       1  UNL1        0.2106
     20 C          -4.2042  -17.1762   23.5506 C.3     1  UNL1        0.2358
     21 O          -4.9605  -15.8849   23.6523 O.3     1  UNL1       -0.4721
     22 C          -5.9959  -15.7043   24.7225 C.ar    1  UNL1        0.1482
     23 C          -5.5769  -15.5722   26.1567 C.ar    1  UNL1        0.0376
     24 C          -6.6123  -15.3916   27.2269 C.ar    1  UNL1        0.0032
     25 C          -8.0667  -15.3433   26.8630 C.ar    1  UNL1        0.0009
     26 C          -8.4857  -15.4754   25.4288 C.ar    1  UNL1        0.0133
     27 C          -7.4503  -15.6560   24.3585 C.ar    1  UNL1        0.1023
     28 C          -7.8692  -15.7881   22.9243 C.1     1  UNL1        0.1035
     29 N          -8.2882  -15.9203   21.4901 N.1     1  UNL1       -0.1907
@<TRIPOS>BOND
     1     3     4    1
     2     4     5    1
     3     4     6    1
     4     6     7    1
     5     7     8    2
     6     8     9    1
     7     9    10    2
     8    10    11    1
     9    11    12    1
    10    12    13    2
    11    13    14    1
    12    14    15    2
    13     4     1    1
    14     1    16    1
    15    16    17    1
    16    17    18    1
    17    17    20    1
    18    20    21    1
    19    21    22    1
    20    22    23   ar
    21    23    24   ar
    22    24    25   ar
    23    25    26   ar
    24    26    27   ar
    25    27    28    1
    26    28    29    3
    27    15     7    1
    28    27    22   ar
    29    15    10    1
    30     1     2    1
    31    18    19    1
@<TRIPOS>MOLECULE
*****
 29 31 0 0 0
SMALL
GASTEIGER

@<TRIPOS>ATOM
      1 N          -6.7748  -14.6658   24.5573 N.3     1  UNL1       -0.2972
      2 H          -6.6026  -14.6549   25.5626 H       1  UNL1        0.1233
      3 C          -8.3811  -15.1859   25.8415 C.3     1  UNL1        0.0161
      4 C          -8.1509  -15.2291   24.3599 C.3     1  UNL1        0.0462
      5 C          -7.9208  -15.2723   22.8783 C.3     1  UNL1        0.0161
      6 C          -9.5272  -15.7924   24.1626 C.3     1  UNL1        0.0424
      7 C          -9.7073  -17.2589   23.9037 C.2     1  UNL1       -0.0006
      8 C          -9.5308  -18.3596   24.9073 C.2     1  UNL1        0.0942
      9 N          -9.8099  -19.6631   24.2196 N.2     1  UNL1       -0.2482
     10 C         -10.1589  -19.3680   22.7909 C.2     1  UNL1        0.0631
     11 C         -10.5262  -20.2603   21.6425 C.3     1  UNL1        0.0717
     12 C         -10.8301  -19.6667   20.2989 C.2     1  UNL1       -0.0198
     13 C         -10.7667  -18.1808   20.1037 C.2     1  UNL1       -0.0042
     14 C         -10.3993  -17.2885   21.2521 C.2     1  UNL1        0.0006
     15 C         -10.0954  -17.8821   22.5956 C.2     1  UNL1        0.0114
     16 C          -5.5922  -15.3353   23.9225 C.3     1  UNL1        0.1020
     17 C          -4.8074  -16.3574   24.6904 C.3     1  UNL1        0.1697
     18 O          -4.8264  -16.3458   26.1903 O.3     1  UNL1       -0.3793
     19 H          -5.3896  -15.6197   26.5009 H       1  UNL1        0.2106
     20 C          -4.0037  -17.3909   23.9584 C.3     1  UNL1        0.2358
     21 O          -4.0403  -17.4466   22.4600 O.3     1  UNL1       -0.4721
     22 C          -4.6871  -18.6099   21.7682 C.ar    1  UNL1        0.1482
     23 C          -6.1357  -18.9149   22.0095 C.ar    1  UNL1        0.0376
     24 C          -6.7825  -20.0782   21.3177 C.ar    1  UNL1        0.0032
     25 C          -5.9807  -20.9363   20.3847 C.ar    1  UNL1        0.0009
     26 C          -4.5320  -20.6312   20.1433 C.ar    1  UNL1        0.0133
     27 C          -3.8852  -19.4680   20.8351 C.ar    1  UNL1        0.1023
     28 C          -2.4366  -19.1628   20.5939 C.1     1  UNL1        0.1035
     29 N          -0.9879  -18.8578   20.3526 N.1     1  UNL1       -0.1907
@<TRIPOS>BOND
     1     3     4    1
     2     4     5    1
     3     4     6    1
     4     6     7    1
     5     7     8    2
     6     8     9    1
     7     9    10    2
     8    10    11    1
     9    11    12    1
    10    12    13    2
    11    13    14    1
    12    14    15    2
    13     4     1    1
    14     1    16    1
    15    16    17    1
    16    17    18    1
    17    17    20    1
    18    20    21    1
    19    21    22    1
    20    22    23   ar
    21    23    24   ar
    22    24    25   ar
    23    25    26   ar
    24    26    27   ar
    25    27    28    1
    26    28    29    3
    27    15     7    1
    28    27    22   ar
    29    15    10    1
    30     1     2    1
    31    18    19    1
@<TRIPOS>MOLECULE
*****
 29 31 0 0 0
SMALL
GASTEIGER

@<TRIPOS>ATOM
      1 N          -8.6533  -18.8224   21.3352 N.3     1  UNL1       -0.2972
      2 H          -8.9672  -18.5402   20.4066 H       1  UNL1        0.1233
      3 C          -7.5250  -20.1200   22.5773 C.3     1  UNL1        0.0161
      4 C          -7.4551  -19.7031   21.1381 C.3     1  UNL1        0.0462
      5 C          -7.3853  -19.2861   19.6990 C.3     1  UNL1        0.0161
      6 C          -6.2569  -20.5838   20.9412 C.3     1  UNL1        0.0424
      7 C          -4.9237  -19.9756   20.6206 C.2     1  UNL1       -0.0006
      8 C          -4.0581  -20.3185   19.4446 C.2     1  UNL1        0.0942
      9 N          -2.8215  -19.4726   19.5170 N.2     1  UNL1       -0.2482
     10 C          -2.9228  -18.6070   20.7379 C.2     1  UNL1        0.0631
     11 C          -1.9998  -17.5759   21.3166 C.3     1  UNL1        0.0717
     12 C          -2.3762  -16.8557   22.5774 C.2     1  UNL1       -0.0198
     13 C          -3.6754  -17.1666   23.2595 C.2     1  UNL1       -0.0042
     14 C          -4.5984  -18.1977   22.6808 C.2     1  UNL1        0.0006
     15 C          -4.2221  -18.9179   21.4200 C.2     1  UNL1        0.0114
     16 C          -9.8582  -19.3461   22.0590 C.3     1  UNL1        0.1020
     17 C         -10.6030  -18.4610   23.0138 C.3     1  UNL1        0.1697
     18 O         -11.9372  -17.8951   22.6268 O.3     1  UNL1       -0.3793
     19 H         -12.1701  -18.1971   21.7349 H       1  UNL1        0.2106
     20 C         -10.0136  -18.1417   24.3557 C.3     1  UNL1        0.2358
     21 O          -9.8494  -16.7130   24.7820 O.3     1  UNL1       -0.4721
     22 C          -8.5353  -16.2397   25.3288 C.ar    1  UNL1        0.1482
     23 C          -8.2743  -16.2927   26.8050 C.ar    1  UNL1        0.0376
     24 C          -6.9601  -15.8194   27.3517 C.ar    1  UNL1        0.0032
     25 C          -5.9069  -15.2932   26.4223 C.ar    1  UNL1        0.0009
     26 C          -6.1679  -15.2402   24.9461 C.ar    1  UNL1        0.0133
     27 C          -7.4820  -15.7135   24.3994 C.ar    1  UNL1        0.1023
     28 C          -7.7431  -15.6605   22.9233 C.1     1  UNL1        0.1035
     29 N          -8.0042  -15.6075   21.4471 N.1     1  UNL1       -0.1907
@<TRIPOS>BOND
     1     3     4    1
     2     4     5    1
     3     4     6    1
     4     6     7    1
     5     7     8    2
     6     8     9    1
     7     9    10    2
     8    10    11    1
     9    11    12    1
    10    12    13    2
    11    13    14    1
    12    14    15    2
    13     4     1    1
    14     1    16    1
    15    16    17    1
    16    17    18    1
    17    17    20    1
    18    20    21    1
    19    21    22    1
    20    22    23   ar
    21    23    24   ar
    22    24    25   ar
    23    25    26   ar
    24    26    27   ar
    25    27    28    1
    26    28    29    3
    27    15     7    1
    28    27    22   ar
    29    15    10    1
    30     1     2    1
    31    18    19    1
@<TRIPOS>MOLECULE
*****
 29 31 0 0 0
SMALL
GASTEIGER

@<TRIPOS>ATOM
      1 N          -8.3315  -18.7880   20.7706 N.3     1  UNL1       -0.2972
      2 H          -8.7358  -19.3074   19.9914 H       1  UNL1        0.1233
      3 C          -6.5380  -19.0505   19.6686 C.3     1  UNL1        0.0161
      4 C          -6.9933  -19.4037   21.0534 C.3     1  UNL1        0.0462
      5 C          -7.4485  -19.7571   22.4383 C.3     1  UNL1        0.0161
      6 C          -5.6550  -20.0195   21.3362 C.3     1  UNL1        0.0424
      7 C          -4.4999  -19.1514   21.7389 C.2     1  UNL1       -0.0006
      8 C          -4.2441  -18.6054   23.1124 C.2     1  UNL1        0.0942
      9 N          -2.9840  -17.7934   23.0611 N.2     1  UNL1       -0.2482
     10 C          -2.4610  -17.8374   21.6559 C.2     1  UNL1        0.0631
     11 C          -1.2527  -17.2217   21.0149 C.3     1  UNL1        0.0717
     12 C          -0.9814  -17.4453   19.5568 C.2     1  UNL1       -0.0198
     13 C          -1.9183  -18.2846   18.7396 C.2     1  UNL1       -0.0042
     14 C          -3.1266  -18.9003   19.3806 C.2     1  UNL1        0.0006
     15 C          -3.3979  -18.6767   20.8388 C.2     1  UNL1        0.0114
     16 C          -9.3761  -18.7373   21.8458 C.3     1  UNL1        0.1020
     17 C         -10.0876  -17.4499   22.1401 C.3     1  UNL1        0.1697
     18 O         -11.5866  -17.4000   22.1203 O.3     1  UNL1       -0.3793
     19 H         -11.9366  -18.2779   21.9019 H       1  UNL1        0.2106
     20 C          -9.3000  -16.2126   22.4541 C.3     1  UNL1        0.2358
     21 O          -7.8959  -16.3278   22.9691 O.3     1  UNL1       -0.4721
     22 C          -7.6121  -16.1180   24.4270 C.ar    1  UNL1        0.1482
     23 C          -8.6256  -16.5263   25.4546 C.ar    1  UNL1        0.0376
     24 C          -8.3418  -16.3165   26.9125 C.ar    1  UNL1        0.0032
     25 C          -7.0445  -15.6984   27.3427 C.ar    1  UNL1        0.0009
     26 C          -6.0310  -15.2901   26.3150 C.ar    1  UNL1        0.0133
     27 C          -6.3148  -15.4999   24.8572 C.ar    1  UNL1        0.1023
     28 C          -5.3014  -15.0917   23.8294 C.1     1  UNL1        0.1035
     29 N          -4.2879  -14.6835   22.8017 N.1     1  UNL1       -0.1907
@<TRIPOS>BOND
     1     3     4    1
     2     4     5    1
     3     4     6    1
     4     6     7    1
     5     7     8    2
     6     8     9    1
     7     9    10    2
     8    10    11    1
     9    11    12    1
    10    12    13    2
    11    13    14    1
    12    14    15    2
    13     4     1    1
    14     1    16    1
    15    16    17    1
    16    17    18    1
    17    17    20    1
    18    20    21    1
    19    21    22    1
    20    22    23   ar
    21    23    24   ar
    22    24    25   ar
    23    25    26   ar
    24    26    27   ar
    25    27    28    1
    26    28    29    3
    27    15     7    1
    28    27    22   ar
    29    15    10    1
    30     1     2    1
    31    18    19    1
@<TRIPOS>MOLECULE
*****
 29 31 0 0 0
SMALL
GASTEIGER

@<TRIPOS>ATOM
      1 N          -7.7705  -18.9321   20.0503 N.3     1  UNL1       -0.2972
      2 H          -7.3279  -18.8038   19.1403 H       1  UNL1        0.1233
      3 C          -6.9981  -18.1846   21.8791 C.3     1  UNL1        0.0161
      4 C          -6.6914  -19.3606   21.0000 C.3     1  UNL1        0.0462
      5 C          -6.3847  -20.5367   20.1209 C.3     1  UNL1        0.0161
      6 C          -5.6123  -19.7892   21.9498 C.3     1  UNL1        0.0424
      7 C          -4.3749  -18.9556   22.1045 C.2     1  UNL1       -0.0006
      8 C          -3.8949  -18.3171   23.3741 C.2     1  UNL1        0.0942
      9 N          -2.6235  -17.5811   23.0709 N.2     1  UNL1       -0.2482
     10 C          -2.3178  -17.7647   21.6139 C.2     1  UNL1        0.0631
     11 C          -1.1936  -17.2681   20.7539 C.3     1  UNL1        0.0717
     12 C          -1.1518  -17.6210   19.2967 C.2     1  UNL1       -0.0198
     13 C          -2.2342  -18.4705   18.6994 C.2     1  UNL1       -0.0042
     14 C          -3.3584  -18.9671   19.5593 C.2     1  UNL1        0.0006
     15 C          -3.4002  -18.6142   21.0166 C.2     1  UNL1        0.0114
     16 C          -8.9674  -19.8089   19.8299 C.3     1  UNL1        0.1020
     17 C         -10.3253  -19.3492   20.2712 C.3     1  UNL1        0.1697
     18 O         -11.1253  -18.4276   19.3991 O.3     1  UNL1       -0.3793
     19 H         -10.6234  -18.2282   18.5933 H       1  UNL1        0.2106
     20 C         -10.8832  -19.8111   21.5848 C.3     1  UNL1        0.2358
     21 O         -11.4826  -18.8182   22.5359 O.3     1  UNL1       -0.4721
     22 C         -10.6064  -18.0926   23.5135 C.ar    1  UNL1        0.1482
     23 C         -10.3384  -18.6864   24.8647 C.ar    1  UNL1        0.0376
     24 C          -9.4622  -17.9608   25.8423 C.ar    1  UNL1        0.0032
     25 C          -8.8540  -16.6415   25.4689 C.ar    1  UNL1        0.0009
     26 C          -9.1220  -16.0477   24.1177 C.ar    1  UNL1        0.0133
     27 C          -9.9982  -16.7733   23.1401 C.ar    1  UNL1        0.1023
     28 C         -10.2662  -16.1796   21.7889 C.1     1  UNL1        0.1035
     29 N         -10.5343  -15.5860   20.4377 N.1     1  UNL1       -0.1907
@<TRIPOS>BOND
     1     3     4    1
     2     4     5    1
     3     4     6    1
     4     6     7    1
     5     7     8    2
     6     8     9    1
     7     9    10    2
     8    10    11    1
     9    11    12    1
    10    12    13    2
    11    13    14    1
    12    14    15    2
    13     4     1    1
    14     1    16    1
    15    16    17    1
    16    17    18    1
    17    17    20    1
    18    20    21    1
    19    21    22    1
    20    22    23   ar
    21    23    24   ar
    22    24    25   ar
    23    25    26   ar
    24    26    27   ar
    25    27    28    1
    26    28    29    3
    27    15     7    1
    28    27    22   ar
    29    15    10    1
    30     1     2    1
    31    18    19    1
@<TRIPOS>MOLECULE
*****
 29 31 0 0 0
SMALL
GASTEIGER

@<TRIPOS>ATOM
      1 N          -7.5204  -19.4238   20.3937 N.3     1  UNL1       -0.2972
      2 H          -7.3978  -18.5114   19.9545 H       1  UNL1        0.1233
      3 C          -6.8095  -18.3935   22.1063 C.3     1  UNL1        0.0161
      4 C          -6.3713  -19.6065   21.3403 C.3     1  UNL1        0.0462
      5 C          -5.9330  -20.8194   20.5744 C.3     1  UNL1        0.0161
      6 C          -5.2221  -19.7891   22.2871 C.3     1  UNL1        0.0424
      7 C          -4.0967  -18.7975   22.3006 C.2     1  UNL1       -0.0006
      8 C          -3.6782  -17.9546   23.4687 C.2     1  UNL1        0.0942
      9 N          -2.5150  -17.1109   23.0383 N.2     1  UNL1       -0.2482
     10 C          -2.2146  -17.4324   21.6043 C.2     1  UNL1        0.0631
     11 C          -1.1772  -16.9107   20.6548 C.3     1  UNL1        0.0717
     12 C          -1.1173  -17.4314   19.2494 C.2     1  UNL1       -0.0198
     13 C          -2.0948  -18.4737   18.7935 C.2     1  UNL1       -0.0042
     14 C          -3.1322  -18.9955   19.7429 C.2     1  UNL1        0.0006
     15 C          -3.1921  -18.4748   21.1484 C.2     1  UNL1        0.0114
     16 C          -7.7443  -20.4108   19.2866 C.3     1  UNL1        0.1020
     17 C          -9.0425  -20.4132   18.5352 C.3     1  UNL1        0.1697
     18 O          -9.1608  -21.1690   17.2449 O.3     1  UNL1       -0.3793
     19 H          -8.3140  -21.5962   17.0416 H       1  UNL1        0.2106
     20 C         -10.2223  -19.6599   19.0740 C.3     1  UNL1        0.2358
     21 O         -10.0114  -18.4954   19.9957 O.3     1  UNL1       -0.4721
     22 C         -10.8163  -18.3812   21.2563 C.ar    1  UNL1        0.1482
     23 C         -10.5684  -19.3283   22.3928 C.ar    1  UNL1        0.0376
     24 C         -11.3732  -19.2141   23.6534 C.ar    1  UNL1        0.0032
     25 C         -12.4260  -18.1528   23.7775 C.ar    1  UNL1        0.0009
     26 C         -12.6739  -17.2058   22.6411 C.ar    1  UNL1        0.0133
     27 C         -11.8690  -17.3199   21.3805 C.ar    1  UNL1        0.1023
     28 C         -12.1169  -16.3729   20.2440 C.1     1  UNL1        0.1035
     29 N         -12.3648  -15.4259   19.1075 N.1     1  UNL1       -0.1907
@<TRIPOS>BOND
     1     3     4    1
     2     4     5    1
     3     4     6    1
     4     6     7    1
     5     7     8    2
     6     8     9    1
     7     9    10    2
     8    10    11    1
     9    11    12    1
    10    12    13    2
    11    13    14    1
    12    14    15    2
    13     4     1    1
    14     1    16    1
    15    16    17    1
    16    17    18    1
    17    17    20    1
    18    20    21    1
    19    21    22    1
    20    22    23   ar
    21    23    24   ar
    22    24    25   ar
    23    25    26   ar
    24    26    27   ar
    25    27    28    1
    26    28    29    3
    27    15     7    1
    28    27    22   ar
    29    15    10    1
    30     1     2    1
    31    18    19    1
@<TRIPOS>MOLECULE
*****
 29 31 0 0 0
SMALL
GASTEIGER

@<TRIPOS>ATOM
      1 N         -11.6816  -18.4466   22.6030 N.3     1  UNL1       -0.2972
      2 H         -12.6863  -18.3445   22.4595 H       1  UNL1        0.1233
      3 C         -11.2183  -19.9806   21.2130 C.3     1  UNL1        0.0161
      4 C         -11.0521  -18.4902   21.2422 C.3     1  UNL1        0.0462
      5 C         -10.8858  -16.9997   21.2713 C.3     1  UNL1        0.0161
      6 C         -10.4225  -18.5339   19.8813 C.3     1  UNL1        0.0424
      7 C          -9.2196  -19.3965   19.6388 C.2     1  UNL1       -0.0006
      8 C          -9.0698  -20.4136   18.5465 C.2     1  UNL1        0.0942
      9 N          -7.7129  -21.0392   18.6786 N.2     1  UNL1       -0.2482
     10 C          -7.0241  -20.4088   19.8526 C.2     1  UNL1        0.0631
     11 C          -5.6693  -20.6280   20.4578 C.3     1  UNL1        0.0717
     12 C          -5.2457  -19.8320   21.6565 C.2     1  UNL1       -0.0198
     13 C          -6.1769  -18.8168   22.2500 C.2     1  UNL1       -0.0042
     14 C          -7.5317  -18.5975   21.6447 C.2     1  UNL1        0.0006
     15 C          -7.9553  -19.3935   20.4460 C.2     1  UNL1        0.0114
     16 C         -11.4942  -19.5921   23.5531 C.3     1  UNL1        0.1020
     17 C         -10.5377  -19.4651   24.7016 C.3     1  UNL1        0.1697
     18 O          -9.8084  -20.6743   25.2075 O.3     1  UNL1       -0.3793
     19 H         -10.0678  -21.4500   24.6861 H       1  UNL1        0.2106
     20 C         -10.3106  -18.1289   25.3442 C.3     1  UNL1        0.2358
     21 O          -9.5192  -17.0762   24.6263 O.3     1  UNL1       -0.4721
     22 C          -8.3487  -16.4262   25.3027 C.ar    1  UNL1        0.1482
     23 C          -8.1178  -16.6377   26.7696 C.ar    1  UNL1        0.0376
     24 C          -6.9474  -15.9877   27.4460 C.ar    1  UNL1        0.0032
     25 C          -6.0078  -15.1262   26.6554 C.ar    1  UNL1        0.0009
     26 C          -6.2386  -14.9147   25.1885 C.ar    1  UNL1        0.0133
     27 C          -7.4091  -15.5647   24.5121 C.ar    1  UNL1        0.1023
     28 C          -7.6401  -15.3532   23.0452 C.1     1  UNL1        0.1035
     29 N          -7.8710  -15.1419   21.5783 N.1     1  UNL1       -0.1907
@<TRIPOS>BOND
     1     3     4    1
     2     4     5    1
     3     4     6    1
     4     6     7    1
     5     7     8    2
     6     8     9    1
     7     9    10    2
     8    10    11    1
     9    11    12    1
    10    12    13    2
    11    13    14    1
    12    14    15    2
    13     4     1    1
    14     1    16    1
    15    16    17    1
    16    17    18    1
    17    17    20    1
    18    20    21    1
    19    21    22    1
    20    22    23   ar
    21    23    24   ar
    22    24    25   ar
    23    25    26   ar
    24    26    27   ar
    25    27    28    1
    26    28    29    3
    27    15     7    1
    28    27    22   ar
    29    15    10    1
    30     1     2    1
    31    18    19    1
@<TRIPOS>MOLECULE
*****
 29 31 0 0 0
SMALL
GASTEIGER

@<TRIPOS>ATOM
      1 N          -9.1950  -18.4124   20.0400 N.3     1  UNL1       -0.2972
      2 H          -9.5215  -18.3638   19.0749 H       1  UNL1        0.1233
      3 C          -8.5364  -20.0839   18.9122 C.3     1  UNL1        0.0161
      4 C          -7.9671  -19.2738   20.0389 C.3     1  UNL1        0.0462
      5 C          -7.3977  -18.4638   21.1657 C.3     1  UNL1        0.0161
      6 C          -6.7391  -20.1354   20.0377 C.3     1  UNL1        0.0424
      7 C          -5.5867  -19.7999   20.9374 C.2     1  UNL1       -0.0006
      8 C          -5.5354  -20.0132   22.4213 C.2     1  UNL1        0.0942
      9 N          -4.2003  -19.5373   22.9121 N.2     1  UNL1       -0.2482
     10 C          -3.4264  -19.0298   21.7316 C.2     1  UNL1        0.0631
     11 C          -2.0522  -18.4410   21.6103 C.3     1  UNL1        0.0717
     12 C          -1.5348  -18.0144   20.2685 C.2     1  UNL1       -0.0198
     13 C          -2.3917  -18.1767   19.0481 C.2     1  UNL1       -0.0042
     14 C          -3.7659  -18.7655   19.1694 C.2     1  UNL1        0.0006
     15 C          -4.2832  -19.1921   20.5111 C.2     1  UNL1        0.0114
     16 C         -10.3785  -18.7946   20.8787 C.3     1  UNL1        0.1020
     17 C         -11.3158  -17.7360   21.3797 C.3     1  UNL1        0.1697
     18 O         -12.6571  -17.5549   20.7332 O.3     1  UNL1       -0.3793
     19 H         -12.7586  -18.1972   20.0135 H       1  UNL1        0.2106
     20 C         -10.9117  -16.8587   22.5273 C.3     1  UNL1        0.2358
     21 O          -9.4701  -16.7692   22.9316 O.3     1  UNL1       -0.4721
     22 C          -9.1048  -16.6180   24.3786 C.ar    1  UNL1        0.1482
     23 C          -8.5105  -15.3321   24.8717 C.ar    1  UNL1        0.0376
     24 C          -8.1453  -15.1810   26.3187 C.ar    1  UNL1        0.0032
     25 C          -8.3744  -16.3157   27.2726 C.ar    1  UNL1        0.0009
     26 C          -8.9688  -17.6016   26.7795 C.ar    1  UNL1        0.0133
     27 C          -9.3340  -17.7528   25.3325 C.ar    1  UNL1        0.1023
     28 C          -9.9284  -19.0386   24.8393 C.1     1  UNL1        0.1035
     29 N         -10.5227  -20.3244   24.3460 N.1     1  UNL1       -0.1907
@<TRIPOS>BOND
     1     3     4    1
     2     4     5    1
     3     4     6    1
     4     6     7    1
     5     7     8    2
     6     8     9    1
     7     9    10    2
     8    10    11    1
     9    11    12    1
    10    12    13    2
    11    13    14    1
    12    14    15    2
    13     4     1    1
    14     1    16    1
    15    16    17    1
    16    17    18    1
    17    17    20    1
    18    20    21    1
    19    21    22    1
    20    22    23   ar
    21    23    24   ar
    22    24    25   ar
    23    25    26   ar
    24    26    27   ar
    25    27    28    1
    26    28    29    3
    27    15     7    1
    28    27    22   ar
    29    15    10    1
    30     1     2    1
    31    18    19    1
@<TRIPOS>MOLECULE
*****
 29 31 0 0 0
SMALL
GASTEIGER

@<TRIPOS>ATOM
      1 N          -7.5098  -16.7023   24.1547 N.3     1  UNL1       -0.2972
      2 H          -6.9748  -16.5066   23.3086 H       1  UNL1        0.1233
      3 C          -8.5651  -15.4939   22.7670 C.3     1  UNL1        0.0161
      4 C          -8.9553  -16.4990   23.8097 C.3     1  UNL1        0.0462
      5 C          -9.3456  -17.5042   24.8525 C.3     1  UNL1        0.0161
      6 C         -10.4010  -16.2957   23.4646 C.3     1  UNL1        0.0424
      7 C         -10.9358  -16.7904   22.1534 C.2     1  UNL1       -0.0006
      8 C         -12.1883  -16.3173   21.4771 C.2     1  UNL1        0.0942
      9 N         -12.3385  -17.0796   20.1940 N.2     1  UNL1       -0.2482
     10 C         -11.1788  -18.0238   20.0773 C.2     1  UNL1        0.0631
     11 C         -10.8003  -19.0233   19.0248 C.3     1  UNL1        0.0717
     12 C          -9.5548  -19.8440   19.1833 C.2     1  UNL1       -0.0198
     13 C          -8.6879  -19.6653   20.3943 C.2     1  UNL1       -0.0042
     14 C          -9.0664  -18.6659   21.4468 C.2     1  UNL1        0.0006
     15 C         -10.3119  -17.8451   21.2883 C.2     1  UNL1        0.0114
     16 C          -6.8825  -15.9030   25.2582 C.3     1  UNL1        0.1020
     17 C          -5.5657  -15.2203   25.0345 C.3     1  UNL1        0.1697
     18 O          -5.0640  -14.2147   26.0281 O.3     1  UNL1       -0.3793
     19 H          -5.7062  -14.1246   26.7494 H       1  UNL1        0.2106
     20 C          -4.7507  -15.5432   23.8174 C.3     1  UNL1        0.2358
     21 O          -4.5823  -16.9693   23.3842 O.3     1  UNL1       -0.4721
     22 C          -3.5554  -17.3226   22.3494 C.ar    1  UNL1        0.1482
     23 C          -2.4179  -16.3853   22.0711 C.ar    1  UNL1        0.0376
     24 C          -1.3910  -16.7386   21.0364 C.ar    1  UNL1        0.0032
     25 C          -1.5016  -18.0292   20.2800 C.ar    1  UNL1        0.0009
     26 C          -2.6392  -18.9665   20.5583 C.ar    1  UNL1        0.0133
     27 C          -3.6661  -18.6132   21.5930 C.ar    1  UNL1        0.1023
     28 C          -4.8036  -19.5504   21.8714 C.1     1  UNL1        0.1035
     29 N          -5.9412  -20.4876   22.1498 N.1     1  UNL1       -0.1907
@<TRIPOS>BOND
     1     3     4    1
     2     4     5    1
     3     4     6    1
     4     6     7    1
     5     7     8    2
     6     8     9    1
     7     9    10    2
     8    10    11    1
     9    11    12    1
    10    12    13    2
    11    13    14    1
    12    14    15    2
    13     4     1    1
    14     1    16    1
    15    16    17    1
    16    17    18    1
    17    17    20    1
    18    20    21    1
    19    21    22    1
    20    22    23   ar
    21    23    24   ar
    22    24    25   ar
    23    25    26   ar
    24    26    27   ar
    25    27    28    1
    26    28    29    3
    27    15     7    1
    28    27    22   ar
    29    15    10    1
    30     1     2    1
    31    18    19    1
