@<TRIPOS>MOLECULE
*****
 24 26 0 0 0
SMALL
GASTEIGER

@<TRIPOS>ATOM
      1 O          -6.6692  -20.5033   20.2544 O.3     1  UNL1       -0.4706
      2 C          -5.4033  -19.8294   20.6945 C.ar    1  UNL1        0.1397
      3 C          -5.1577  -19.5732   22.1518 C.ar    1  UNL1        0.0385
      4 C          -3.8919  -18.8994   22.5919 C.ar    1  UNL1        0.0228
      5 C          -2.8718  -18.4818   21.5746 C.ar    1  UNL1        0.0894
      6 N          -1.5406  -17.8032   21.7080 N.ar    1  UNL1       -0.2245
      7 C          -0.9636  -17.6401   20.3331 C.ar    1  UNL1        0.1567
      8 N           0.3562  -17.0099   19.9998 N.pl3   1  UNL1       -0.3375
      9 S          -1.9382  -18.2178   19.3499 S.2     1  UNL1       -0.0519
     10 C          -3.1174  -18.7380   20.1172 C.ar    1  UNL1        0.0527
     11 C          -4.3832  -19.4118   19.6772 C.ar    1  UNL1        0.0450
     12 H           0.9290  -16.6575   20.7188 H       1  UNL1        0.1442
     13 H           0.6496  -16.9488   19.0620 H       1  UNL1        0.1442
     14 C          -7.7588  -19.7022   19.6056 C.3     1  UNL1        0.2320
     15 C         -11.1004  -18.0129   22.1017 C.ar    1  UNL1        0.0756
     16 C          -9.6741  -17.7107   22.4544 C.ar    1  UNL1        0.0062
     17 C          -8.5602  -18.2737   21.6224 C.ar    1  UNL1       -0.0005
     18 C          -8.8727  -19.1390   20.4377 C.ar    1  UNL1        0.0212
     19 C         -10.2990  -19.4413   20.0850 C.ar    1  UNL1       -0.0005
     20 C         -11.4128  -18.8782   20.9170 C.ar    1  UNL1        0.0062
     21 C         -12.2142  -17.4497   22.9338 C.2     1  UNL1        0.3413
     22 O         -12.7664  -16.0894   22.6260 O.2     1  UNL1       -0.2449
     23 C         -14.2450  -18.1967   24.3716 C.3     1  UNL1        0.2560
     24 O         -12.7758  -18.2469   24.0735 O.3     1  UNL1       -0.4413
@<TRIPOS>BOND
     1    23    24    1
     2    24    21    1
     3    21    22    2
     4    21    15    1
     5    15    16   ar
     6    16    17   ar
     7    17    18   ar
     8    18    14    1
     9    14     1    1
    10     1     2    1
    11     2     3   ar
    12     3     4   ar
    13     4     5   ar
    14     5     6   ar
    15     6     7   ar
    16     7     8    1
    17     7     9   ar
    18     9    10   ar
    19    10    11   ar
    20    18    19   ar
    21    19    20   ar
    22    20    15   ar
    23    11     2   ar
    24    10     5   ar
    25     8    12    1
    26     8    13    1
@<TRIPOS>MOLECULE
*****
 24 26 0 0 0
SMALL
GASTEIGER

@<TRIPOS>ATOM
      1 O          -8.8843  -18.5542   20.0065 O.3     1  UNL1       -0.4706
      2 C         -10.1314  -18.2999   20.8002 C.ar    1  UNL1        0.1397
      3 C         -11.2721  -17.5458   20.1836 C.ar    1  UNL1        0.0385
      4 C         -12.5192  -17.2915   20.9773 C.ar    1  UNL1        0.0228
      5 C         -12.6257  -17.7912   22.3876 C.ar    1  UNL1        0.0894
      6 N         -13.7215  -17.6929   23.4073 N.ar    1  UNL1       -0.2245
      7 C         -13.2580  -18.3863   24.6541 C.ar    1  UNL1        0.1567
      8 N         -14.0394  -18.5280   25.9266 N.pl3   1  UNL1       -0.3375
      9 S         -11.8757  -18.9130   24.4049 S.2     1  UNL1       -0.0519
     10 C         -11.4850  -18.5453   23.0042 C.ar    1  UNL1        0.0527
     11 C         -10.2379  -18.7996   22.2105 C.ar    1  UNL1        0.0450
     12 H         -14.9443  -18.1459   25.9938 H       1  UNL1        0.1442
     13 H         -13.6475  -19.0031   26.6947 H       1  UNL1        0.1442
     14 C          -7.9759  -19.6880   20.3797 C.3     1  UNL1        0.2320
     15 C          -3.6874  -18.8699   21.4705 C.ar    1  UNL1        0.0756
     16 C          -4.0293  -19.3770   20.1008 C.ar    1  UNL1        0.0062
     17 C          -5.4588  -19.6497   19.7372 C.ar    1  UNL1       -0.0005
     18 C          -6.5464  -19.4153   20.7433 C.ar    1  UNL1        0.0212
     19 C          -6.2045  -18.9082   22.1130 C.ar    1  UNL1       -0.0005
     20 C          -4.7750  -18.6355   22.4765 C.ar    1  UNL1        0.0062
     21 C          -2.2579  -18.5972   21.8340 C.2     1  UNL1        0.3413
     22 O          -1.9266  -17.9710   23.1562 O.2     1  UNL1       -0.2449
     23 C          -0.5920  -17.9019   19.9656 C.3     1  UNL1        0.2560
     24 O          -1.1597  -18.9506   20.8754 O.3     1  UNL1       -0.4413
@<TRIPOS>BOND
     1    23    24    1
     2    24    21    1
     3    21    22    2
     4    21    15    1
     5    15    16   ar
     6    16    17   ar
     7    17    18   ar
     8    18    14    1
     9    14     1    1
    10     1     2    1
    11     2     3   ar
    12     3     4   ar
    13     4     5   ar
    14     5     6   ar
    15     6     7   ar
    16     7     8    1
    17     7     9   ar
    18     9    10   ar
    19    10    11   ar
    20    18    19   ar
    21    19    20   ar
    22    20    15   ar
    23    11     2   ar
    24    10     5   ar
    25     8    12    1
    26     8    13    1
@<TRIPOS>MOLECULE
*****
 24 26 0 0 0
SMALL
GASTEIGER

@<TRIPOS>ATOM
      1 O          -7.6604  -19.8651   19.9834 O.3     1  UNL1       -0.4706
      2 C          -8.9462  -19.4360   20.6260 C.ar    1  UNL1        0.1397
      3 C         -10.0277  -18.8111   19.7955 C.ar    1  UNL1        0.0385
      4 C         -11.3133  -18.3820   20.4381 C.ar    1  UNL1        0.0228
      5 C         -11.5175  -18.5778   21.9112 C.ar    1  UNL1        0.0894
      6 N         -12.6698  -18.2566   22.8163 N.ar    1  UNL1       -0.2245
      7 C         -12.3004  -18.6830   24.2061 C.ar    1  UNL1        0.1567
      8 N         -13.1605  -18.5484   25.4277 N.pl3   1  UNL1       -0.3375
      9 S         -10.9198  -19.2678   24.1600 S.2     1  UNL1       -0.0519
     10 C         -10.4359  -19.2027   22.7417 C.ar    1  UNL1        0.0527
     11 C          -9.1503  -19.6318   22.0991 C.ar    1  UNL1        0.0450
     12 H         -14.0575  -18.1490   25.3565 H       1  UNL1        0.1442
     13 H         -12.8280  -18.8594   26.3006 H       1  UNL1        0.1442
     14 C          -6.5408  -20.3969   20.8281 C.3     1  UNL1        0.2320
     15 C          -2.4065  -18.6640   20.4345 C.ar    1  UNL1        0.0756
     16 C          -3.4173  -18.4468   19.3478 C.ar    1  UNL1        0.0062
     17 C          -4.7954  -19.0244   19.4789 C.ar    1  UNL1       -0.0005
     18 C          -5.1626  -19.8192   20.6969 C.ar    1  UNL1        0.0212
     19 C          -4.1518  -20.0363   21.7836 C.ar    1  UNL1       -0.0005
     20 C          -2.7737  -19.4587   21.6525 C.ar    1  UNL1        0.0062
     21 C          -1.0284  -18.0863   20.3033 C.2     1  UNL1        0.3413
     22 O           0.1023  -18.9458   19.8209 O.2     1  UNL1       -0.2449
     23 C          -1.7082  -15.9363   21.5937 C.3     1  UNL1        0.2560
     24 O          -0.7810  -16.6491   20.6544 O.3     1  UNL1       -0.4413
@<TRIPOS>BOND
     1    23    24    1
     2    24    21    1
     3    21    22    2
     4    21    15    1
     5    15    16   ar
     6    16    17   ar
     7    17    18   ar
     8    18    14    1
     9    14     1    1
    10     1     2    1
    11     2     3   ar
    12     3     4   ar
    13     4     5   ar
    14     5     6   ar
    15     6     7   ar
    16     7     8    1
    17     7     9   ar
    18     9    10   ar
    19    10    11   ar
    20    18    19   ar
    21    19    20   ar
    22    20    15   ar
    23    11     2   ar
    24    10     5   ar
    25     8    12    1
    26     8    13    1
@<TRIPOS>MOLECULE
*****
 24 26 0 0 0
SMALL
GASTEIGER

@<TRIPOS>ATOM
      1 O          -5.3053  -15.8882   24.2057 O.3     1  UNL1       -0.4706
      2 C          -6.7834  -16.0599   24.0161 C.ar    1  UNL1        0.1397
      3 C          -7.7425  -15.4022   24.9635 C.ar    1  UNL1        0.0385
      4 C          -9.2205  -15.5738   24.7739 C.ar    1  UNL1        0.0228
      5 C          -9.7394  -16.4032   23.6369 C.ar    1  UNL1        0.0894
      6 N         -11.1324  -16.7496   23.2012 N.ar    1  UNL1       -0.2245
      7 C         -11.0342  -17.6213   21.9845 C.ar    1  UNL1        0.1567
      8 N         -12.1872  -18.1993   21.2185 N.pl3   1  UNL1       -0.3375
      9 S          -9.5806  -17.8137   21.6683 S.2     1  UNL1       -0.0519
     10 C          -8.7804  -17.0609   22.6895 C.ar    1  UNL1        0.0527
     11 C          -7.3024  -16.8892   22.8791 C.ar    1  UNL1        0.0450
     12 H         -13.1107  -18.0151   21.5057 H       1  UNL1        0.1442
     13 H         -12.0204  -18.7628   20.4287 H       1  UNL1        0.1442
     14 C          -4.4086  -17.0902   24.2367 C.3     1  UNL1        0.2320
     15 C          -1.7714  -18.0214   20.7114 C.ar    1  UNL1        0.0756
     16 C          -2.5959  -19.1063   21.3385 C.ar    1  UNL1        0.0062
     17 C          -3.4750  -18.7959   22.5136 C.ar    1  UNL1       -0.0005
     18 C          -3.5295  -17.4007   23.0616 C.ar    1  UNL1        0.0212
     19 C          -2.7050  -16.3158   22.4345 C.ar    1  UNL1       -0.0005
     20 C          -1.8259  -16.6262   21.2594 C.ar    1  UNL1        0.0062
     21 C          -0.8923  -18.3319   19.5362 C.2     1  UNL1        0.3413
     22 O           0.4647  -18.9332   19.7529 O.2     1  UNL1       -0.2449
     23 C          -2.5798  -17.1799   17.9316 C.3     1  UNL1        0.2560
     24 O          -1.3703  -18.0411   18.1445 O.3     1  UNL1       -0.4413
@<TRIPOS>BOND
     1    23    24    1
     2    24    21    1
     3    21    22    2
     4    21    15    1
     5    15    16   ar
     6    16    17   ar
     7    17    18   ar
     8    18    14    1
     9    14     1    1
    10     1     2    1
    11     2     3   ar
    12     3     4   ar
    13     4     5   ar
    14     5     6   ar
    15     6     7   ar
    16     7     8    1
    17     7     9   ar
    18     9    10   ar
    19    10    11   ar
    20    18    19   ar
    21    19    20   ar
    22    20    15   ar
    23    11     2   ar
    24    10     5   ar
    25     8    12    1
    26     8    13    1
@<TRIPOS>MOLECULE
*****
 24 26 0 0 0
SMALL
GASTEIGER

@<TRIPOS>ATOM
      1 O          -7.4528  -20.3514   22.0215 O.3     1  UNL1       -0.4706
      2 C          -8.4104  -19.1986   21.9543 C.ar    1  UNL1        0.1397
      3 C          -8.4680  -18.2051   23.0766 C.ar    1  UNL1        0.0385
      4 C          -9.4255  -17.0525   23.0094 C.ar    1  UNL1        0.0228
      5 C         -10.3254  -16.8934   21.8200 C.ar    1  UNL1        0.0894
      6 N         -11.3631  -15.8660   21.4768 N.ar    1  UNL1       -0.2245
      7 C         -11.9468  -16.2246   20.1424 C.ar    1  UNL1        0.1567
      8 N         -13.0193  -15.4672   19.4168 N.pl3   1  UNL1       -0.3375
      9 S         -11.2699  -17.4736   19.6609 S.2     1  UNL1       -0.0519
     10 C         -10.2678  -17.8869   20.6977 C.ar    1  UNL1        0.0527
     11 C          -9.3103  -19.0395   20.7649 C.ar    1  UNL1        0.0450
     12 H         -13.4039  -14.6539   19.8166 H       1  UNL1        0.1442
     13 H         -13.3384  -15.7834   18.5408 H       1  UNL1        0.1442
     14 C          -6.0893  -20.1600   22.6165 C.3     1  UNL1        0.2320
     15 C          -2.6909  -18.7249   20.0395 C.ar    1  UNL1        0.0756
     16 C          -2.4479  -19.0653   21.4800 C.ar    1  UNL1        0.0062
     17 C          -3.5807  -19.5437   22.3390 C.ar    1  UNL1       -0.0005
     18 C          -4.9565  -19.6816   21.7575 C.ar    1  UNL1        0.0212
     19 C          -5.1995  -19.3412   20.3170 C.ar    1  UNL1       -0.0005
     20 C          -4.0667  -18.8628   19.4580 C.ar    1  UNL1        0.0062
     21 C          -1.5581  -18.2465   19.1805 C.2     1  UNL1        0.3413
     22 O          -1.8406  -17.4438   17.9452 O.2     1  UNL1       -0.2449
     23 C           0.7242  -17.5225   20.1887 C.3     1  UNL1        0.2560
     24 O          -0.1427  -18.5708   19.5568 O.3     1  UNL1       -0.4413
@<TRIPOS>BOND
     1    23    24    1
     2    24    21    1
     3    21    22    2
     4    21    15    1
     5    15    16   ar
     6    16    17   ar
     7    17    18   ar
     8    18    14    1
     9    14     1    1
    10     1     2    1
    11     2     3   ar
    12     3     4   ar
    13     4     5   ar
    14     5     6   ar
    15     6     7   ar
    16     7     8    1
    17     7     9   ar
    18     9    10   ar
    19    10    11   ar
    20    18    19   ar
    21    19    20   ar
    22    20    15   ar
    23    11     2   ar
    24    10     5   ar
    25     8    12    1
    26     8    13    1
@<TRIPOS>MOLECULE
*****
 24 26 0 0 0
SMALL
GASTEIGER

@<TRIPOS>ATOM
      1 O          -5.8518  -16.2645   23.9835 O.3     1  UNL1       -0.4706
      2 C          -7.0042  -16.8651   23.2341 C.ar    1  UNL1        0.1397
      3 C          -6.8180  -18.1424   22.4702 C.ar    1  UNL1        0.0385
      4 C          -7.9704  -18.7429   21.7209 C.ar    1  UNL1        0.0228
      5 C          -9.3089  -18.0661   21.7356 C.ar    1  UNL1        0.0894
      6 N         -10.6191  -18.4190   21.0962 N.ar    1  UNL1       -0.2245
      7 C         -11.6150  -17.3597   21.4650 C.ar    1  UNL1        0.1567
      8 N         -13.0532  -17.3156   21.0409 N.pl3   1  UNL1       -0.3375
      9 S         -10.9203  -16.3521   22.3323 S.2     1  UNL1       -0.0519
     10 C          -9.4951  -16.7887   22.4996 C.ar    1  UNL1        0.0527
     11 C          -8.3427  -16.1882   23.2489 C.ar    1  UNL1        0.0450
     12 H         -13.4194  -18.0272   20.4674 H       1  UNL1        0.1442
     13 H         -13.6310  -16.5751   21.3359 H       1  UNL1        0.1442
     14 C          -4.6000  -17.0622   24.1990 C.3     1  UNL1        0.2320
     15 C          -1.8695  -17.9447   20.7326 C.ar    1  UNL1        0.0756
     16 C          -2.6089  -19.0614   21.4081 C.ar    1  UNL1        0.0062
     17 C          -3.5191  -18.7672   22.5636 C.ar    1  UNL1       -0.0005
     18 C          -3.6898  -17.3564   23.0435 C.ar    1  UNL1        0.0212
     19 C          -2.9504  -16.2397   22.3680 C.ar    1  UNL1       -0.0005
     20 C          -2.0403  -16.5339   21.2125 C.ar    1  UNL1        0.0062
     21 C          -0.9593  -18.2389   19.5771 C.2     1  UNL1        0.3413
     22 O          -1.4831  -18.1695   18.1733 O.2     1  UNL1       -0.2449
     23 C           1.4012  -17.6084   20.4602 C.3     1  UNL1        0.2560
     24 O           0.4745  -18.6025   19.8255 O.3     1  UNL1       -0.4413
@<TRIPOS>BOND
     1    23    24    1
     2    24    21    1
     3    21    22    2
     4    21    15    1
     5    15    16   ar
     6    16    17   ar
     7    17    18   ar
     8    18    14    1
     9    14     1    1
    10     1     2    1
    11     2     3   ar
    12     3     4   ar
    13     4     5   ar
    14     5     6   ar
    15     6     7   ar
    16     7     8    1
    17     7     9   ar
    18     9    10   ar
    19    10    11   ar
    20    18    19   ar
    21    19    20   ar
    22    20    15   ar
    23    11     2   ar
    24    10     5   ar
    25     8    12    1
    26     8    13    1
@<TRIPOS>MOLECULE
*****
 24 26 0 0 0
SMALL
GASTEIGER

@<TRIPOS>ATOM
      1 O          -7.0659  -20.6565   20.9889 O.3     1  UNL1       -0.4706
      2 C          -8.2501  -19.7441   20.8650 C.ar    1  UNL1        0.1397
      3 C          -9.0620  -19.7359   19.6038 C.ar    1  UNL1        0.0385
      4 C         -10.2461  -18.8235   19.4800 C.ar    1  UNL1        0.0228
      5 C         -10.6183  -17.9193   20.6174 C.ar    1  UNL1        0.0894
      6 N         -11.7238  -16.9192   20.7842 N.ar    1  UNL1       -0.2245
      7 C         -11.5951  -16.3092   22.1485 C.ar    1  UNL1        0.1567
      8 N         -12.4937  -15.2603   22.7338 N.pl3   1  UNL1       -0.3375
      9 S         -10.4101  -16.9324   22.8249 S.2     1  UNL1       -0.0519
     10 C          -9.8064  -17.9274   21.8787 C.ar    1  UNL1        0.0527
     11 C          -8.6223  -18.8398   22.0024 C.ar    1  UNL1        0.0450
     12 H         -13.2501  -14.9115   22.2089 H       1  UNL1        0.1442
     13 H         -12.3271  -14.9208   23.6427 H       1  UNL1        0.1442
     14 C          -5.9138  -20.2746   21.8701 C.3     1  UNL1        0.2320
     15 C          -2.1086  -18.7101   20.0472 C.ar    1  UNL1        0.0756
     16 C          -2.9518  -19.6952   19.2931 C.ar    1  UNL1        0.0062
     17 C          -4.2202  -20.2167   19.9007 C.ar    1  UNL1       -0.0005
     18 C          -4.6454  -19.7531   21.2624 C.ar    1  UNL1        0.0212
     19 C          -3.8022  -18.7680   22.0165 C.ar    1  UNL1       -0.0005
     20 C          -2.5338  -18.2465   21.4089 C.ar    1  UNL1        0.0062
     21 C          -0.8402  -18.1886   19.4395 C.2     1  UNL1        0.3413
     22 O           0.3807  -18.0075   20.2919 O.2     1  UNL1       -0.2449
     23 C          -2.0036  -17.2776   17.3026 C.3     1  UNL1        0.2560
     24 O          -0.7927  -17.8482   17.9794 O.3     1  UNL1       -0.4413
@<TRIPOS>BOND
     1    23    24    1
     2    24    21    1
     3    21    22    2
     4    21    15    1
     5    15    16   ar
     6    16    17   ar
     7    17    18   ar
     8    18    14    1
     9    14     1    1
    10     1     2    1
    11     2     3   ar
    12     3     4   ar
    13     4     5   ar
    14     5     6   ar
    15     6     7   ar
    16     7     8    1
    17     7     9   ar
    18     9    10   ar
    19    10    11   ar
    20    18    19   ar
    21    19    20   ar
    22    20    15   ar
    23    11     2   ar
    24    10     5   ar
    25     8    12    1
    26     8    13    1
@<TRIPOS>MOLECULE
*****
 24 26 0 0 0
SMALL
GASTEIGER

@<TRIPOS>ATOM
      1 O          -8.0584  -19.6810   20.6435 O.3     1  UNL1       -0.4706
      2 C          -9.3964  -19.1767   21.0968 C.ar    1  UNL1        0.1397
      3 C         -10.2754  -18.4216   20.1443 C.ar    1  UNL1        0.0385
      4 C         -11.6133  -17.9173   20.5977 C.ar    1  UNL1        0.0228
      5 C         -12.0722  -18.1681   22.0036 C.ar    1  UNL1        0.0894
      6 N         -13.3306  -17.7955   22.7301 N.ar    1  UNL1       -0.2245
      7 C         -13.2293  -18.3203   24.1317 C.ar    1  UNL1        0.1567
      8 N         -14.2668  -18.1739   25.2052 N.pl3   1  UNL1       -0.3375
      9 S         -11.9083  -19.0172   24.2713 S.2     1  UNL1       -0.0519
     10 C         -11.1933  -18.9231   22.9561 C.ar    1  UNL1        0.0527
     11 C          -9.8554  -19.4274   22.5027 C.ar    1  UNL1        0.0450
     12 H         -15.1068  -17.6967   25.0160 H       1  UNL1        0.1442
     13 H         -14.1076  -18.5550   26.0988 H       1  UNL1        0.1442
     14 C          -6.8560  -18.7872   20.7163 C.3     1  UNL1        0.2320
     15 C          -6.0790  -16.3587   24.4242 C.ar    1  UNL1        0.0756
     16 C          -5.0282  -17.2965   23.9080 C.ar    1  UNL1        0.0062
     17 C          -5.2872  -18.1060   22.6721 C.ar    1  UNL1       -0.0005
     18 C          -6.5970  -17.9777   21.9523 C.ar    1  UNL1        0.0212
     19 C          -7.6477  -17.0399   22.4685 C.ar    1  UNL1       -0.0005
     20 C          -7.3887  -16.2304   23.7044 C.ar    1  UNL1        0.0062
     21 C          -5.8200  -15.5492   25.6602 C.2     1  UNL1        0.3413
     22 O          -4.8637  -14.3944   25.6137 O.2     1  UNL1       -0.2449
     23 C          -7.9273  -15.4395   27.1757 C.3     1  UNL1        0.2560
     24 O          -6.5171  -15.8944   26.9427 O.3     1  UNL1       -0.4413
@<TRIPOS>BOND
     1    23    24    1
     2    24    21    1
     3    21    22    2
     4    21    15    1
     5    15    16   ar
     6    16    17   ar
     7    17    18   ar
     8    18    14    1
     9    14     1    1
    10     1     2    1
    11     2     3   ar
    12     3     4   ar
    13     4     5   ar
    14     5     6   ar
    15     6     7   ar
    16     7     8    1
    17     7     9   ar
    18     9    10   ar
    19    10    11   ar
    20    18    19   ar
    21    19    20   ar
    22    20    15   ar
    23    11     2   ar
    24    10     5   ar
    25     8    12    1
    26     8    13    1
@<TRIPOS>MOLECULE
*****
 24 26 0 0 0
SMALL
GASTEIGER

@<TRIPOS>ATOM
      1 O         -17.8267   -4.1864   19.2048 O.3     1  UNL1       -0.4706
      2 C         -17.9056   -5.6165   18.7591 C.ar    1  UNL1        0.1397
      3 C         -18.5957   -5.9644   17.4736 C.ar    1  UNL1        0.0385
      4 C         -18.6745   -7.3944   17.0278 C.ar    1  UNL1        0.0228
      5 C         -18.0632   -8.4766   17.8676 C.ar    1  UNL1        0.0894
      6 N         -17.9841   -9.9636   17.6867 N.ar    1  UNL1       -0.2245
      7 C         -17.2450  -10.5346   18.8604 C.ar    1  UNL1        0.1567
      8 N         -16.9375  -11.9851   19.0879 N.pl3   1  UNL1       -0.3375
      9 S         -16.8673   -9.4006   19.7667 S.2     1  UNL1       -0.0519
     10 C         -17.3730   -8.1287   19.1531 C.ar    1  UNL1        0.0527
     11 C         -17.2942   -6.6986   19.5988 C.ar    1  UNL1        0.0450
     12 H         -17.2289  -12.6588   18.4319 H       1  UNL1        0.1442
     13 H         -16.4443  -12.2633   19.8933 H       1  UNL1        0.1442
     14 C         -16.6572   -3.3383   18.8012 C.3     1  UNL1        0.2320
     15 C         -12.4919   -5.0354   18.9436 C.ar    1  UNL1        0.0756
     16 C         -13.1587   -4.7943   17.6218 C.ar    1  UNL1        0.0062
     17 C         -14.5471   -4.2286   17.5743 C.ar    1  UNL1       -0.0005
     18 C         -15.2687   -3.9040   18.8487 C.ar    1  UNL1        0.0212
     19 C         -14.6019   -4.1451   20.1705 C.ar    1  UNL1       -0.0005
     20 C         -13.2135   -4.7108   20.2180 C.ar    1  UNL1        0.0062
     21 C         -11.1034   -5.6010   18.9911 C.2     1  UNL1        0.3413
     22 O          -9.9366   -4.7020   19.2743 O.2     1  UNL1       -0.2449
     23 C          -9.4992   -7.6398   18.8497 C.3     1  UNL1        0.2560
     24 O         -10.8818   -7.0657   18.7553 O.3     1  UNL1       -0.4413
@<TRIPOS>BOND
     1    23    24    1
     2    24    21    1
     3    21    22    2
     4    21    15    1
     5    15    16   ar
     6    16    17   ar
     7    17    18   ar
     8    18    14    1
     9    14     1    1
    10     1     2    1
    11     2     3   ar
    12     3     4   ar
    13     4     5   ar
    14     5     6   ar
    15     6     7   ar
    16     7     8    1
    17     7     9   ar
    18     9    10   ar
    19    10    11   ar
    20    18    19   ar
    21    19    20   ar
    22    20    15   ar
    23    11     2   ar
    24    10     5   ar
    25     8    12    1
    26     8    13    1
