@<TRIPOS>MOLECULE
*****
 44 48 0 0 0
SMALL
GASTEIGER

@<TRIPOS>ATOM
      1 C           6.4672   -3.8122   23.0354 C.ar    1  UNL1        0.1690
      2 C           5.2308   -3.2503   22.3986 C.ar    1  UNL1        0.1754
      3 C           4.2762   -2.4270   23.2117 C.ar    1  UNL1        0.0776
      4 C           4.5581   -2.1656   24.6615 C.ar    1  UNL1        0.1512
      5 O           3.6036   -1.3423   25.4745 O.2     1  UNL1       -0.4530
      6 C           3.8854   -1.0809   26.9245 C.ar    1  UNL1        0.1543
      7 C           2.9309   -0.2576   27.7375 C.ar    1  UNL1        0.0747
      8 C           3.2127    0.0038   29.1875 C.ar    1  UNL1        0.1445
      9 C           4.4491   -0.5582   29.8244 C.ar    1  UNL1        0.0680
     10 C           5.4037   -1.3815   29.0113 C.ar    1  UNL1        0.1478
     11 C           5.1218   -1.6429   27.5614 C.ar    1  UNL1        0.1076
     12 C           6.0763   -2.4662   26.7483 C.ar    1  UNL1        0.2042
     13 O           7.3127   -3.0281   27.3851 O.2     1  UNL1       -0.2863
     14 C           5.7945   -2.7276   25.2984 C.ar    1  UNL1        0.0731
     15 C           6.7490   -3.5508   24.4854 C.ar    1  UNL1        0.0252
     16 C           4.7310   -0.2968   31.2742 C.2     1  UNL1        0.0049
     17 C           3.7765    0.5265   32.0872 C.2     1  UNL1        0.0130
     18 C           2.5401    1.0884   31.4504 C.3     1  UNL1        0.1517
     19 C           1.2454    1.8306   31.2989 C.3     1  UNL1        0.0483
     20 C           2.3723    1.6075   32.8476 C.3     1  UNL1        0.0483
     21 O           2.2582    0.8270   30.0005 O.3     1  UNL1       -0.4783
     22 C           8.4688   -3.9619   21.3859 C.3     1  UNL1        0.2526
     23 O           7.4217   -4.6355   22.2224 O.3     1  UNL1       -0.4687
     24 O           4.9489   -3.5117   20.9487 O.3     1  UNL1       -0.4675
     25 C           5.1948   -2.4372   19.9313 C.3     1  UNL1        0.2321
     26 C           4.0690   -1.5488   19.4917 C.ar    1  UNL1        0.0213
     27 C           2.7558   -1.5885   20.2155 C.ar    1  UNL1        0.0016
     28 C           1.6300   -0.7000   19.7758 C.ar    1  UNL1        0.0294
     29 C           1.8174    0.2281   18.6125 C.ar    1  UNL1        0.1401
     30 F           0.6916    1.1166   18.1729 F       1  UNL1       -0.2042
     31 C           3.1307    0.2678   17.8887 C.ar    1  UNL1        0.0294
     32 C           4.2564   -0.6206   18.3283 C.ar    1  UNL1        0.0016
     33 O           6.6400   -1.9434   29.6481 O.3     1  UNL1       -0.4703
     34 C           6.5292   -3.0557   30.6483 C.3     1  UNL1        0.2318
     35 C           7.6230   -4.0761   30.7595 C.2     1  UNL1        0.0218
     36 C           7.3980   -5.4739   30.2640 C.2     1  UNL1        0.0142
     37 C           8.4918   -6.4943   30.3752 C.2     1  UNL1        0.0727
     38 O           9.0568   -6.8446   31.7198 O.co2   1  UNL1       -0.5446
     39 O           9.0206   -7.1644   29.1417 O.co2   1  UNL1       -0.5446
     40 C           7.9854   -4.1128   25.1222 C.3     1  UNL1        0.0550
     41 C           8.3030   -5.5723   24.9843 C.2     1  UNL1       -0.0298
     42 C           7.5877   -6.5792   25.8354 C.2     1  UNL1       -0.0475
     43 C           7.9053   -8.0387   25.6974 C.3     1  UNL1        0.0260
     44 C           6.5548   -6.1267   26.8245 C.3     1  UNL1        0.0260
@<TRIPOS>UNITY_ATOM_ATTR
38 1
charge -1
@<TRIPOS>BOND
     1    22    23    1
     2    23     1    1
     3     1     2   ar
     4     2    24    1
     5    24    25    1
     6    25    26    1
     7    26    27   ar
     8    27    28   ar
     9    28    29   ar
    10    29    30    1
    11    29    31   ar
    12    31    32   ar
    13     2     3   ar
    14     3     4   ar
    15     4     5   ar
    16     5     6   ar
    17     6     7   ar
    18     7     8   ar
    19     8     9   ar
    20     9    10   ar
    21    10    33    1
    22    33    34    1
    23    34    35    1
    24    35    36    2
    25    36    37    1
    26    37    38   ar
    27    37    39   ar
    28    10    11   ar
    29    11    12   ar
    30    12    13    2
    31    12    14   ar
    32    14    15   ar
    33    15    40    1
    34    40    41    1
    35    41    42    2
    36    42    43    1
    37    42    44    1
    38     9    16    1
    39    16    17    2
    40    17    18    1
    41    18    19    1
    42    18    20    1
    43    18    21    1
    44    15     1   ar
    45    32    26   ar
    46    14     4   ar
    47    11     6   ar
    48    21     8    1
@<TRIPOS>MOLECULE
*****
 44 48 0 0 0
SMALL
GASTEIGER

@<TRIPOS>ATOM
      1 C           4.4995   -2.3490   21.5890 C.ar    1  UNL1        0.1690
      2 C           5.3560   -3.1883   22.4901 C.ar    1  UNL1        0.1754
      3 C           5.3220   -2.9704   23.9739 C.ar    1  UNL1        0.0776
      4 C           4.4315   -1.9133   24.5565 C.ar    1  UNL1        0.1512
      5 O           4.3975   -1.6954   26.0401 O.2     1  UNL1       -0.4530
      6 C           3.5070   -0.6382   26.6228 C.ar    1  UNL1        0.1543
      7 C           3.4730   -0.4204   28.1065 C.ar    1  UNL1        0.0747
      8 C           2.5824    0.6368   28.6891 C.ar    1  UNL1        0.1445
      9 C           1.7259    1.4760   27.7880 C.ar    1  UNL1        0.0680
     10 C           1.7599    1.2581   26.3043 C.ar    1  UNL1        0.1478
     11 C           2.6504    0.2010   25.7217 C.ar    1  UNL1        0.1076
     12 C           2.6844   -0.0169   24.2379 C.ar    1  UNL1        0.2042
     13 O           1.8278    0.8223   23.3369 O.2     1  UNL1       -0.2863
     14 C           3.5749   -1.0740   23.6554 C.ar    1  UNL1        0.0731
     15 C           3.6089   -1.2919   22.1717 C.ar    1  UNL1        0.0252
     16 C           0.8353    2.5331   28.3706 C.2     1  UNL1        0.0049
     17 C           0.8014    2.7510   29.8543 C.2     1  UNL1        0.0130
     18 C           1.6580    1.9117   30.7554 C.3     1  UNL1        0.1517
     19 C           2.2803    1.3749   32.0102 C.3     1  UNL1        0.0483
     20 C           0.9835    2.7824   31.7737 C.3     1  UNL1        0.0483
     21 O           2.5485    0.8546   30.1728 O.3     1  UNL1       -0.4783
     22 C           3.6268   -3.5824   19.4756 C.3     1  UNL1        0.2526
     23 O           4.5334   -2.5669   20.1054 O.3     1  UNL1       -0.4687
     24 O           6.2466   -4.2454   21.9076 O.3     1  UNL1       -0.4675
     25 C           7.6716   -4.3593   22.3617 C.3     1  UNL1        0.2321
     26 C           8.0730   -5.4547   23.3045 C.ar    1  UNL1        0.0213
     27 C           8.9853   -6.5498   22.8372 C.ar    1  UNL1        0.0016
     28 C           9.3867   -7.6452   23.7802 C.ar    1  UNL1        0.0294
     29 C           8.8758   -7.6454   25.1904 C.ar    1  UNL1        0.1401
     30 F           9.2772   -8.7407   26.1334 F       1  UNL1       -0.2042
     31 C           7.9635   -6.5502   25.6578 C.ar    1  UNL1        0.0294
     32 C           7.5621   -5.4549   24.7149 C.ar    1  UNL1        0.0016
     33 O           0.9033    2.0973   25.4032 O.3     1  UNL1       -0.4703
     34 C          -0.5578    1.7908   25.2582 C.3     1  UNL1        0.2318
     35 C          -1.5649    2.9017   25.3000 C.2     1  UNL1        0.0218
     36 C          -2.2163    3.2751   26.5985 C.2     1  UNL1        0.0142
     37 C          -3.2234    4.3859   26.6403 C.2     1  UNL1        0.0727
     38 O          -4.6554    4.0879   26.9725 O.co2   1  UNL1       -0.5446
     39 O          -2.7984    5.7949   26.3499 O.co2   1  UNL1       -0.5446
     40 C           2.7523   -0.4527   21.2706 C.3     1  UNL1        0.0550
     41 C           3.3771    0.6166   20.4241 C.2     1  UNL1       -0.0298
     42 C           2.6808    1.0938   19.1841 C.2     1  UNL1       -0.0475
     43 C           3.3055    2.1630   18.3376 C.3     1  UNL1        0.0260
     44 C           1.3599    0.5018   18.7907 C.3     1  UNL1        0.0260
@<TRIPOS>UNITY_ATOM_ATTR
38 1
charge -1
@<TRIPOS>BOND
     1    22    23    1
     2    23     1    1
     3     1     2   ar
     4     2    24    1
     5    24    25    1
     6    25    26    1
     7    26    27   ar
     8    27    28   ar
     9    28    29   ar
    10    29    30    1
    11    29    31   ar
    12    31    32   ar
    13     2     3   ar
    14     3     4   ar
    15     4     5   ar
    16     5     6   ar
    17     6     7   ar
    18     7     8   ar
    19     8     9   ar
    20     9    10   ar
    21    10    33    1
    22    33    34    1
    23    34    35    1
    24    35    36    2
    25    36    37    1
    26    37    38   ar
    27    37    39   ar
    28    10    11   ar
    29    11    12   ar
    30    12    13    2
    31    12    14   ar
    32    14    15   ar
    33    15    40    1
    34    40    41    1
    35    41    42    2
    36    42    43    1
    37    42    44    1
    38     9    16    1
    39    16    17    2
    40    17    18    1
    41    18    19    1
    42    18    20    1
    43    18    21    1
    44    15     1   ar
    45    32    26   ar
    46    14     4   ar
    47    11     6   ar
    48    21     8    1
@<TRIPOS>MOLECULE
*****
 44 48 0 0 0
SMALL
GASTEIGER

@<TRIPOS>ATOM
      1 C          -0.3707    2.3676   24.1616 C.ar    1  UNL1        0.1690
      2 C           0.6791    1.8624   23.2167 C.ar    1  UNL1        0.1754
      3 C           1.8552    1.0946   23.7433 C.ar    1  UNL1        0.0776
      4 C           1.9815    0.8320   25.2147 C.ar    1  UNL1        0.1512
      5 O           3.1576    0.0642   25.7412 O.2     1  UNL1       -0.4530
      6 C           3.2840   -0.1984   27.2127 C.ar    1  UNL1        0.1543
      7 C           4.4601   -0.9662   27.7392 C.ar    1  UNL1        0.0747
      8 C           4.5865   -1.2288   29.2107 C.ar    1  UNL1        0.1445
      9 C           3.5367   -0.7236   30.1556 C.ar    1  UNL1        0.0680
     10 C           2.3606    0.0443   29.6290 C.ar    1  UNL1        0.1478
     11 C           2.2343    0.3068   28.1576 C.ar    1  UNL1        0.1076
     12 C           1.0581    1.0747   27.6310 C.ar    1  UNL1        0.2042
     13 O           0.0084    1.5799   28.5758 O.2     1  UNL1       -0.2863
     14 C           0.9318    1.3372   26.1596 C.ar    1  UNL1        0.0731
     15 C          -0.2443    2.1050   25.6330 C.ar    1  UNL1        0.0252
     16 C           3.6630   -0.9861   31.6270 C.2     1  UNL1        0.0049
     17 C           4.8391   -1.7539   32.1535 C.2     1  UNL1        0.0130
     18 C           5.8889   -2.2592   31.2086 C.3     1  UNL1        0.1517
     19 C           7.1325   -2.9374   30.7153 C.3     1  UNL1        0.0483
     20 C           6.4471   -2.7573   32.5087 C.3     1  UNL1        0.0483
     21 O           5.7625   -1.9966   29.7372 O.3     1  UNL1       -0.4783
     22 C          -1.3938    4.5809   23.2647 C.3     1  UNL1        0.2526
     23 O          -1.5467    3.1354   23.6351 O.3     1  UNL1       -0.4687
     24 O           0.5527    2.1250   21.7453 O.3     1  UNL1       -0.4675
     25 C           0.2161    1.0022   20.8093 C.3     1  UNL1        0.2321
     26 C           1.3052    0.3145   20.0407 C.ar    1  UNL1        0.0213
     27 C           1.9503   -0.9205   20.5962 C.ar    1  UNL1        0.0016
     28 C           3.0395   -1.6083   19.8275 C.ar    1  UNL1        0.0294
     29 C           3.4834   -1.0611   18.5033 C.ar    1  UNL1        0.1401
     30 F           4.5725   -1.7489   17.7346 F       1  UNL1       -0.2042
     31 C           2.8382    0.1739   17.9478 C.ar    1  UNL1        0.0294
     32 C           1.7491    0.8616   18.7164 C.ar    1  UNL1        0.0016
     33 O           1.3108    0.5495   30.5738 O.3     1  UNL1       -0.4703
     34 C           1.4634    1.8979   31.2130 C.3     1  UNL1        0.2318
     35 C           1.6571    2.0072   32.6964 C.2     1  UNL1        0.0218
     36 C           3.0263    1.8476   33.2878 C.2     1  UNL1        0.0142
     37 C           3.2199    1.9569   34.7712 C.2     1  UNL1        0.0727
     38 O           2.0841    2.3993   35.6453 O.co2   1  UNL1       -0.5446
     39 O           4.5495    1.6237   35.3806 O.co2   1  UNL1       -0.5446
     40 C          -1.2940    2.6103   26.5779 C.3     1  UNL1        0.0550
     41 C          -1.4108    4.0803   26.8527 C.2     1  UNL1       -0.0298
     42 C          -2.7552    4.7448   26.8204 C.2     1  UNL1       -0.0475
     43 C          -2.8721    6.2148   27.0952 C.3     1  UNL1        0.0260
     44 C          -3.9828    3.9393   26.5132 C.3     1  UNL1        0.0260
@<TRIPOS>UNITY_ATOM_ATTR
38 1
charge -1
@<TRIPOS>BOND
     1    22    23    1
     2    23     1    1
     3     1     2   ar
     4     2    24    1
     5    24    25    1
     6    25    26    1
     7    26    27   ar
     8    27    28   ar
     9    28    29   ar
    10    29    30    1
    11    29    31   ar
    12    31    32   ar
    13     2     3   ar
    14     3     4   ar
    15     4     5   ar
    16     5     6   ar
    17     6     7   ar
    18     7     8   ar
    19     8     9   ar
    20     9    10   ar
    21    10    33    1
    22    33    34    1
    23    34    35    1
    24    35    36    2
    25    36    37    1
    26    37    38   ar
    27    37    39   ar
    28    10    11   ar
    29    11    12   ar
    30    12    13    2
    31    12    14   ar
    32    14    15   ar
    33    15    40    1
    34    40    41    1
    35    41    42    2
    36    42    43    1
    37    42    44    1
    38     9    16    1
    39    16    17    2
    40    17    18    1
    41    18    19    1
    42    18    20    1
    43    18    21    1
    44    15     1   ar
    45    32    26   ar
    46    14     4   ar
    47    11     6   ar
    48    21     8    1
@<TRIPOS>MOLECULE
*****
 44 48 0 0 0
SMALL
GASTEIGER

@<TRIPOS>ATOM
      1 C           1.1125    0.8804   21.9912 C.ar    1  UNL1        0.1690
      2 C           1.3831   -0.0228   20.8246 C.ar    1  UNL1        0.1754
      3 C           2.4033   -1.1161   20.9433 C.ar    1  UNL1        0.0776
      4 C           3.1528   -1.3061   22.2286 C.ar    1  UNL1        0.1512
      5 O           4.1729   -2.3994   22.3474 O.2     1  UNL1       -0.4530
      6 C           4.9225   -2.5895   23.6327 C.ar    1  UNL1        0.1543
      7 C           5.9426   -3.6827   23.7514 C.ar    1  UNL1        0.0747
      8 C           6.6922   -3.8728   25.0368 C.ar    1  UNL1        0.1445
      9 C           6.4215   -2.9696   26.2035 C.ar    1  UNL1        0.0680
     10 C           5.4013   -1.8763   26.0847 C.ar    1  UNL1        0.1478
     11 C           4.6518   -1.6863   24.7994 C.ar    1  UNL1        0.1076
     12 C           3.6316   -0.5930   24.6806 C.ar    1  UNL1        0.2042
     13 O           3.3610    0.3102   25.8472 O.2     1  UNL1       -0.2863
     14 C           2.8822   -0.4029   23.3953 C.ar    1  UNL1        0.0731
     15 C           1.8620    0.6903   23.2766 C.ar    1  UNL1        0.0252
     16 C           7.1710   -3.1596   27.4888 C.2     1  UNL1        0.0049
     17 C           8.1911   -4.2529   27.6075 C.2     1  UNL1        0.0130
     18 C           8.4618   -5.1560   26.4409 C.3     1  UNL1        0.1517
     19 C           9.0656   -6.2582   25.6219 C.3     1  UNL1        0.0483
     20 C           9.4209   -5.7288   27.4418 C.3     1  UNL1        0.0483
     21 O           7.7123   -4.9660   25.1555 O.3     1  UNL1       -0.4783
     22 C           0.4832    3.3056   21.3042 C.3     1  UNL1        0.2526
     23 O           0.0924    1.9736   21.8725 O.3     1  UNL1       -0.4687
     24 O           0.6337    0.1672   19.5392 O.3     1  UNL1       -0.4675
     25 C           1.2354    0.9832   18.4338 C.3     1  UNL1        0.2321
     26 C           2.6959    0.8556   18.1169 C.ar    1  UNL1        0.0213
     27 C           3.6428    1.9587   18.4867 C.ar    1  UNL1        0.0016
     28 C           5.1034    1.8310   18.1698 C.ar    1  UNL1        0.0294
     29 C           5.6171    0.6004   17.4831 C.ar    1  UNL1        0.1401
     30 F           7.0777    0.4727   17.1662 F       1  UNL1       -0.2042
     31 C           4.6702   -0.5026   17.1132 C.ar    1  UNL1        0.0294
     32 C           3.2097   -0.3750   17.4301 C.ar    1  UNL1        0.0016
     33 O           5.1307   -0.9731   27.2513 O.3     1  UNL1       -0.4703
     34 C           4.2362   -1.4329   28.3641 C.3     1  UNL1        0.2318
     35 C           3.6379   -0.4321   29.3077 C.2     1  UNL1        0.0218
     36 C           2.1740   -0.4870   29.6300 C.2     1  UNL1        0.0142
     37 C           1.5758    0.5139   30.5736 C.2     1  UNL1        0.0727
     38 O           0.2799    1.1868   30.2306 O.co2   1  UNL1       -0.5446
     39 O           2.2735    0.8418   31.8604 O.co2   1  UNL1       -0.5446
     40 C           1.5914    1.5935   24.4432 C.3     1  UNL1        0.0550
     41 C           0.2746    1.5211   25.1580 C.2     1  UNL1       -0.0298
     42 C           0.1367    2.0972   26.5361 C.2     1  UNL1       -0.0475
     43 C          -1.1799    2.0249   27.2510 C.3     1  UNL1        0.0260
     44 C           1.3156    2.7457   27.1993 C.3     1  UNL1        0.0260
@<TRIPOS>UNITY_ATOM_ATTR
38 1
charge -1
@<TRIPOS>BOND
     1    22    23    1
     2    23     1    1
     3     1     2   ar
     4     2    24    1
     5    24    25    1
     6    25    26    1
     7    26    27   ar
     8    27    28   ar
     9    28    29   ar
    10    29    30    1
    11    29    31   ar
    12    31    32   ar
    13     2     3   ar
    14     3     4   ar
    15     4     5   ar
    16     5     6   ar
    17     6     7   ar
    18     7     8   ar
    19     8     9   ar
    20     9    10   ar
    21    10    33    1
    22    33    34    1
    23    34    35    1
    24    35    36    2
    25    36    37    1
    26    37    38   ar
    27    37    39   ar
    28    10    11   ar
    29    11    12   ar
    30    12    13    2
    31    12    14   ar
    32    14    15   ar
    33    15    40    1
    34    40    41    1
    35    41    42    2
    36    42    43    1
    37    42    44    1
    38     9    16    1
    39    16    17    2
    40    17    18    1
    41    18    19    1
    42    18    20    1
    43    18    21    1
    44    15     1   ar
    45    32    26   ar
    46    14     4   ar
    47    11     6   ar
    48    21     8    1
@<TRIPOS>MOLECULE
*****
 44 48 0 0 0
SMALL
GASTEIGER

@<TRIPOS>ATOM
      1 C           3.5664    1.7307   24.9590 C.ar    1  UNL1        0.1690
      2 C           3.8808    1.9472   26.4097 C.ar    1  UNL1        0.1754
      3 C           4.6630    0.9170   27.1693 C.ar    1  UNL1        0.0776
      4 C           5.1306   -0.3296   26.4784 C.ar    1  UNL1        0.1512
      5 O           5.9127   -1.3597   27.2381 O.2     1  UNL1       -0.4530
      6 C           6.3803   -2.6063   26.5472 C.ar    1  UNL1        0.1543
      7 C           7.1624   -3.6364   27.3069 C.ar    1  UNL1        0.0747
      8 C           7.6300   -4.8831   26.6160 C.ar    1  UNL1        0.1445
      9 C           7.3156   -5.0995   25.1654 C.ar    1  UNL1        0.0680
     10 C           6.5334   -4.0693   24.4057 C.ar    1  UNL1        0.1478
     11 C           6.0658   -2.8228   25.0966 C.ar    1  UNL1        0.1076
     12 C           5.2837   -1.7926   24.3369 C.ar    1  UNL1        0.2042
     13 O           4.9692   -2.0091   22.8863 O.2     1  UNL1       -0.2863
     14 C           4.8161   -0.5460   25.0278 C.ar    1  UNL1        0.0731
     15 C           4.0340    0.4841   24.2681 C.ar    1  UNL1        0.0252
     16 C           7.7832   -6.3461   24.4745 C.2     1  UNL1        0.0049
     17 C           8.5652   -7.3762   25.2342 C.2     1  UNL1        0.0130
     18 C           8.8797   -7.1597   26.6848 C.3     1  UNL1        0.1517
     19 C           9.4220   -7.4060   28.0615 C.3     1  UNL1        0.0483
     20 C           9.5357   -8.4918   26.4720 C.3     1  UNL1        0.0483
     21 O           8.4121   -5.9132   27.3757 O.3     1  UNL1       -0.4783
     22 C           3.4872    3.9383   23.5917 C.3     1  UNL1        0.2526
     23 O           2.7843    2.7608   24.1994 O.3     1  UNL1       -0.4687
     24 O           3.4132    3.1937   27.1006 O.3     1  UNL1       -0.4675
     25 C           2.5363    3.0950   28.3135 C.3     1  UNL1        0.2321
     26 C           1.4497    2.0626   28.3713 C.ar    1  UNL1        0.0213
     27 C           0.1737    2.2732   27.6113 C.ar    1  UNL1        0.0016
     28 C          -0.9129    1.2407   27.6691 C.ar    1  UNL1        0.0294
     29 C          -0.7236   -0.0024   28.4869 C.ar    1  UNL1        0.1401
     30 F          -1.8102   -1.0349   28.5448 F       1  UNL1       -0.2042
     31 C           0.5524   -0.2130   29.2470 C.ar    1  UNL1        0.0294
     32 C           1.6390    0.8194   29.1892 C.ar    1  UNL1        0.0016
     33 O           6.2189   -4.2858   22.9551 O.3     1  UNL1       -0.4703
     34 C           7.2710   -4.0394   21.9147 C.3     1  UNL1        0.2318
     35 C           6.8910   -3.9713   20.4653 C.2     1  UNL1        0.0218
     36 C           6.4119   -2.6781   19.8754 C.2     1  UNL1        0.0142
     37 C           6.0319   -2.6101   18.4259 C.2     1  UNL1        0.0727
     38 O           7.0492   -2.2012   17.4023 O.co2   1  UNL1       -0.5446
     39 O           4.6345   -2.9509   18.0002 O.co2   1  UNL1       -0.5446
     40 C           3.7195    0.2676   22.8175 C.3     1  UNL1        0.0550
     41 C           2.2922    0.2181   22.3588 C.2     1  UNL1       -0.0298
     42 C           1.9674   -0.2332   20.9657 C.2     1  UNL1       -0.0475
     43 C           0.5401   -0.2828   20.5070 C.3     1  UNL1        0.0260
     44 C           3.0699   -0.6351   20.0313 C.3     1  UNL1        0.0260
@<TRIPOS>UNITY_ATOM_ATTR
38 1
charge -1
@<TRIPOS>BOND
     1    22    23    1
     2    23     1    1
     3     1     2   ar
     4     2    24    1
     5    24    25    1
     6    25    26    1
     7    26    27   ar
     8    27    28   ar
     9    28    29   ar
    10    29    30    1
    11    29    31   ar
    12    31    32   ar
    13     2     3   ar
    14     3     4   ar
    15     4     5   ar
    16     5     6   ar
    17     6     7   ar
    18     7     8   ar
    19     8     9   ar
    20     9    10   ar
    21    10    33    1
    22    33    34    1
    23    34    35    1
    24    35    36    2
    25    36    37    1
    26    37    38   ar
    27    37    39   ar
    28    10    11   ar
    29    11    12   ar
    30    12    13    2
    31    12    14   ar
    32    14    15   ar
    33    15    40    1
    34    40    41    1
    35    41    42    2
    36    42    43    1
    37    42    44    1
    38     9    16    1
    39    16    17    2
    40    17    18    1
    41    18    19    1
    42    18    20    1
    43    18    21    1
    44    15     1   ar
    45    32    26   ar
    46    14     4   ar
    47    11     6   ar
    48    21     8    1
@<TRIPOS>MOLECULE
*****
 44 48 0 0 0
SMALL
GASTEIGER

@<TRIPOS>ATOM
      1 C           1.7581    1.5586   24.6577 C.ar    1  UNL1        0.1690
      2 C           2.2787    1.3742   23.2631 C.ar    1  UNL1        0.1754
      3 C           1.4306    1.7629   22.0884 C.ar    1  UNL1        0.0776
      4 C           0.0620    2.3360   22.3084 C.ar    1  UNL1        0.1512
      5 O          -0.7860    2.7246   21.1337 O.2     1  UNL1       -0.4530
      6 C          -2.1547    3.2978   21.3537 C.ar    1  UNL1        0.1543
      7 C          -3.0027    3.6864   20.1790 C.ar    1  UNL1        0.0747
      8 C          -4.3714    4.2595   20.3990 C.ar    1  UNL1        0.1445
      9 C          -4.8920    4.4440   21.7936 C.ar    1  UNL1        0.0680
     10 C          -4.0439    4.0553   22.9683 C.ar    1  UNL1        0.1478
     11 C          -2.6753    3.4822   22.7483 C.ar    1  UNL1        0.1076
     12 C          -1.8272    3.0935   23.9230 C.ar    1  UNL1        0.2042
     13 O          -2.3479    3.2779   25.3176 O.2     1  UNL1       -0.2863
     14 C          -0.4586    2.5204   23.7030 C.ar    1  UNL1        0.0731
     15 C           0.3894    2.1318   24.8776 C.ar    1  UNL1        0.0252
     16 C          -6.2606    5.0170   22.0136 C.2     1  UNL1        0.0049
     17 C          -7.1086    5.4057   20.8389 C.2     1  UNL1        0.0130
     18 C          -6.5880    5.2213   19.4443 C.3     1  UNL1        0.1517
     19 C          -6.5365    5.2379   17.9453 C.3     1  UNL1        0.0483
     20 C          -7.9387    5.8001   19.1437 C.3     1  UNL1        0.0483
     21 O          -5.2194    4.6482   19.2244 O.3     1  UNL1       -0.4783
     22 C           3.7471    2.0464   26.2562 C.3     1  UNL1        0.2526
     23 O           2.6060    1.1700   25.8323 O.3     1  UNL1       -0.4687
     24 O           3.6473    0.8011   23.0431 O.3     1  UNL1       -0.4675
     25 C           3.8988   -0.6566   23.2916 C.3     1  UNL1        0.2321
     26 C           3.8606   -1.6295   22.1506 C.ar    1  UNL1        0.0213
     27 C           4.4658   -2.9931   22.3071 C.ar    1  UNL1        0.0016
     28 C           4.4275   -3.9660   21.1660 C.ar    1  UNL1        0.0294
     29 C           3.7841   -3.5753   19.8685 C.ar    1  UNL1        0.1401
     30 F           3.7459   -4.5483   18.7274 F       1  UNL1       -0.2042
     31 C           3.1790   -2.2118   19.7121 C.ar    1  UNL1        0.0294
     32 C           3.2172   -1.2388   20.8531 C.ar    1  UNL1        0.0016
     33 O          -4.5645    4.2397   24.3629 O.3     1  UNL1       -0.4703
     34 C          -4.7355    5.6206   24.9231 C.3     1  UNL1        0.2318
     35 C          -5.1097    5.8043   26.3640 C.2     1  UNL1        0.0218
     36 C          -6.4865    6.2761   26.7270 C.2     1  UNL1        0.0142
     37 C          -6.8608    6.4599   28.1679 C.2     1  UNL1        0.0727
     38 O          -8.2057    6.0100   28.6567 O.co2   1  UNL1       -0.5446
     39 O          -5.8902    7.0935   29.1200 O.co2   1  UNL1       -0.5446
     40 C          -0.1313    2.3162   26.2722 C.3     1  UNL1        0.0550
     41 C          -0.7898    1.1719   26.9844 C.2     1  UNL1       -0.0298
     42 C          -0.5257    0.9448   28.4434 C.2     1  UNL1       -0.0475
     43 C          -1.1841   -0.1994   29.1556 C.3     1  UNL1        0.0260
     44 C           0.3969    1.8620   29.1902 C.3     1  UNL1        0.0260
@<TRIPOS>UNITY_ATOM_ATTR
38 1
charge -1
@<TRIPOS>BOND
     1    22    23    1
     2    23     1    1
     3     1     2   ar
     4     2    24    1
     5    24    25    1
     6    25    26    1
     7    26    27   ar
     8    27    28   ar
     9    28    29   ar
    10    29    30    1
    11    29    31   ar
    12    31    32   ar
    13     2     3   ar
    14     3     4   ar
    15     4     5   ar
    16     5     6   ar
    17     6     7   ar
    18     7     8   ar
    19     8     9   ar
    20     9    10   ar
    21    10    33    1
    22    33    34    1
    23    34    35    1
    24    35    36    2
    25    36    37    1
    26    37    38   ar
    27    37    39   ar
    28    10    11   ar
    29    11    12   ar
    30    12    13    2
    31    12    14   ar
    32    14    15   ar
    33    15    40    1
    34    40    41    1
    35    41    42    2
    36    42    43    1
    37    42    44    1
    38     9    16    1
    39    16    17    2
    40    17    18    1
    41    18    19    1
    42    18    20    1
    43    18    21    1
    44    15     1   ar
    45    32    26   ar
    46    14     4   ar
    47    11     6   ar
    48    21     8    1
@<TRIPOS>MOLECULE
*****
 44 48 0 0 0
SMALL
GASTEIGER

@<TRIPOS>ATOM
      1 C           6.0653   -2.8376   25.3204 C.ar    1  UNL1        0.1690
      2 C           5.8087   -2.2917   26.6938 C.ar    1  UNL1        0.1754
      3 C           4.7406   -1.2595   26.9031 C.ar    1  UNL1        0.0776
      4 C           3.9290   -0.7733   25.7390 C.ar    1  UNL1        0.1512
      5 O           2.8609    0.2587   25.9484 O.2     1  UNL1       -0.4530
      6 C           2.0493    0.7450   24.7843 C.ar    1  UNL1        0.1543
      7 C           0.9812    1.7771   24.9936 C.ar    1  UNL1        0.0747
      8 C           0.1696    2.2633   23.8296 C.ar    1  UNL1        0.1445
      9 C           0.4262    1.7174   22.4562 C.ar    1  UNL1        0.0680
     10 C           1.4944    0.6852   22.2469 C.ar    1  UNL1        0.1478
     11 C           2.3059    0.1991   23.4109 C.ar    1  UNL1        0.1076
     12 C           3.3741   -0.8331   23.2016 C.ar    1  UNL1        0.2042
     13 O           3.6307   -1.3790   21.8283 O.2     1  UNL1       -0.2863
     14 C           4.1856   -1.3193   24.3657 C.ar    1  UNL1        0.0731
     15 C           5.2537   -2.3514   24.1563 C.ar    1  UNL1        0.0252
     16 C          -0.3853    2.2036   21.2922 C.2     1  UNL1        0.0049
     17 C          -1.4534    3.2357   21.5015 C.2     1  UNL1        0.0130
     18 C          -1.7100    3.7816   22.8749 C.3     1  UNL1        0.1517
     19 C          -2.3224    4.5944   23.9768 C.3     1  UNL1        0.0483
     20 C          -2.7342    4.5500   22.0935 C.3     1  UNL1        0.0483
     21 O          -0.8985    3.2954   24.0389 O.3     1  UNL1       -0.4783
     22 C           6.9156   -5.2792   25.5753 C.3     1  UNL1        0.2526
     23 O           7.1334   -3.8697   25.1111 O.3     1  UNL1       -0.4687
     24 O           6.6203   -2.7779   27.8578 O.3     1  UNL1       -0.4675
     25 C           6.9007   -1.8613   29.0116 C.3     1  UNL1        0.2321
     26 C           6.1647   -2.0388   30.3065 C.ar    1  UNL1        0.0213
     27 C           4.9977   -1.1548   30.6332 C.ar    1  UNL1        0.0016
     28 C           4.2618   -1.3324   31.9282 C.ar    1  UNL1        0.0294
     29 C           4.6928   -2.3938   32.8964 C.ar    1  UNL1        0.1401
     30 F           3.9569   -2.5714   34.1914 F       1  UNL1       -0.2042
     31 C           5.8598   -3.2778   32.5697 C.ar    1  UNL1        0.0294
     32 C           6.5958   -3.1003   31.2748 C.ar    1  UNL1        0.0016
     33 O           1.7510    0.1393   20.8735 O.3     1  UNL1       -0.4703
     34 C           2.4516    0.9828   19.8500 C.3     1  UNL1        0.2318
     35 C           2.9817    0.3540   18.5956 C.2     1  UNL1        0.0218
     36 C           4.4014   -0.1271   18.5397 C.2     1  UNL1        0.0142
     37 C           4.9314   -0.7558   17.2853 C.2     1  UNL1        0.0727
     38 O           3.9999   -1.0702   16.1524 O.co2   1  UNL1       -0.5446
     39 O           6.3931   -1.0703   17.1637 O.co2   1  UNL1       -0.5446
     40 C           5.5103   -2.8973   22.7830 C.3     1  UNL1        0.0550
     41 C           6.7713   -2.5353   22.0555 C.2     1  UNL1       -0.0298
     42 C           6.8967   -2.8152   20.5872 C.2     1  UNL1       -0.0475
     43 C           8.1576   -2.4532   19.8597 C.3     1  UNL1        0.0260
     44 C           5.7612   -3.4570   19.8463 C.3     1  UNL1        0.0260
@<TRIPOS>UNITY_ATOM_ATTR
38 1
charge -1
@<TRIPOS>BOND
     1    22    23    1
     2    23     1    1
     3     1     2   ar
     4     2    24    1
     5    24    25    1
     6    25    26    1
     7    26    27   ar
     8    27    28   ar
     9    28    29   ar
    10    29    30    1
    11    29    31   ar
    12    31    32   ar
    13     2     3   ar
    14     3     4   ar
    15     4     5   ar
    16     5     6   ar
    17     6     7   ar
    18     7     8   ar
    19     8     9   ar
    20     9    10   ar
    21    10    33    1
    22    33    34    1
    23    34    35    1
    24    35    36    2
    25    36    37    1
    26    37    38   ar
    27    37    39   ar
    28    10    11   ar
    29    11    12   ar
    30    12    13    2
    31    12    14   ar
    32    14    15   ar
    33    15    40    1
    34    40    41    1
    35    41    42    2
    36    42    43    1
    37    42    44    1
    38     9    16    1
    39    16    17    2
    40    17    18    1
    41    18    19    1
    42    18    20    1
    43    18    21    1
    44    15     1   ar
    45    32    26   ar
    46    14     4   ar
    47    11     6   ar
    48    21     8    1
@<TRIPOS>MOLECULE
*****
 44 48 0 0 0
SMALL
GASTEIGER

@<TRIPOS>ATOM
      1 C           1.9813    0.0356   20.9708 C.ar    1  UNL1        0.1690
      2 C           1.0079    0.7760   21.8394 C.ar    1  UNL1        0.1754
      3 C           1.1831    0.7780   23.3292 C.ar    1  UNL1        0.0776
      4 C           2.3315    0.0397   23.9503 C.ar    1  UNL1        0.1512
      5 O           2.5066    0.0417   25.4400 O.2     1  UNL1       -0.4530
      6 C           3.6551   -0.6966   26.0613 C.ar    1  UNL1        0.1543
      7 C           3.8302   -0.6946   27.5510 C.ar    1  UNL1        0.0747
      8 C           4.9787   -1.4329   28.1722 C.ar    1  UNL1        0.1445
      9 C           5.9521   -2.1733   27.3036 C.ar    1  UNL1        0.0680
     10 C           5.7769   -2.1754   25.8138 C.ar    1  UNL1        0.1478
     11 C           4.6285   -1.4370   25.1927 C.ar    1  UNL1        0.1076
     12 C           4.4533   -1.4391   23.7029 C.ar    1  UNL1        0.2042
     13 O           5.4267   -2.1795   22.8343 O.2     1  UNL1       -0.2863
     14 C           3.3049   -0.7007   23.0818 C.ar    1  UNL1        0.0731
     15 C           3.1298   -0.7028   21.5920 C.ar    1  UNL1        0.0252
     16 C           7.1005   -2.9117   27.9248 C.2     1  UNL1        0.0049
     17 C           7.2756   -2.9096   29.4145 C.2     1  UNL1        0.0130
     18 C           6.3023   -2.1692   30.2830 C.3     1  UNL1        0.1517
     19 C           5.6491   -1.6189   31.5161 C.3     1  UNL1        0.0483
     20 C           7.2239   -2.7165   31.3324 C.3     1  UNL1        0.0483
     21 O           5.1538   -1.4309   29.6619 O.3     1  UNL1       -0.4783
     22 C           2.3350    1.1736   18.6623 C.3     1  UNL1        0.2526
     23 O           1.8062    0.0335   19.4811 O.3     1  UNL1       -0.4687
     24 O          -0.1405    1.5143   21.2182 O.3     1  UNL1       -0.4675
     25 C          -0.4364    2.9256   21.6316 C.3     1  UNL1        0.2321
     26 C          -1.6062    3.2161   22.5243 C.ar    1  UNL1        0.0213
     27 C          -1.4268    3.2348   24.0134 C.ar    1  UNL1        0.0016
     28 C          -2.5968    3.5253   24.9062 C.ar    1  UNL1        0.0294
     29 C          -3.9460    3.7970   24.3098 C.ar    1  UNL1        0.1401
     30 F          -5.1159    4.0875   25.2026 F       1  UNL1       -0.2042
     31 C          -4.1254    3.7783   22.8207 C.ar    1  UNL1        0.0294
     32 C          -2.9555    3.4878   21.9279 C.ar    1  UNL1        0.0016
     33 O           6.7503   -2.9158   24.9453 O.3     1  UNL1       -0.4703
     34 C           6.5217   -4.3640   24.6284 C.3     1  UNL1        0.2318
     35 C           7.3388   -5.4195   25.3127 C.2     1  UNL1        0.0218
     36 C           6.7732   -6.1619   26.4870 C.2     1  UNL1        0.0142
     37 C           7.5903   -7.2174   27.1712 C.2     1  UNL1        0.0727
     38 O           7.9271   -8.4893   26.4511 O.co2   1  UNL1       -0.5446
     39 O           8.0706   -7.0008   28.5757 O.co2   1  UNL1       -0.5446
     40 C           4.1031   -1.4432   20.7235 C.3     1  UNL1        0.0550
     41 C           3.7005   -2.7369   20.0799 C.2     1  UNL1       -0.0298
     42 C           4.7485   -3.6624   19.5366 C.2     1  UNL1       -0.0475
     43 C           4.3459   -4.9561   18.8930 C.3     1  UNL1        0.0260
     44 C           6.1992   -3.2941   19.6369 C.3     1  UNL1        0.0260
@<TRIPOS>UNITY_ATOM_ATTR
38 1
charge -1
@<TRIPOS>BOND
     1    22    23    1
     2    23     1    1
     3     1     2   ar
     4     2    24    1
     5    24    25    1
     6    25    26    1
     7    26    27   ar
     8    27    28   ar
     9    28    29   ar
    10    29    30    1
    11    29    31   ar
    12    31    32   ar
    13     2     3   ar
    14     3     4   ar
    15     4     5   ar
    16     5     6   ar
    17     6     7   ar
    18     7     8   ar
    19     8     9   ar
    20     9    10   ar
    21    10    33    1
    22    33    34    1
    23    34    35    1
    24    35    36    2
    25    36    37    1
    26    37    38   ar
    27    37    39   ar
    28    10    11   ar
    29    11    12   ar
    30    12    13    2
    31    12    14   ar
    32    14    15   ar
    33    15    40    1
    34    40    41    1
    35    41    42    2
    36    42    43    1
    37    42    44    1
    38     9    16    1
    39    16    17    2
    40    17    18    1
    41    18    19    1
    42    18    20    1
    43    18    21    1
    44    15     1   ar
    45    32    26   ar
    46    14     4   ar
    47    11     6   ar
    48    21     8    1
@<TRIPOS>MOLECULE
*****
 44 48 0 0 0
SMALL
GASTEIGER

@<TRIPOS>ATOM
      1 C           4.6795   -1.0584   30.2876 C.ar    1  UNL1        0.1690
      2 C           3.4866   -0.2310   30.6649 C.ar    1  UNL1        0.1754
      3 C           2.5864    0.3174   29.5976 C.ar    1  UNL1        0.0776
      4 C           2.8791    0.0384   28.1532 C.ar    1  UNL1        0.1512
      5 O           1.9789    0.5868   27.0861 O.2     1  UNL1       -0.4530
      6 C           2.2716    0.3079   25.6415 C.ar    1  UNL1        0.1543
      7 C           1.3714    0.8563   24.5744 C.ar    1  UNL1        0.0747
      8 C           1.6641    0.5773   23.1299 C.ar    1  UNL1        0.1445
      9 C           2.8571   -0.2501   22.7526 C.ar    1  UNL1        0.0680
     10 C           3.7573   -0.7985   23.8198 C.ar    1  UNL1        0.1478
     11 C           3.4645   -0.5195   25.2643 C.ar    1  UNL1        0.1076
     12 C           4.3648   -1.0680   26.3315 C.ar    1  UNL1        0.2042
     13 O           5.5577   -1.8954   25.9542 O.2     1  UNL1       -0.2863
     14 C           4.0720   -0.7890   27.7759 C.ar    1  UNL1        0.0731
     15 C           4.9722   -1.3374   28.8431 C.ar    1  UNL1        0.0252
     16 C           3.1498   -0.5291   21.3082 C.2     1  UNL1        0.0049
     17 C           2.2496    0.0193   20.2410 C.2     1  UNL1        0.0130
     18 C           1.0567    0.8467   20.6183 C.3     1  UNL1        0.1517
     19 C          -0.1842    1.6774   20.4768 C.3     1  UNL1        0.0483
     20 C           0.9185    0.8562   19.1247 C.3     1  UNL1        0.0483
     21 O           0.7640    1.1257   22.0627 O.3     1  UNL1       -0.4783
     22 C           5.0812   -2.6779   32.2790 C.3     1  UNL1        0.2526
     23 O           5.5797   -1.6068   31.3548 O.3     1  UNL1       -0.4687
     24 O           3.1938    0.0480   32.1093 O.3     1  UNL1       -0.4675
     25 C           4.0805    0.9730   32.8892 C.3     1  UNL1        0.2321
     26 C           4.0333    0.9704   34.3884 C.ar    1  UNL1        0.0213
     27 C           4.8088   -0.0548   35.1614 C.ar    1  UNL1        0.0016
     28 C           4.7616   -0.0573   36.6607 C.ar    1  UNL1        0.0294
     29 C           3.9390    0.9653   37.3869 C.ar    1  UNL1        0.1401
     30 F           3.8918    0.9627   38.8863 F       1  UNL1       -0.2042
     31 C           3.1635    1.9905   36.6139 C.ar    1  UNL1        0.0294
     32 C           3.2106    1.9931   35.1147 C.ar    1  UNL1        0.0016
     33 O           4.9502   -1.6259   23.4426 O.3     1  UNL1       -0.4703
     34 C           4.7766   -3.0716   23.0824 C.3     1  UNL1        0.2318
     35 C           5.2573   -3.5767   21.7543 C.2     1  UNL1        0.0218
     36 C           4.2824   -3.7847   20.6335 C.2     1  UNL1        0.0142
     37 C           4.7630   -4.2898   19.3054 C.2     1  UNL1        0.0727
     38 O           4.7615   -5.7619   19.0176 O.co2   1  UNL1       -0.5446
     39 O           5.2453   -3.3226   18.2651 O.co2   1  UNL1       -0.5446
     40 C           6.1651   -2.1648   28.4658 C.3     1  UNL1        0.0550
     41 C           6.1578   -3.6452   28.7074 C.2     1  UNL1       -0.0298
     42 C           7.2265   -4.2725   29.5526 C.2     1  UNL1       -0.0475
     43 C           7.2192   -5.7529   29.7942 C.3     1  UNL1        0.0260
     44 C           8.3026   -3.4193   30.1562 C.3     1  UNL1        0.0260
@<TRIPOS>UNITY_ATOM_ATTR
38 1
charge -1
@<TRIPOS>BOND
     1    22    23    1
     2    23     1    1
     3     1     2   ar
     4     2    24    1
     5    24    25    1
     6    25    26    1
     7    26    27   ar
     8    27    28   ar
     9    28    29   ar
    10    29    30    1
    11    29    31   ar
    12    31    32   ar
    13     2     3   ar
    14     3     4   ar
    15     4     5   ar
    16     5     6   ar
    17     6     7   ar
    18     7     8   ar
    19     8     9   ar
    20     9    10   ar
    21    10    33    1
    22    33    34    1
    23    34    35    1
    24    35    36    2
    25    36    37    1
    26    37    38   ar
    27    37    39   ar
    28    10    11   ar
    29    11    12   ar
    30    12    13    2
    31    12    14   ar
    32    14    15   ar
    33    15    40    1
    34    40    41    1
    35    41    42    2
    36    42    43    1
    37    42    44    1
    38     9    16    1
    39    16    17    2
    40    17    18    1
    41    18    19    1
    42    18    20    1
    43    18    21    1
    44    15     1   ar
    45    32    26   ar
    46    14     4   ar
    47    11     6   ar
    48    21     8    1
