@<TRIPOS>MOLECULE
*****
 29 33 0 0 0
SMALL
GASTEIGER

@<TRIPOS>ATOM
      1 C          -5.2242  -15.9452   25.7224 C.3     1  UNL1        0.0294
      2 C          -6.2302  -15.2115   26.5589 C.3     1  UNL1        0.0666
      3 S          -7.4655  -15.9160   27.0360 S.3     1  UNL1       -0.0756
      4 C          -9.8143  -16.7836   24.0702 C.ar    1  UNL1        0.2029
      5 N         -10.0199  -17.9732   24.9605 N.ar    1  UNL1       -0.1250
      6 N          -9.1651  -17.7930   26.1798 N.ar    1  UNL1       -0.1220
      7 C          -8.4311  -16.4920   26.0432 C.ar    1  UNL1        0.1933
      8 N          -8.8323  -15.8681   24.7394 N.ar    1  UNL1       -0.2860
      9 C          -8.3383  -14.5588   24.1996 C.3     1  UNL1        0.1341
     10 C         -12.9717  -17.2511   23.3908 C.3     1  UNL1        0.0556
     11 C         -11.9259  -16.7653   22.4314 C.ar    1  UNL1        0.1001
     12 N         -12.1478  -16.4090   20.9914 N.ar    1  UNL1       -0.2085
     13 C         -10.8337  -15.9740   20.4136 C.ar    1  UNL1        0.2849
     14 O          -9.7996  -16.0614   21.4967 O.2     1  UNL1       -0.4283
     15 C         -10.4746  -16.5504   22.7437 C.ar    1  UNL1        0.1964
     16 C          -5.2660  -15.8316   24.2273 C.3     1  UNL1        0.0730
     17 N          -4.9685  -17.0298   23.3754 N.3     1  UNL1       -0.2726
     18 C          -3.6072  -17.5882   23.0838 C.3     1  UNL1        0.0721
     19 C          -3.7775  -18.7835   22.1938 C.3     1  UNL1        0.0190
     20 C          -5.2440  -18.9639   21.9353 C.3     1  UNL1        0.0201
     21 C          -5.1015  -20.1744   21.0611 C.3     1  UNL1        0.0061
     22 C          -6.4628  -19.6160   21.3527 C.3     1  UNL1        0.0237
     23 C          -5.9801  -17.8800   22.6656 C.3     1  UNL1        0.0724
     24 C          -7.9523  -19.6701   21.1847 C.ar    1  UNL1       -0.0225
     25 C          -8.5657  -19.4073   19.8413 C.ar    1  UNL1       -0.0043
     26 C         -10.0552  -19.4614   19.6733 C.ar    1  UNL1       -0.0003
     27 C         -10.9315  -19.7783   20.8488 C.ar    1  UNL1       -0.0000
     28 C         -10.3182  -20.0411   22.1922 C.ar    1  UNL1       -0.0003
     29 C          -8.8286  -19.9870   22.3602 C.ar    1  UNL1       -0.0043
@<TRIPOS>BOND
     1    10    11    1
     2    11    12   ar
     3    12    13   ar
     4    13    14   ar
     5    14    15   ar
     6    15     4    1
     7     4     5   ar
     8     5     6   ar
     9     6     7   ar
    10     7     3    1
    11     3     2    1
    12     2     1    1
    13     1    16    1
    14    16    17    1
    15    17    18    1
    16    18    19    1
    17    20    19    1
    18    20    21    1
    19    21    22    1
    20    22    24    1
    21    24    25   ar
    22    25    26   ar
    23    26    27   ar
    24    27    28   ar
    25    28    29   ar
    26    20    23    1
    27     7     8   ar
    28     8     9    1
    29    15    11   ar
    30     8     4   ar
    31    23    17    1
    32    22    20    1
    33    29    24   ar
@<TRIPOS>MOLECULE
*****
 29 33 0 0 0
SMALL
GASTEIGER

@<TRIPOS>ATOM
      1 C          -4.2484  -16.5910   24.0391 C.3     1  UNL1        0.0294
      2 C          -5.0470  -15.3404   23.8188 C.3     1  UNL1        0.0666
      3 S          -6.4712  -15.2684   24.2837 S.3     1  UNL1       -0.0756
      4 C          -9.7124  -16.1439   22.3359 C.ar    1  UNL1        0.2029
      5 N          -8.9129  -15.4515   21.2721 N.ar    1  UNL1       -0.1250
      6 N          -7.6015  -15.0392   21.8723 N.ar    1  UNL1       -0.1220
      7 C          -7.5904  -15.4769   23.3070 C.ar    1  UNL1        0.1933
      8 N          -8.8949  -16.1596   23.5936 N.ar    1  UNL1       -0.2860
      9 C          -9.3094  -16.7537   24.9071 C.3     1  UNL1        0.1341
     10 C         -11.5618  -15.9551   19.6538 C.3     1  UNL1        0.0556
     11 C         -11.9378  -16.6327   20.9381 C.ar    1  UNL1        0.1001
     12 N         -13.2298  -17.3426   21.2152 N.ar    1  UNL1       -0.2085
     13 C         -13.1782  -17.8681   22.6192 C.ar    1  UNL1        0.2849
     14 O         -11.8543  -17.4830   23.2099 O.2     1  UNL1       -0.4283
     15 C         -11.0877  -16.7195   22.1709 C.ar    1  UNL1        0.1964
     16 C          -3.1133  -16.9281   23.1183 C.3     1  UNL1        0.0730
     17 N          -3.2287  -18.0934   22.1809 N.3     1  UNL1       -0.2726
     18 C          -2.0866  -18.8578   21.5797 C.3     1  UNL1        0.0721
     19 C          -2.6586  -19.9357   20.7074 C.3     1  UNL1        0.0190
     20 C          -4.1541  -19.8377   20.7696 C.3     1  UNL1        0.0201
     21 C          -4.4252  -20.9864   19.8438 C.3     1  UNL1        0.0061
     22 C          -5.5672  -20.2220   20.4451 C.3     1  UNL1        0.0237
     23 C          -4.5064  -18.6990   21.6802 C.3     1  UNL1        0.0724
     24 C          -7.0424  -20.0026   20.6049 C.ar    1  UNL1       -0.0225
     25 C          -7.9064  -19.8028   19.3950 C.ar    1  UNL1       -0.0043
     26 C          -9.3816  -19.5834   19.5549 C.ar    1  UNL1       -0.0003
     27 C          -9.9929  -19.5639   20.9245 C.ar    1  UNL1       -0.0000
     28 C          -9.1290  -19.7638   22.1343 C.ar    1  UNL1       -0.0003
     29 C          -7.6537  -19.9831   21.9745 C.ar    1  UNL1       -0.0043
@<TRIPOS>BOND
     1    10    11    1
     2    11    12   ar
     3    12    13   ar
     4    13    14   ar
     5    14    15   ar
     6    15     4    1
     7     4     5   ar
     8     5     6   ar
     9     6     7   ar
    10     7     3    1
    11     3     2    1
    12     2     1    1
    13     1    16    1
    14    16    17    1
    15    17    18    1
    16    18    19    1
    17    20    19    1
    18    20    21    1
    19    21    22    1
    20    22    24    1
    21    24    25   ar
    22    25    26   ar
    23    26    27   ar
    24    27    28   ar
    25    28    29   ar
    26    20    23    1
    27     7     8   ar
    28     8     9    1
    29    15    11   ar
    30     8     4   ar
    31    23    17    1
    32    22    20    1
    33    29    24   ar
@<TRIPOS>MOLECULE
*****
 29 33 0 0 0
SMALL
GASTEIGER

@<TRIPOS>ATOM
      1 C          -7.6615  -19.4251   19.7963 C.3     1  UNL1        0.0294
      2 C          -7.2934  -20.4677   20.8100 C.3     1  UNL1        0.0666
      3 S          -6.5412  -20.0777   22.0478 S.3     1  UNL1       -0.0756
      4 C          -3.1646  -18.3450   21.2340 C.ar    1  UNL1        0.2029
      5 N          -3.6923  -17.4557   22.3207 N.ar    1  UNL1       -0.1250
      6 N          -5.0214  -17.9966   22.7578 N.ar    1  UNL1       -0.1220
      7 C          -5.3151  -19.2201   21.9412 C.ar    1  UNL1        0.1933
      8 N          -4.1676  -19.4354   20.9995 N.ar    1  UNL1       -0.2860
      9 C          -4.0446  -20.5462   19.9990 C.3     1  UNL1        0.1341
     10 C          -2.7975  -17.2456   18.1834 C.3     1  UNL1        0.0556
     11 C          -1.6938  -17.6685   19.1070 C.ar    1  UNL1        0.1001
     12 N          -0.2276  -17.6603   18.7905 N.ar    1  UNL1       -0.2085
     13 C           0.5099  -18.1606   19.9971 C.ar    1  UNL1        0.2849
     14 O          -0.5006  -18.4780   21.0594 O.2     1  UNL1       -0.4283
     15 C          -1.8625  -18.1738   20.5092 C.ar    1  UNL1        0.1964
     16 C          -9.0930  -19.2537   19.3824 C.3     1  UNL1        0.0730
     17 N         -10.0215  -18.4243   20.2190 N.3     1  UNL1       -0.2726
     18 C         -11.4908  -18.2365   19.9828 C.3     1  UNL1        0.0721
     19 C         -12.0211  -17.3332   21.0565 C.3     1  UNL1        0.0190
     20 C         -10.8795  -16.9627   21.9562 C.3     1  UNL1        0.0201
     21 C         -11.6836  -16.0991   22.8823 C.3     1  UNL1        0.0061
     22 C         -10.2142  -16.2869   23.1184 C.3     1  UNL1        0.0237
     23 C          -9.6437  -17.6371   21.4386 C.3     1  UNL1        0.0724
     24 C          -8.9818  -16.0052   23.9258 C.ar    1  UNL1       -0.0225
     25 C          -7.7400  -15.5051   23.2491 C.ar    1  UNL1       -0.0043
     26 C          -6.5076  -15.2234   24.0564 C.ar    1  UNL1       -0.0003
     27 C          -6.5170  -15.4417   25.5404 C.ar    1  UNL1       -0.0000
     28 C          -7.7589  -15.9418   26.2171 C.ar    1  UNL1       -0.0003
     29 C          -8.9912  -16.2235   25.4098 C.ar    1  UNL1       -0.0043
@<TRIPOS>BOND
     1    10    11    1
     2    11    12   ar
     3    12    13   ar
     4    13    14   ar
     5    14    15   ar
     6    15     4    1
     7     4     5   ar
     8     5     6   ar
     9     6     7   ar
    10     7     3    1
    11     3     2    1
    12     2     1    1
    13     1    16    1
    14    16    17    1
    15    17    18    1
    16    18    19    1
    17    20    19    1
    18    20    21    1
    19    21    22    1
    20    22    24    1
    21    24    25   ar
    22    25    26   ar
    23    26    27   ar
    24    27    28   ar
    25    28    29   ar
    26    20    23    1
    27     7     8   ar
    28     8     9    1
    29    15    11   ar
    30     8     4   ar
    31    23    17    1
    32    22    20    1
    33    29    24   ar
@<TRIPOS>MOLECULE
*****
 29 33 0 0 0
SMALL
GASTEIGER

@<TRIPOS>ATOM
      1 C          -4.1708  -20.4082   20.8511 C.3     1  UNL1        0.0294
      2 C          -5.6519  -20.2200   20.7063 C.3     1  UNL1        0.0666
      3 S          -6.5274  -20.1951   21.9241 S.3     1  UNL1       -0.0756
      4 C          -9.9836  -18.5204   22.4859 C.ar    1  UNL1        0.2029
      5 N          -9.4103  -17.6478   21.4089 N.ar    1  UNL1       -0.1250
      6 N          -8.0458  -18.1689   21.0674 N.ar    1  UNL1       -0.1220
      7 C          -7.7758  -19.3637   21.9333 C.ar    1  UNL1        0.1933
      8 N          -8.9734  -19.5809   22.8100 N.ar    1  UNL1       -0.2860
      9 C          -9.1328  -20.6678   23.8314 C.3     1  UNL1        0.1341
     10 C         -12.6245  -17.2011   21.0950 C.3     1  UNL1        0.0556
     11 C         -12.5445  -17.7542   22.4870 C.ar    1  UNL1        0.1001
     12 N         -13.6642  -17.7981   23.4841 N.ar    1  UNL1       -0.2085
     13 C         -13.1424  -18.4316   24.7397 C.ar    1  UNL1        0.2849
     14 O         -11.7001  -18.7793   24.5185 O.2     1  UNL1       -0.4283
     15 C         -11.3306  -18.3607   23.1263 C.ar    1  UNL1        0.1964
     16 C          -3.4488  -19.8056   22.0197 C.3     1  UNL1        0.0730
     17 N          -3.4036  -18.3156   22.1862 N.3     1  UNL1       -0.2726
     18 C          -2.4405  -17.3822   21.5144 C.3     1  UNL1        0.0721
     19 C          -2.7553  -15.9871   21.9667 C.3     1  UNL1        0.0190
     20 C          -3.9129  -16.0582   22.9179 C.3     1  UNL1        0.0201
     21 C          -3.9889  -14.5838   23.1829 C.3     1  UNL1        0.0061
     22 C          -4.9521  -15.5171   23.8546 C.3     1  UNL1        0.0237
     23 C          -4.3136  -17.4973   23.0536 C.3     1  UNL1        0.0724
     24 C          -6.1081  -15.7436   24.7832 C.ar    1  UNL1       -0.0225
     25 C          -7.4581  -16.0911   24.2294 C.ar    1  UNL1       -0.0043
     26 C          -8.6141  -16.3176   25.1580 C.ar    1  UNL1       -0.0003
     27 C          -8.4201  -16.1966   26.6404 C.ar    1  UNL1       -0.0000
     28 C          -7.0700  -15.8492   27.1943 C.ar    1  UNL1       -0.0003
     29 C          -5.9140  -15.6227   26.2657 C.ar    1  UNL1       -0.0043
@<TRIPOS>BOND
     1    10    11    1
     2    11    12   ar
     3    12    13   ar
     4    13    14   ar
     5    14    15   ar
     6    15     4    1
     7     4     5   ar
     8     5     6   ar
     9     6     7   ar
    10     7     3    1
    11     3     2    1
    12     2     1    1
    13     1    16    1
    14    16    17    1
    15    17    18    1
    16    18    19    1
    17    20    19    1
    18    20    21    1
    19    21    22    1
    20    22    24    1
    21    24    25   ar
    22    25    26   ar
    23    26    27   ar
    24    27    28   ar
    25    28    29   ar
    26    20    23    1
    27     7     8   ar
    28     8     9    1
    29    15    11   ar
    30     8     4   ar
    31    23    17    1
    32    22    20    1
    33    29    24   ar
@<TRIPOS>MOLECULE
*****
 29 33 0 0 0
SMALL
GASTEIGER

@<TRIPOS>ATOM
      1 C          -3.5337  -20.4943   20.9435 C.3     1  UNL1        0.0294
      2 C          -4.7363  -20.2924   20.0698 C.3     1  UNL1        0.0666
      3 S          -6.0730  -20.8195   20.5002 S.3     1  UNL1       -0.0756
      4 C          -9.0754  -18.4640   21.2093 C.ar    1  UNL1        0.2029
      5 N          -8.3459  -18.4061   22.5188 N.ar    1  UNL1       -0.1250
      6 N          -7.1324  -19.2815   22.4125 N.ar    1  UNL1       -0.1220
      7 C          -7.1119  -19.8803   21.0374 C.ar    1  UNL1        0.1933
      8 N          -8.3127  -19.3752   20.2938 N.ar    1  UNL1       -0.2860
      9 C          -8.6854  -19.7205   18.8824 C.3     1  UNL1        0.1341
     10 C         -11.8905  -18.6665   22.8476 C.3     1  UNL1        0.0556
     11 C         -11.6386  -17.8313   21.6273 C.ar    1  UNL1        0.1001
     12 N         -12.6364  -16.9425   20.9458 N.ar    1  UNL1       -0.2085
     13 C         -11.9591  -16.3001   19.7717 C.ar    1  UNL1        0.2849
     14 O         -10.5427  -16.7919   19.7275 O.2     1  UNL1       -0.4283
     15 C         -10.3446  -17.7382   20.8743 C.ar    1  UNL1        0.1964
     16 C          -3.4485  -19.8052   22.2731 C.3     1  UNL1        0.0730
     17 N          -3.4144  -18.3071   22.3407 N.3     1  UNL1       -0.2726
     18 C          -2.4835  -17.4112   21.5787 C.3     1  UNL1        0.0721
     19 C          -2.7990  -15.9923   21.9492 C.3     1  UNL1        0.0190
     20 C          -3.9249  -16.0114   22.9402 C.3     1  UNL1        0.0201
     21 C          -4.0087  -14.5235   23.1110 C.3     1  UNL1        0.0061
     22 C          -4.9396  -15.4195   23.8730 C.3     1  UNL1        0.0237
     23 C          -4.3052  -17.4420   23.1821 C.3     1  UNL1        0.0724
     24 C          -6.0628  -15.5951   24.8514 C.ar    1  UNL1       -0.0225
     25 C          -7.4798  -15.6584   24.3632 C.ar    1  UNL1       -0.0043
     26 C          -8.6030  -15.8340   25.3417 C.ar    1  UNL1       -0.0003
     27 C          -8.3094  -15.9463   26.8084 C.ar    1  UNL1       -0.0000
     28 C          -6.8924  -15.8829   27.2966 C.ar    1  UNL1       -0.0003
     29 C          -5.7692  -15.7073   26.3181 C.ar    1  UNL1       -0.0043
@<TRIPOS>BOND
     1    10    11    1
     2    11    12   ar
     3    12    13   ar
     4    13    14   ar
     5    14    15   ar
     6    15     4    1
     7     4     5   ar
     8     5     6   ar
     9     6     7   ar
    10     7     3    1
    11     3     2    1
    12     2     1    1
    13     1    16    1
    14    16    17    1
    15    17    18    1
    16    18    19    1
    17    20    19    1
    18    20    21    1
    19    21    22    1
    20    22    24    1
    21    24    25   ar
    22    25    26   ar
    23    26    27   ar
    24    27    28   ar
    25    28    29   ar
    26    20    23    1
    27     7     8   ar
    28     8     9    1
    29    15    11   ar
    30     8     4   ar
    31    23    17    1
    32    22    20    1
    33    29    24   ar
@<TRIPOS>MOLECULE
*****
 29 33 0 0 0
SMALL
GASTEIGER

@<TRIPOS>ATOM
      1 C          -3.7022  -16.2919   23.0676 C.3     1  UNL1        0.0294
      2 C          -3.9225  -17.6833   23.5830 C.3     1  UNL1        0.0666
      3 S          -4.2449  -18.7944   22.6283 S.3     1  UNL1       -0.0756
      4 C          -7.3847  -19.4410   20.4398 C.ar    1  UNL1        0.2029
      5 N          -7.8576  -18.3041   21.2965 N.ar    1  UNL1       -0.1250
      6 N          -6.7390  -17.9235   22.2206 N.ar    1  UNL1       -0.1220
      7 C          -5.5747  -18.8252   21.9350 C.ar    1  UNL1        0.1933
      8 N          -5.9737  -19.7630   20.8344 N.ar    1  UNL1       -0.2860
      9 C          -5.1130  -20.8347   20.2339 C.3     1  UNL1        0.1341
     10 C         -10.4301  -18.6958   19.5342 C.3     1  UNL1        0.0556
     11 C          -9.5824  -19.7915   18.9591 C.ar    1  UNL1        0.1001
     12 N          -9.9856  -20.7372   17.8668 N.ar    1  UNL1       -0.2085
     13 C          -8.8351  -21.6642   17.6080 C.ar    1  UNL1        0.2849
     14 O          -7.7207  -21.2914   18.5403 O.2     1  UNL1       -0.4283
     15 C          -8.1826  -20.1341   19.3754 C.ar    1  UNL1        0.1964
     16 C          -4.6602  -15.1966   23.4319 C.3     1  UNL1        0.0730
     17 N          -5.5292  -15.3336   24.6469 N.3     1  UNL1       -0.2726
     18 C          -5.1936  -14.8571   26.0290 C.3     1  UNL1        0.0721
     19 C          -6.3433  -15.2002   26.9294 C.3     1  UNL1        0.0190
     20 C          -7.3893  -15.8886   26.1036 C.3     1  UNL1        0.0201
     21 C          -8.3628  -16.0968   27.2256 C.3     1  UNL1        0.0061
     22 C          -8.6984  -16.5733   25.8435 C.3     1  UNL1        0.0237
     23 C          -6.8862  -15.9711   24.6930 C.3     1  UNL1        0.0724
     24 C          -9.6478  -17.2437   24.8953 C.ar    1  UNL1       -0.0225
     25 C         -10.2342  -16.4720   23.7504 C.ar    1  UNL1       -0.0043
     26 C         -11.1837  -17.1424   22.8022 C.ar    1  UNL1       -0.0003
     27 C         -11.5467  -18.5845   22.9989 C.ar    1  UNL1       -0.0000
     28 C         -10.9603  -19.3561   24.1438 C.ar    1  UNL1       -0.0003
     29 C         -10.0109  -18.6857   25.0920 C.ar    1  UNL1       -0.0043
@<TRIPOS>BOND
     1    10    11    1
     2    11    12   ar
     3    12    13   ar
     4    13    14   ar
     5    14    15   ar
     6    15     4    1
     7     4     5   ar
     8     5     6   ar
     9     6     7   ar
    10     7     3    1
    11     3     2    1
    12     2     1    1
    13     1    16    1
    14    16    17    1
    15    17    18    1
    16    18    19    1
    17    20    19    1
    18    20    21    1
    19    21    22    1
    20    22    24    1
    21    24    25   ar
    22    25    26   ar
    23    26    27   ar
    24    27    28   ar
    25    28    29   ar
    26    20    23    1
    27     7     8   ar
    28     8     9    1
    29    15    11   ar
    30     8     4   ar
    31    23    17    1
    32    22    20    1
    33    29    24   ar
@<TRIPOS>MOLECULE
*****
 29 33 0 0 0
SMALL
GASTEIGER

@<TRIPOS>ATOM
      1 C          -6.7769  -14.9343   25.9123 C.3     1  UNL1        0.0294
      2 C          -5.5045  -15.7277   25.9539 C.3     1  UNL1        0.0666
      3 S          -5.2349  -16.7681   24.9077 S.3     1  UNL1       -0.0756
      4 C          -2.8528  -16.6656   21.8448 C.ar    1  UNL1        0.2029
      5 N          -3.1836  -15.2112   22.0037 N.ar    1  UNL1       -0.1250
      6 N          -4.1161  -15.0725   23.1704 N.ar    1  UNL1       -0.1220
      7 C          -4.3618  -16.4413   23.7326 C.ar    1  UNL1        0.1933
      8 N          -3.5810  -17.4259   22.9134 N.ar    1  UNL1       -0.2860
      9 C          -3.5363  -18.9102   23.1255 C.3     1  UNL1        0.1341
     10 C          -3.7679  -18.6525   19.4232 C.3     1  UNL1        0.0556
     11 C          -2.3727  -18.1694   19.6877 C.ar    1  UNL1        0.1001
     12 N          -1.1531  -18.5146   18.8856 N.ar    1  UNL1       -0.2085
     13 C           0.0212  -17.8147   19.5029 C.ar    1  UNL1        0.2849
     14 O          -0.4726  -17.0369   20.6866 O.2     1  UNL1       -0.4283
     15 C          -1.9521  -17.2561   20.8008 C.ar    1  UNL1        0.1964
     16 C          -7.8326  -15.2624   24.8985 C.3     1  UNL1        0.0730
     17 N          -8.5831  -16.5579   24.9897 N.3     1  UNL1       -0.2726
     18 C          -9.2066  -17.1304   26.2280 C.3     1  UNL1        0.0721
     19 C          -9.8507  -18.4347   25.8621 C.3     1  UNL1        0.0190
     20 C          -9.6254  -18.6683   24.3976 C.3     1  UNL1        0.0201
     21 C         -10.3482  -19.9812   24.3352 C.3     1  UNL1        0.0061
     22 C          -9.7247  -19.4086   23.0968 C.3     1  UNL1        0.0237
     23 C          -8.8419  -17.5084   23.8584 C.3     1  UNL1        0.0724
     24 C          -9.4222  -19.5055   21.6309 C.ar    1  UNL1       -0.0225
     25 C          -7.9990  -19.5028   21.1570 C.ar    1  UNL1       -0.0043
     26 C          -7.6964  -19.5997   19.6911 C.ar    1  UNL1       -0.0003
     27 C          -8.8170  -19.6992   18.6990 C.ar    1  UNL1       -0.0000
     28 C         -10.2402  -19.7020   19.1728 C.ar    1  UNL1       -0.0003
     29 C         -10.5428  -19.6051   20.6388 C.ar    1  UNL1       -0.0043
@<TRIPOS>BOND
     1    10    11    1
     2    11    12   ar
     3    12    13   ar
     4    13    14   ar
     5    14    15   ar
     6    15     4    1
     7     4     5   ar
     8     5     6   ar
     9     6     7   ar
    10     7     3    1
    11     3     2    1
    12     2     1    1
    13     1    16    1
    14    16    17    1
    15    17    18    1
    16    18    19    1
    17    20    19    1
    18    20    21    1
    19    21    22    1
    20    22    24    1
    21    24    25   ar
    22    25    26   ar
    23    26    27   ar
    24    27    28   ar
    25    28    29   ar
    26    20    23    1
    27     7     8   ar
    28     8     9    1
    29    15    11   ar
    30     8     4   ar
    31    23    17    1
    32    22    20    1
    33    29    24   ar
@<TRIPOS>MOLECULE
*****
 29 33 0 0 0
SMALL
GASTEIGER

@<TRIPOS>ATOM
      1 C          -7.0789  -15.4072   26.8741 C.3     1  UNL1        0.0294
      2 C          -5.7410  -15.2841   26.2069 C.3     1  UNL1        0.0666
      3 S          -5.6444  -15.3059   24.7102 S.3     1  UNL1       -0.0756
      4 C          -4.6985  -18.4082   22.5780 C.ar    1  UNL1        0.2029
      5 N          -3.4168  -18.1632   23.3179 N.ar    1  UNL1       -0.1250
      6 N          -3.6151  -16.9712   24.2066 N.ar    1  UNL1       -0.1220
      7 C          -5.0194  -16.4796   24.0161 C.ar    1  UNL1        0.1933
      8 N          -5.6890  -17.3676   23.0096 N.ar    1  UNL1       -0.2860
      9 C          -7.1011  -17.2379   22.5205 C.3     1  UNL1        0.1341
     10 C          -2.8039  -19.1414   20.0240 C.3     1  UNL1        0.0556
     11 C          -4.0753  -19.8387   20.4077 C.ar    1  UNL1        0.1001
     12 N          -4.6992  -20.9956   19.6848 N.ar    1  UNL1       -0.2085
     13 C          -5.9555  -21.3735   20.4119 C.ar    1  UNL1        0.2849
     14 O          -6.1082  -20.4503   21.5843 O.2     1  UNL1       -0.4283
     15 C          -4.9462  -19.5018   21.5816 C.ar    1  UNL1        0.1964
     16 C          -8.3335  -15.3588   26.0534 C.3     1  UNL1        0.0730
     17 N          -9.0333  -16.6312   25.6775 N.3     1  UNL1       -0.2726
     18 C          -9.1043  -17.8774   26.5094 C.3     1  UNL1        0.0721
     19 C          -9.8998  -18.8971   25.7496 C.3     1  UNL1        0.0190
     20 C         -10.3205  -18.2813   24.4482 C.3     1  UNL1        0.0201
     21 C         -11.0604  -19.4823   23.9383 C.3     1  UNL1        0.0061
     22 C         -10.9894  -18.2361   23.1063 C.3     1  UNL1        0.0237
     23 C          -9.7849  -16.8808   24.4036 C.3     1  UNL1        0.0724
     24 C         -11.3346  -17.4906   21.8513 C.ar    1  UNL1       -0.0225
     25 C         -12.4886  -16.5324   21.8415 C.ar    1  UNL1       -0.0043
     26 C         -12.8338  -15.7869   20.5865 C.ar    1  UNL1       -0.0003
     27 C         -12.0249  -15.9996   19.3414 C.ar    1  UNL1       -0.0000
     28 C         -10.8709  -16.9578   19.3512 C.ar    1  UNL1       -0.0003
     29 C         -10.5257  -17.7033   20.6062 C.ar    1  UNL1       -0.0043
@<TRIPOS>BOND
     1    10    11    1
     2    11    12   ar
     3    12    13   ar
     4    13    14   ar
     5    14    15   ar
     6    15     4    1
     7     4     5   ar
     8     5     6   ar
     9     6     7   ar
    10     7     3    1
    11     3     2    1
    12     2     1    1
    13     1    16    1
    14    16    17    1
    15    17    18    1
    16    18    19    1
    17    20    19    1
    18    20    21    1
    19    21    22    1
    20    22    24    1
    21    24    25   ar
    22    25    26   ar
    23    26    27   ar
    24    27    28   ar
    25    28    29   ar
    26    20    23    1
    27     7     8   ar
    28     8     9    1
    29    15    11   ar
    30     8     4   ar
    31    23    17    1
    32    22    20    1
    33    29    24   ar
@<TRIPOS>MOLECULE
*****
 29 33 0 0 0
SMALL
GASTEIGER

@<TRIPOS>ATOM
      1 C          -8.4926  -16.7354   26.0400 C.3     1  UNL1        0.0294
      2 C          -8.6381  -15.5867   25.0863 C.3     1  UNL1        0.0666
      3 S          -7.5457  -15.2846   24.1038 S.3     1  UNL1       -0.0756
      4 C          -5.8080  -17.9670   21.9012 C.ar    1  UNL1        0.2029
      5 N          -7.1521  -17.8763   21.2414 N.ar    1  UNL1       -0.1250
      6 N          -7.9666  -16.8605   21.9861 N.ar    1  UNL1       -0.1220
      7 C          -7.1260  -16.3233   23.1063 C.ar    1  UNL1        0.1933
      8 N          -5.7919  -17.0071   23.0539 N.ar    1  UNL1       -0.2860
      9 C          -4.6434  -16.7723   23.9897 C.3     1  UNL1        0.1341
     10 C          -6.0972  -20.8339   20.3693 C.3     1  UNL1        0.0556
     11 C          -4.8114  -20.1783   20.7780 C.ar    1  UNL1        0.1001
     12 N          -3.4328  -20.7254   20.5542 N.ar    1  UNL1       -0.2085
     13 C          -2.4478  -19.7457   21.1201 C.ar    1  UNL1        0.2849
     14 O          -3.2177  -18.5932   21.6935 O.2     1  UNL1       -0.4283
     15 C          -4.6785  -18.8605   21.4821 C.ar    1  UNL1        0.1964
     16 C          -9.6231  -17.7034   26.2263 C.3     1  UNL1        0.0730
     17 N          -9.9283  -18.7143   25.1609 N.3     1  UNL1       -0.2726
     18 C          -9.7737  -20.2010   25.2859 C.3     1  UNL1        0.0721
     19 C         -10.1915  -20.8213   23.9856 C.3     1  UNL1        0.0190
     20 C         -10.6043  -19.7180   23.0571 C.3     1  UNL1        0.0201
     21 C         -10.9509  -20.6079   21.9004 C.3     1  UNL1        0.0061
     22 C         -11.1055  -19.1211   21.7755 C.3     1  UNL1        0.0237
     23 C         -10.4416  -18.4157   23.7834 C.3     1  UNL1        0.0724
     24 C         -11.4842  -17.9182   20.9634 C.ar    1  UNL1       -0.0225
     25 C         -10.6754  -17.5427   19.7572 C.ar    1  UNL1       -0.0043
     26 C         -11.0540  -16.3397   18.9451 C.ar    1  UNL1       -0.0003
     27 C         -12.2414  -15.5122   19.3393 C.ar    1  UNL1       -0.0000
     28 C         -13.0502  -15.8878   20.5455 C.ar    1  UNL1       -0.0003
     29 C         -12.6716  -17.0907   21.3575 C.ar    1  UNL1       -0.0043
@<TRIPOS>BOND
     1    10    11    1
     2    11    12   ar
     3    12    13   ar
     4    13    14   ar
     5    14    15   ar
     6    15     4    1
     7     4     5   ar
     8     5     6   ar
     9     6     7   ar
    10     7     3    1
    11     3     2    1
    12     2     1    1
    13     1    16    1
    14    16    17    1
    15    17    18    1
    16    18    19    1
    17    20    19    1
    18    20    21    1
    19    21    22    1
    20    22    24    1
    21    24    25   ar
    22    25    26   ar
    23    26    27   ar
    24    27    28   ar
    25    28    29   ar
    26    20    23    1
    27     7     8   ar
    28     8     9    1
    29    15    11   ar
    30     8     4   ar
    31    23    17    1
    32    22    20    1
    33    29    24   ar
