@<TRIPOS>MOLECULE
*****
 29 32 0 0 0
SMALL
GASTEIGER

@<TRIPOS>ATOM
      1 N         -11.7641   -7.5228   17.7475 N.3     1  UNL1       -0.2724
      2 C         -12.2164   -7.6322   16.3215 C.3     1  UNL1        0.0721
      3 C         -13.6700   -7.4847   15.9823 C.3     1  UNL1        0.0177
      4 C         -14.6715   -7.2278   17.0691 C.3     1  UNL1        0.0071
      5 C         -14.2193   -7.1185   18.4951 C.3     1  UNL1        0.0177
      6 C         -12.7655   -7.2660   18.8343 C.3     1  UNL1        0.0721
      7 C         -10.3105   -7.6703   18.0867 C.3     1  UNL1        0.0768
      8 C          -9.5416   -6.4972   18.6183 C.3     1  UNL1        0.0437
      9 O         -12.8152   -2.4351   20.0443 O.2     1  UNL1       -0.2911
     10 C         -12.0614   -1.9582   18.8383 C.2     1  UNL1        0.1797
     11 C         -12.3145   -0.5850   18.2903 C.3     1  UNL1        0.1165
     12 C         -11.5607   -0.1082   17.0843 C.3     1  UNL1        0.2135
     13 O         -10.5539   -1.0044   16.4263 O.3     1  UNL1       -0.4749
     14 C         -10.3009   -2.3776   16.9743 C.ar    1  UNL1        0.1412
     15 C          -9.2940   -3.2739   16.3163 C.ar    1  UNL1        0.0367
     16 C          -9.0410   -4.6471   16.8643 C.ar    1  UNL1       -0.0011
     17 C          -9.7947   -5.1240   18.0703 C.ar    1  UNL1       -0.0205
     18 C         -10.8015   -4.2277   18.7283 C.ar    1  UNL1        0.0017
     19 C         -11.0546   -2.8545   18.1803 C.ar    1  UNL1        0.0684
     20 C         -16.1252   -7.0803   16.7299 C.3     1  UNL1        0.0265
     21 C         -17.1715   -7.5950   17.6735 C.ar    1  UNL1       -0.0192
     22 C         -17.7401   -6.6922   18.7277 C.ar    1  UNL1       -0.0036
     23 C         -18.7864   -7.2069   19.6713 C.ar    1  UNL1        0.0094
     24 C         -19.2641   -8.6245   19.5606 C.ar    1  UNL1        0.0682
     25 BR        -20.3104   -9.1392   20.5041 Br      1  UNL1       -0.0459
     26 C         -18.6955   -9.5273   18.5063 C.ar    1  UNL1        0.1395
     27 O         -19.1732  -10.9449   18.3956 O.3     1  UNL1       -0.5050
     28 C         -17.6492   -9.0126   17.5628 C.ar    1  UNL1        0.0329
     29 H         -19.8268  -11.2665   18.9850 H       1  UNL1        0.2922
@<TRIPOS>BOND
     1     9    10    2
     2    10    11    1
     3    11    12    1
     4    12    13    1
     5    13    14    1
     6    14    15   ar
     7    15    16   ar
     8    16    17   ar
     9    17     8    1
    10     8     7    1
    11     7     1    1
    12     1     2    1
    13     2     3    1
    14     3     4    1
    15     4    20    1
    16    20    21    1
    17    21    22   ar
    18    22    23   ar
    19    23    24   ar
    20    24    25    1
    21    24    26   ar
    22    26    27    1
    23    26    28   ar
    24     4     5    1
    25     5     6    1
    26    17    18   ar
    27    18    19   ar
    28    19    10    1
    29    19    14   ar
    30     6     1    1
    31    28    21   ar
    32    27    29    1
@<TRIPOS>MOLECULE
*****
 29 32 0 0 0
SMALL
GASTEIGER

@<TRIPOS>ATOM
      1 N         -16.7252   -2.2362   18.4875 N.3     1  UNL1       -0.2724
      2 C         -15.8559   -2.4606   17.2858 C.3     1  UNL1        0.0721
      3 C         -14.3662   -2.5396   17.4420 C.3     1  UNL1        0.0177
      4 C         -13.7457   -2.3941   18.8000 C.3     1  UNL1        0.0071
      5 C         -14.6150   -2.1696   20.0016 C.3     1  UNL1        0.0177
      6 C         -16.1048   -2.0907   19.8453 C.3     1  UNL1        0.0721
      7 C         -18.2149   -2.1572   18.3312 C.3     1  UNL1        0.0768
      8 C         -19.1099   -2.8592   19.3092 C.3     1  UNL1        0.0437
      9 O         -15.2655   -6.6607   19.4483 O.2     1  UNL1       -0.2911
     10 C         -16.5748   -7.3920   19.4758 C.2     1  UNL1        0.1797
     11 C         -16.5958   -8.8908   19.5312 C.3     1  UNL1        0.1165
     12 C         -17.9052   -9.6220   19.5588 C.3     1  UNL1        0.2135
     13 O         -19.1936   -8.8545   19.5309 O.3     1  UNL1       -0.4749
     14 C         -19.1726   -7.3557   19.4754 C.ar    1  UNL1        0.1412
     15 C         -20.4611   -6.5881   19.4475 C.ar    1  UNL1        0.0367
     16 C         -20.4401   -5.0893   19.3921 C.ar    1  UNL1       -0.0011
     17 C         -19.1308   -4.3580   19.3646 C.ar    1  UNL1       -0.0205
     18 C         -17.8423   -5.1256   19.3925 C.ar    1  UNL1        0.0017
     19 C         -17.8633   -6.6245   19.4479 C.ar    1  UNL1        0.0684
     20 C         -12.2560   -2.4730   18.9562 C.3     1  UNL1        0.0265
     21 C         -11.5640   -3.8021   18.8873 C.ar    1  UNL1       -0.0192
     22 C         -10.0914   -3.8675   18.6098 C.ar    1  UNL1       -0.0036
     23 C          -9.3994   -5.1966   18.5409 C.ar    1  UNL1        0.0094
     24 C         -10.1801   -6.4603   18.7496 C.ar    1  UNL1        0.0682
     25 BR         -9.4881   -7.7893   18.6808 Br      1  UNL1       -0.0459
     26 C         -11.6527   -6.3949   19.0272 C.ar    1  UNL1        0.1395
     27 O         -12.4334   -7.6586   19.2359 O.3     1  UNL1       -0.5050
     28 C         -12.3447   -5.0658   19.0960 C.ar    1  UNL1        0.0329
     29 H         -12.0012   -8.4889   19.1929 H       1  UNL1        0.2922
@<TRIPOS>BOND
     1     9    10    2
     2    10    11    1
     3    11    12    1
     4    12    13    1
     5    13    14    1
     6    14    15   ar
     7    15    16   ar
     8    16    17   ar
     9    17     8    1
    10     8     7    1
    11     7     1    1
    12     1     2    1
    13     2     3    1
    14     3     4    1
    15     4    20    1
    16    20    21    1
    17    21    22   ar
    18    22    23   ar
    19    23    24   ar
    20    24    25    1
    21    24    26   ar
    22    26    27    1
    23    26    28   ar
    24     4     5    1
    25     5     6    1
    26    17    18   ar
    27    18    19   ar
    28    19    10    1
    29    19    14   ar
    30     6     1    1
    31    28    21   ar
    32    27    29    1
@<TRIPOS>MOLECULE
*****
 29 32 0 0 0
SMALL
GASTEIGER

@<TRIPOS>ATOM
      1 N         -11.1919   -5.7820   17.5618 N.3     1  UNL1       -0.2724
      2 C         -11.5672   -6.5066   18.8204 C.3     1  UNL1        0.0721
      3 C         -12.6703   -7.5228   18.8002 C.3     1  UNL1        0.0177
      4 C         -13.3982   -7.8143   17.5214 C.3     1  UNL1        0.0071
      5 C         -13.0229   -7.0896   16.2628 C.3     1  UNL1        0.0177
      6 C         -11.9197   -6.0734   16.2830 C.3     1  UNL1        0.0721
      7 C         -10.0887   -4.7658   17.5820 C.3     1  UNL1        0.0768
      8 C         -10.1122   -3.6531   18.5876 C.3     1  UNL1        0.0437
      9 O         -15.2370   -3.8565   20.3041 O.2     1  UNL1       -0.2911
     10 C         -15.0413   -2.4803   19.7404 C.2     1  UNL1        0.1797
     11 C         -16.1758   -1.4989   19.7467 C.3     1  UNL1        0.1165
     12 C         -15.9801   -0.1227   19.1830 C.3     1  UNL1        0.2135
     13 O         -14.6501    0.2722   18.6129 O.3     1  UNL1       -0.4749
     14 C         -13.5157   -0.7091   18.6066 C.ar    1  UNL1        0.1412
     15 C         -12.1855   -0.3143   18.0366 C.ar    1  UNL1        0.0367
     16 C         -11.0511   -1.2956   18.0302 C.ar    1  UNL1       -0.0011
     17 C         -11.2467   -2.6718   18.5940 C.ar    1  UNL1       -0.0205
     18 C         -12.5768   -3.0667   19.1640 C.ar    1  UNL1        0.0017
     19 C         -13.7113   -2.0854   19.1703 C.ar    1  UNL1        0.0684
     20 C         -14.5014   -8.8304   17.5012 C.3     1  UNL1        0.0265
     21 C         -15.7795   -8.5647   18.2400 C.ar    1  UNL1       -0.0192
     22 C         -16.6695   -9.7061   18.6336 C.ar    1  UNL1       -0.0036
     23 C         -17.9476   -9.4404   19.3725 C.ar    1  UNL1        0.0094
     24 C         -18.3357   -8.0332   19.7177 C.ar    1  UNL1        0.0682
     25 BR        -19.6138   -7.7675   20.4565 Br      1  UNL1       -0.0459
     26 C         -17.4457   -6.8918   19.3241 C.ar    1  UNL1        0.1395
     27 O         -17.8338   -5.4845   19.6693 O.3     1  UNL1       -0.5050
     28 C         -16.1676   -7.1575   18.5852 C.ar    1  UNL1        0.0329
     29 H         -18.6321   -5.3185   20.1308 H       1  UNL1        0.2922
@<TRIPOS>BOND
     1     9    10    2
     2    10    11    1
     3    11    12    1
     4    12    13    1
     5    13    14    1
     6    14    15   ar
     7    15    16   ar
     8    16    17   ar
     9    17     8    1
    10     8     7    1
    11     7     1    1
    12     1     2    1
    13     2     3    1
    14     3     4    1
    15     4    20    1
    16    20    21    1
    17    21    22   ar
    18    22    23   ar
    19    23    24   ar
    20    24    25    1
    21    24    26   ar
    22    26    27    1
    23    26    28   ar
    24     4     5    1
    25     5     6    1
    26    17    18   ar
    27    18    19   ar
    28    19    10    1
    29    19    14   ar
    30     6     1    1
    31    28    21   ar
    32    27    29    1
@<TRIPOS>MOLECULE
*****
 29 32 0 0 0
SMALL
GASTEIGER

@<TRIPOS>ATOM
      1 N          -0.1008    2.1192   22.0515 N.3     1  UNL1       -0.2724
      2 C          -1.1923    3.1246   22.2701 C.3     1  UNL1        0.0721
      3 C          -1.6252    3.4706   23.6639 C.3     1  UNL1        0.0177
      4 C          -0.9666    2.8112   24.8393 C.3     1  UNL1        0.0071
      5 C           0.1250    1.8058   24.6207 C.3     1  UNL1        0.0177
      6 C           0.5579    1.4598   23.2268 C.3     1  UNL1        0.0721
      7 C           0.3322    1.7732   20.6577 C.3     1  UNL1        0.0768
      8 C           0.4168    0.3370   20.2334 C.3     1  UNL1        0.0437
      9 O           4.1813   -3.3060   21.5779 O.2     1  UNL1       -0.2911
     10 C           4.5790   -2.7738   20.2330 C.2     1  UNL1        0.1797
     11 C           5.8183   -3.2853   19.5605 C.3     1  UNL1        0.1165
     12 C           6.2160   -2.7531   18.2157 C.3     1  UNL1        0.2135
     13 O           5.3743   -1.7093   17.5434 O.3     1  UNL1       -0.4749
     14 C           4.1350   -1.1977   18.2159 C.ar    1  UNL1        0.1412
     15 C           3.2932   -0.1539   17.5436 C.ar    1  UNL1        0.0367
     16 C           2.0539    0.3576   18.2161 C.ar    1  UNL1       -0.0011
     17 C           1.6562   -0.1746   19.5609 C.ar    1  UNL1       -0.0205
     18 C           2.4979   -1.2184   20.2332 C.ar    1  UNL1        0.0017
     19 C           3.7373   -1.7300   19.5607 C.ar    1  UNL1        0.0684
     20 C          -1.3995    3.1572   26.2331 C.3     1  UNL1        0.0265
     21 C          -0.5964    2.6821   27.4076 C.ar    1  UNL1       -0.0192
     22 C           0.4049    3.5955   28.0503 C.ar    1  UNL1       -0.0036
     23 C           1.2079    3.1204   29.2248 C.ar    1  UNL1        0.0094
     24 C           1.0097    1.7320   29.7566 C.ar    1  UNL1        0.0682
     25 BR          1.8128    1.2569   30.9310 Br      1  UNL1       -0.0459
     26 C           0.0084    0.8186   29.1138 C.ar    1  UNL1        0.1395
     27 O          -0.1898   -0.5700   29.6456 O.3     1  UNL1       -0.5050
     28 C          -0.7946    1.2937   27.9394 C.ar    1  UNL1        0.0329
     29 H           0.3118   -0.8668   30.3792 H       1  UNL1        0.2922
@<TRIPOS>BOND
     1     9    10    2
     2    10    11    1
     3    11    12    1
     4    12    13    1
     5    13    14    1
     6    14    15   ar
     7    15    16   ar
     8    16    17   ar
     9    17     8    1
    10     8     7    1
    11     7     1    1
    12     1     2    1
    13     2     3    1
    14     3     4    1
    15     4    20    1
    16    20    21    1
    17    21    22   ar
    18    22    23   ar
    19    23    24   ar
    20    24    25    1
    21    24    26   ar
    22    26    27    1
    23    26    28   ar
    24     4     5    1
    25     5     6    1
    26    17    18   ar
    27    18    19   ar
    28    19    10    1
    29    19    14   ar
    30     6     1    1
    31    28    21   ar
    32    27    29    1
@<TRIPOS>MOLECULE
*****
 29 32 0 0 0
SMALL
GASTEIGER

@<TRIPOS>ATOM
      1 N           5.6885   -3.9433   20.7047 N.3     1  UNL1       -0.2724
      2 C           7.1788   -4.1074   20.7504 C.3     1  UNL1        0.0721
      3 C           7.8897   -4.1390   22.0708 C.3     1  UNL1        0.0177
      4 C           7.1104   -4.0065   23.3456 C.3     1  UNL1        0.0071
      5 C           5.6201   -3.8424   23.2999 C.3     1  UNL1        0.0177
      6 C           4.9091   -3.8108   21.9794 C.3     1  UNL1        0.0721
      7 C           4.9776   -3.9118   19.3843 C.3     1  UNL1        0.0768
      8 C           3.5836   -3.3650   19.2959 C.3     1  UNL1        0.0437
      9 O          -0.2299    0.1809   20.7568 O.2     1  UNL1       -0.2911
     10 C           0.7514    0.9466   19.9198 C.2     1  UNL1        0.1797
     11 C           0.5341    2.4073   19.6572 C.3     1  UNL1        0.1165
     12 C           1.5154    3.1730   18.8201 C.3     1  UNL1        0.2135
     13 O           2.7140    2.4780   18.2456 O.3     1  UNL1       -0.4749
     14 C           2.9314    1.0173   18.5082 C.ar    1  UNL1        0.1412
     15 C           4.1301    0.3222   17.9337 C.ar    1  UNL1        0.0367
     16 C           4.3475   -1.1385   18.1963 C.ar    1  UNL1       -0.0011
     17 C           3.3662   -1.9042   19.0333 C.ar    1  UNL1       -0.0205
     18 C           2.1675   -1.2092   19.6078 C.ar    1  UNL1        0.0017
     19 C           1.9501    0.2516   19.3453 C.ar    1  UNL1        0.0684
     20 C           7.8213   -4.0380   24.6661 C.3     1  UNL1        0.0265
     21 C           7.9547   -5.3306   25.4153 C.ar    1  UNL1       -0.0192
     22 C           8.3738   -6.5765   24.6928 C.ar    1  UNL1       -0.0036
     23 C           8.5072   -7.8691   25.4421 C.ar    1  UNL1        0.0094
     24 C           8.2216   -7.9158   26.9138 C.ar    1  UNL1        0.0682
     25 BR          8.3551   -9.2084   27.6631 Br      1  UNL1       -0.0459
     26 C           7.8026   -6.6699   27.6364 C.ar    1  UNL1        0.1395
     27 O           7.5169   -6.7165   29.1082 O.3     1  UNL1       -0.5050
     28 C           7.6691   -5.3773   26.8871 C.ar    1  UNL1        0.0329
     29 H           7.6003   -7.5240   29.5763 H       1  UNL1        0.2922
@<TRIPOS>BOND
     1     9    10    2
     2    10    11    1
     3    11    12    1
     4    12    13    1
     5    13    14    1
     6    14    15   ar
     7    15    16   ar
     8    16    17   ar
     9    17     8    1
    10     8     7    1
    11     7     1    1
    12     1     2    1
    13     2     3    1
    14     3     4    1
    15     4    20    1
    16    20    21    1
    17    21    22   ar
    18    22    23   ar
    19    23    24   ar
    20    24    25    1
    21    24    26   ar
    22    26    27    1
    23    26    28   ar
    24     4     5    1
    25     5     6    1
    26    17    18   ar
    27    18    19   ar
    28    19    10    1
    29    19    14   ar
    30     6     1    1
    31    28    21   ar
    32    27    29    1
@<TRIPOS>MOLECULE
*****
 29 32 0 0 0
SMALL
GASTEIGER

@<TRIPOS>ATOM
      1 N           6.8062   -4.0763   22.1553 N.3     1  UNL1       -0.2724
      2 C           5.4401   -3.8671   22.7383 C.3     1  UNL1        0.0721
      3 C           4.2984   -3.4700   21.8501 C.3     1  UNL1        0.0177
      4 C           4.5229   -3.2822   20.3789 C.3     1  UNL1        0.0071
      5 C           5.8890   -3.4915   19.7959 C.3     1  UNL1        0.0177
      6 C           7.0307   -3.8886   20.6842 C.3     1  UNL1        0.0721
      7 C           7.9479   -4.4734   23.0435 C.3     1  UNL1        0.0768
      8 C           8.0058   -5.8584   23.6165 C.3     1  UNL1        0.0437
      9 O           6.2584   -2.8127   27.7300 O.2     1  UNL1       -0.2911
     10 C           6.7409   -4.0961   28.3383 C.2     1  UNL1        0.1797
     11 C           6.6659   -4.2973   29.8228 C.3     1  UNL1        0.1165
     12 C           7.1484   -5.5807   30.4311 C.3     1  UNL1        0.2135
     13 O           7.7059   -6.6630   29.5548 O.3     1  UNL1       -0.4749
     14 C           7.7809   -6.4618   28.0703 C.ar    1  UNL1        0.1412
     15 C           8.3384   -7.5441   27.1939 C.ar    1  UNL1        0.0367
     16 C           8.4133   -7.3430   25.7094 C.ar    1  UNL1       -0.0011
     17 C           7.9308   -6.0595   25.1011 C.ar    1  UNL1       -0.0205
     18 C           7.3734   -4.9773   25.9774 C.ar    1  UNL1        0.0017
     19 C           7.2984   -5.1784   27.4620 C.ar    1  UNL1        0.0684
     20 C           3.3812   -2.8852   19.4907 C.3     1  UNL1        0.0265
     21 C           2.9180   -1.4589   19.4571 C.ar    1  UNL1       -0.0192
     22 C           3.7117   -0.4300   18.7078 C.ar    1  UNL1       -0.0036
     23 C           3.2486    0.9963   18.6742 C.ar    1  UNL1        0.0094
     24 C           1.9916    1.3937   19.3898 C.ar    1  UNL1        0.0682
     25 BR          1.5285    2.8200   19.3561 Br      1  UNL1       -0.0459
     26 C           1.1979    0.3649   20.1390 C.ar    1  UNL1        0.1395
     27 O          -0.0591    0.7623   20.8547 O.3     1  UNL1       -0.5050
     28 C           1.6611   -1.0614   20.1727 C.ar    1  UNL1        0.0329
     29 H          -0.3484    1.6533   20.8337 H       1  UNL1        0.2922
@<TRIPOS>BOND
     1     9    10    2
     2    10    11    1
     3    11    12    1
     4    12    13    1
     5    13    14    1
     6    14    15   ar
     7    15    16   ar
     8    16    17   ar
     9    17     8    1
    10     8     7    1
    11     7     1    1
    12     1     2    1
    13     2     3    1
    14     3     4    1
    15     4    20    1
    16    20    21    1
    17    21    22   ar
    18    22    23   ar
    19    23    24   ar
    20    24    25    1
    21    24    26   ar
    22    26    27    1
    23    26    28   ar
    24     4     5    1
    25     5     6    1
    26    17    18   ar
    27    18    19   ar
    28    19    10    1
    29    19    14   ar
    30     6     1    1
    31    28    21   ar
    32    27    29    1
@<TRIPOS>MOLECULE
*****
 29 32 0 0 0
SMALL
GASTEIGER

@<TRIPOS>ATOM
      1 N         -16.1711   -1.2977   18.5954 N.3     1  UNL1       -0.2724
      2 C         -15.2097   -1.0320   17.4751 C.3     1  UNL1        0.0721
      3 C         -13.7590   -1.3791   17.6335 C.3     1  UNL1        0.0177
      4 C         -13.2697   -1.9919   18.9122 C.3     1  UNL1        0.0071
      5 C         -14.2312   -2.2576   20.0325 C.3     1  UNL1        0.0177
      6 C         -15.6819   -1.9105   19.8741 C.3     1  UNL1        0.0721
      7 C         -17.6217   -0.9506   18.4369 C.3     1  UNL1        0.0768
      8 C         -18.0514    0.4864   18.4184 C.3     1  UNL1        0.0437
      9 O         -18.3413    1.7944   23.6582 O.2     1  UNL1       -0.2911
     10 C         -17.3041    2.6983   23.0606 C.2     1  UNL1        0.1797
     11 C         -16.5986    3.7032   23.9222 C.3     1  UNL1        0.1165
     12 C         -15.5614    4.6070   23.3246 C.3     1  UNL1        0.2135
     13 O         -15.2296    4.5060   21.8653 O.3     1  UNL1       -0.4749
     14 C         -15.9351    3.5011   21.0036 C.ar    1  UNL1        0.1412
     15 C         -15.6033    3.4001   19.5442 C.ar    1  UNL1        0.0367
     16 C         -16.3087    2.3952   18.6825 C.ar    1  UNL1       -0.0011
     17 C         -17.3459    1.4913   19.2802 C.ar    1  UNL1       -0.0205
     18 C         -17.6777    1.5923   20.7395 C.ar    1  UNL1        0.0017
     19 C         -16.9723    2.5973   21.6012 C.ar    1  UNL1        0.0684
     20 C         -11.8191   -2.3390   19.0707 C.3     1  UNL1        0.0265
     21 C         -11.3540   -3.7450   18.8326 C.ar    1  UNL1       -0.0192
     22 C          -9.9905   -3.9973   18.2607 C.ar    1  UNL1       -0.0036
     23 C          -9.5254   -5.4033   18.0227 C.ar    1  UNL1        0.0094
     24 C         -10.4238   -6.5571   18.3566 C.ar    1  UNL1        0.0682
     25 BR         -9.9587   -7.9632   18.1185 Br      1  UNL1       -0.0459
     26 C         -11.7873   -6.3049   18.9285 C.ar    1  UNL1        0.1395
     27 O         -12.6858   -7.4587   19.2624 O.3     1  UNL1       -0.5050
     28 C         -12.2524   -4.8988   19.1665 C.ar    1  UNL1        0.0329
     29 H         -12.3953   -8.3371   19.1137 H       1  UNL1        0.2922
@<TRIPOS>BOND
     1     9    10    2
     2    10    11    1
     3    11    12    1
     4    12    13    1
     5    13    14    1
     6    14    15   ar
     7    15    16   ar
     8    16    17   ar
     9    17     8    1
    10     8     7    1
    11     7     1    1
    12     1     2    1
    13     2     3    1
    14     3     4    1
    15     4    20    1
    16    20    21    1
    17    21    22   ar
    18    22    23   ar
    19    23    24   ar
    20    24    25    1
    21    24    26   ar
    22    26    27    1
    23    26    28   ar
    24     4     5    1
    25     5     6    1
    26    17    18   ar
    27    18    19   ar
    28    19    10    1
    29    19    14   ar
    30     6     1    1
    31    28    21   ar
    32    27    29    1
@<TRIPOS>MOLECULE
*****
 29 32 0 0 0
SMALL
GASTEIGER

@<TRIPOS>ATOM
      1 N           0.4894    2.2285   22.9499 N.3     1  UNL1       -0.2724
      2 C           1.5177    1.1949   23.3023 C.3     1  UNL1        0.0721
      3 C           1.8883    0.1358   22.3069 C.3     1  UNL1        0.0177
      4 C           1.2306    0.1103   20.9590 C.3     1  UNL1        0.0071
      5 C           0.2023    1.1439   20.6065 C.3     1  UNL1        0.0177
      6 C          -0.1683    2.2030   21.6020 C.3     1  UNL1        0.0721
      7 C           0.1188    3.2876   23.9453 C.3     1  UNL1        0.0768
      8 C          -0.7510    2.9435   25.1179 C.3     1  UNL1        0.0437
      9 O          -4.5245    3.3573   21.2656 O.2     1  UNL1       -0.2911
     10 C          -5.1973    3.7414   22.5500 C.2     1  UNL1        0.1797
     11 C          -6.6453    4.1330   22.5503 C.3     1  UNL1        0.1165
     12 C          -7.3181    4.5171   23.8347 C.3     1  UNL1        0.2135
     13 O          -6.5430    4.5097   25.1189 O.3     1  UNL1       -0.4749
     14 C          -5.0950    4.1182   25.1186 C.ar    1  UNL1        0.1412
     15 C          -4.3198    4.1107   26.4028 C.ar    1  UNL1        0.0367
     16 C          -2.8718    3.7192   26.4025 C.ar    1  UNL1       -0.0011
     17 C          -2.1990    3.3350   25.1181 C.ar    1  UNL1       -0.0205
     18 C          -2.9741    3.3424   23.8339 C.ar    1  UNL1        0.0017
     19 C          -4.4222    3.7340   23.8342 C.ar    1  UNL1        0.0684
     20 C           1.6012   -0.9489   19.9636 C.3     1  UNL1        0.0265
     21 C           3.0445   -1.2759   19.7186 C.ar    1  UNL1       -0.0192
     22 C           3.9407   -0.2683   19.0618 C.ar    1  UNL1       -0.0036
     23 C           5.3840   -0.5953   18.8168 C.ar    1  UNL1        0.0094
     24 C           5.9310   -1.9299   19.2288 C.ar    1  UNL1        0.0682
     25 BR          7.3743   -2.2569   18.9839 Br      1  UNL1       -0.0459
     26 C           5.0348   -2.9374   19.8857 C.ar    1  UNL1        0.1395
     27 O           5.5818   -4.2720   20.2977 O.3     1  UNL1       -0.5050
     28 C           3.5915   -2.6104   20.1306 C.ar    1  UNL1        0.0329
     29 H           6.4833   -4.4763   20.1447 H       1  UNL1        0.2922
@<TRIPOS>BOND
     1     9    10    2
     2    10    11    1
     3    11    12    1
     4    12    13    1
     5    13    14    1
     6    14    15   ar
     7    15    16   ar
     8    16    17   ar
     9    17     8    1
    10     8     7    1
    11     7     1    1
    12     1     2    1
    13     2     3    1
    14     3     4    1
    15     4    20    1
    16    20    21    1
    17    21    22   ar
    18    22    23   ar
    19    23    24   ar
    20    24    25    1
    21    24    26   ar
    22    26    27    1
    23    26    28   ar
    24     4     5    1
    25     5     6    1
    26    17    18   ar
    27    18    19   ar
    28    19    10    1
    29    19    14   ar
    30     6     1    1
    31    28    21   ar
    32    27    29    1
@<TRIPOS>MOLECULE
*****
 29 32 0 0 0
SMALL
GASTEIGER

@<TRIPOS>ATOM
      1 N         -15.6923   -0.3680   19.1549 N.3     1  UNL1       -0.2724
      2 C         -14.4437    0.1798   18.5296 C.3     1  UNL1        0.0721
      3 C         -13.1814   -0.6304   18.5414 C.3     1  UNL1        0.0177
      4 C         -13.1677   -1.9883   19.1785 C.3     1  UNL1        0.0071
      5 C         -14.4162   -2.5361   19.8038 C.3     1  UNL1        0.0177
      6 C         -15.6786   -1.7258   19.7920 C.3     1  UNL1        0.0721
      7 C         -16.9546    0.4422   19.1431 C.3     1  UNL1        0.0768
      8 C         -16.8880    1.9363   19.2581 C.3     1  UNL1        0.0437
      9 O         -13.6637    5.9060   21.0174 O.2     1  UNL1       -0.2911
     10 C         -14.4358    5.4359   22.2144 C.2     1  UNL1        0.1797
     11 C         -14.2089    6.0758   23.5519 C.3     1  UNL1        0.1165
     12 C         -14.9810    5.6057   24.7489 C.3     1  UNL1        0.2135
     13 O         -15.9801    4.4957   24.6084 O.3     1  UNL1       -0.4749
     14 C         -16.2071    3.8559   23.2708 C.ar    1  UNL1        0.1412
     15 C         -17.2062    2.7459   23.1302 C.ar    1  UNL1        0.0367
     16 C         -17.4332    2.1061   21.7927 C.ar    1  UNL1       -0.0011
     17 C         -16.6610    2.5762   20.5957 C.ar    1  UNL1       -0.0205
     18 C         -15.6619    3.6861   20.7362 C.ar    1  UNL1        0.0017
     19 C         -15.4349    4.3260   22.0738 C.ar    1  UNL1        0.0684
     20 C         -11.9053   -2.7985   19.1903 C.3     1  UNL1        0.0265
     21 C         -11.8402   -4.0965   18.4415 C.ar    1  UNL1       -0.0192
     22 C         -11.2831   -4.1321   17.0493 C.ar    1  UNL1       -0.0036
     23 C         -11.2179   -5.4301   16.3004 C.ar    1  UNL1        0.0094
     24 C         -11.7099   -6.6927   16.9438 C.ar    1  UNL1        0.0682
     25 BR        -11.6448   -7.9907   16.1949 Br      1  UNL1       -0.0459
     26 C         -12.2670   -6.6571   18.3360 C.ar    1  UNL1        0.1395
     27 O         -12.7591   -7.9197   18.9794 O.3     1  UNL1       -0.5050
     28 C         -12.3322   -5.3590   19.0848 C.ar    1  UNL1        0.0329
     29 H         -12.7184   -8.7305   18.5116 H       1  UNL1        0.2922
@<TRIPOS>BOND
     1     9    10    2
     2    10    11    1
     3    11    12    1
     4    12    13    1
     5    13    14    1
     6    14    15   ar
     7    15    16   ar
     8    16    17   ar
     9    17     8    1
    10     8     7    1
    11     7     1    1
    12     1     2    1
    13     2     3    1
    14     3     4    1
    15     4    20    1
    16    20    21    1
    17    21    22   ar
    18    22    23   ar
    19    23    24   ar
    20    24    25    1
    21    24    26   ar
    22    26    27    1
    23    26    28   ar
    24     4     5    1
    25     5     6    1
    26    17    18   ar
    27    18    19   ar
    28    19    10    1
    29    19    14   ar
    30     6     1    1
    31    28    21   ar
    32    27    29    1
