@<TRIPOS>MOLECULE
*****
 29 32 0 0 0
SMALL
GASTEIGER

@<TRIPOS>ATOM
      1 C         -10.9746  -18.0458   21.1407 C.2     1  UNL1        0.3270
      2 N         -10.8640  -18.8994   19.9122 N.2     1  UNL1       -0.0380
      3 C          -9.4600  -19.4220   19.8358 C.2     1  UNL1        0.2637
      4 C          -8.7731  -20.3124   18.8432 C.2     1  UNL1        0.2821
      5 N          -7.3291  -20.6722   19.0318 N.2     1  UNL1       -0.0268
      6 C          -6.5721  -20.1415   20.2130 C.2     1  UNL1        0.3760
      7 N          -5.1513  -20.3228   20.6584 N.2     1  UNL1       -0.0306
      8 C          -4.9601  -19.5444   21.9263 C.2     1  UNL1        0.2361
      9 C          -6.2627  -18.8820   22.2645 C.2     1  UNL1        0.0583
     10 C          -7.2590  -19.2510   21.2056 C.2     1  UNL1        0.1203
     11 C          -8.7030  -18.8912   21.0170 C.3     1  UNL1        0.2596
     12 N          -9.6391  -18.0407   21.8234 N.pl3   1  UNL1       -0.1887
     13 C          -9.2993  -17.3129   23.0902 C.3     1  UNL1        0.1606
     14 C          -9.5825  -17.9482   24.4192 C.3     1  UNL1        0.0480
     15 C          -9.2427  -17.2203   25.6861 C.3     1  UNL1        0.0198
     16 C          -8.6196  -15.8573   25.6239 C.3     1  UNL1        0.0545
     17 C          -8.3363  -15.2221   24.2949 C.3     1  UNL1        0.0198
     18 C          -8.6761  -15.9498   23.0281 C.3     1  UNL1        0.0480
     19 N          -8.2798  -15.1295   26.8907 N.3     1  UNL1       -0.2914
     20 H          -8.6793  -15.6707   27.6574 H       1  UNL1        0.1235
     21 C          -6.8455  -14.8702   27.2450 C.3     1  UNL1        0.1731
     22 C          -5.7690  -15.7764   26.7255 C.3     1  UNL1        0.4118
     23 F          -4.6924  -16.6825   26.2060 F       1  UNL1       -0.1685
     24 F          -5.3195  -14.7011   25.7813 F       1  UNL1       -0.1685
     25 F          -6.2185  -16.8518   27.6698 F       1  UNL1       -0.1685
     26 C         -12.8438  -17.6939   22.9105 C.3     1  UNL1        0.0450
     27 C         -12.2049  -17.3240   21.6048 C.3     1  UNL1        0.2165
     28 O         -12.7962  -16.2322   20.7632 O.3     1  UNL1       -0.3737
     29 H         -12.2658  -16.1207   19.9588 H       1  UNL1        0.2111
@<TRIPOS>BOND
     1    27    26    1
     2    27    28    1
     3    27     1    1
     4     1     2    2
     5     2     3    1
     6     3     4    2
     7     4     5    1
     8     5     6    2
     9     6     7    1
    10     7     8    2
    11     8     9    1
    12     9    10    2
    13    10    11    1
    14    11    12    1
    15    13    12    1
    16    13    14    1
    17    14    15    1
    18    15    16    1
    19    16    19    1
    20    19    21    1
    21    21    22    1
    22    22    23    1
    23    22    24    1
    24    22    25    1
    25    16    17    1
    26    17    18    1
    27    12     1    1
    28    18    13    1
    29    11     3    1
    30    10     6    1
    31    28    29    1
    32    19    20    1
@<TRIPOS>MOLECULE
*****
 29 32 0 0 0
SMALL
GASTEIGER

@<TRIPOS>ATOM
      1 C          -7.6732  -16.1446   24.6218 C.2     1  UNL1        0.3270
      2 N          -9.1650  -15.9947   24.5762 N.2     1  UNL1       -0.0380
      3 C          -9.6704  -16.7488   23.3821 C.2     1  UNL1        0.2637
      4 C         -11.0521  -16.9541   22.8358 C.2     1  UNL1        0.2821
      5 N         -11.2545  -17.7755   21.5970 N.2     1  UNL1       -0.0268
      6 C         -10.0750  -18.3915   20.9046 C.2     1  UNL1        0.3760
      7 N          -9.9655  -19.2442   19.6754 N.2     1  UNL1       -0.0306
      8 C          -8.5161  -19.5658   19.4621 C.2     1  UNL1        0.2361
      9 C          -7.7297  -18.9119   20.5594 C.2     1  UNL1        0.0583
     10 C          -8.6933  -18.1861   21.4509 C.2     1  UNL1        0.1203
     11 C          -8.4909  -17.3648   22.6897 C.3     1  UNL1        0.2596
     12 N          -7.2566  -16.9913   23.4559 N.pl3   1  UNL1       -0.1887
     13 C          -5.8523  -17.3940   23.1158 C.3     1  UNL1        0.1606
     14 C          -4.7329  -16.4059   23.2603 C.3     1  UNL1        0.0480
     15 C          -3.3285  -16.8087   22.9202 C.3     1  UNL1        0.0198
     16 C          -3.0435  -18.1993   22.4357 C.3     1  UNL1        0.0545
     17 C          -4.1629  -19.1874   22.2913 C.3     1  UNL1        0.0198
     18 C          -5.5672  -18.7847   22.6314 C.3     1  UNL1        0.0480
     19 N          -1.6392  -18.6020   22.0957 N.3     1  UNL1       -0.2914
     20 H          -1.4968  -19.5330   22.4873 H       1  UNL1        0.1235
     21 C          -1.2031  -18.6640   20.6619 C.3     1  UNL1        0.1731
     22 C          -1.9360  -17.8718   19.6200 C.3     1  UNL1        0.4118
     23 F          -2.6689  -17.0796   18.5783 F       1  UNL1       -0.1685
     24 F          -1.2239  -16.6287   20.0643 F       1  UNL1       -0.1685
     25 F          -2.6482  -19.1150   19.1758 F       1  UNL1       -0.1685
     26 C          -6.8082  -16.0413   27.0694 C.3     1  UNL1        0.0450
     27 C          -6.7587  -15.5518   25.6524 C.3     1  UNL1        0.2165
     28 O          -5.7946  -14.4696   25.2660 O.3     1  UNL1       -0.3737
     29 H          -5.8913  -14.2727   24.3211 H       1  UNL1        0.2111
@<TRIPOS>BOND
     1    27    26    1
     2    27    28    1
     3    27     1    1
     4     1     2    2
     5     2     3    1
     6     3     4    2
     7     4     5    1
     8     5     6    2
     9     6     7    1
    10     7     8    2
    11     8     9    1
    12     9    10    2
    13    10    11    1
    14    11    12    1
    15    13    12    1
    16    13    14    1
    17    14    15    1
    18    15    16    1
    19    16    19    1
    20    19    21    1
    21    21    22    1
    22    22    23    1
    23    22    24    1
    24    22    25    1
    25    16    17    1
    26    17    18    1
    27    12     1    1
    28    18    13    1
    29    11     3    1
    30    10     6    1
    31    28    29    1
    32    19    20    1
@<TRIPOS>MOLECULE
*****
 29 32 0 0 0
SMALL
GASTEIGER

@<TRIPOS>ATOM
      1 C          -8.3698  -19.1882   20.5846 C.2     1  UNL1        0.3270
      2 N          -7.5498  -20.0602   19.6806 N.2     1  UNL1       -0.0380
      3 C          -6.1206  -19.9782   20.1287 C.2     1  UNL1        0.2637
      4 C          -4.8687  -20.6244   19.6140 C.2     1  UNL1        0.2821
      5 N          -3.5534  -20.3480   20.2802 N.2     1  UNL1       -0.0268
      6 C          -3.4902  -19.4253   21.4611 C.2     1  UNL1        0.3760
      7 N          -2.3464  -18.9666   22.3163 N.2     1  UNL1       -0.0306
      8 C          -2.8915  -18.0368   23.3595 C.2     1  UNL1        0.2361
      9 C          -4.3722  -17.9208   23.1491 C.2     1  UNL1        0.0583
     10 C          -4.7422  -18.7790   21.9758 C.2     1  UNL1        0.1203
     11 C          -6.0574  -19.0555   21.3096 C.3     1  UNL1        0.2596
     12 N          -7.4475  -18.5672   21.5913 N.pl3   1  UNL1       -0.1887
     13 C          -7.8453  -17.6237   22.6874 C.3     1  UNL1        0.1606
     14 C          -7.2343  -16.2556   22.7579 C.3     1  UNL1        0.0480
     15 C          -7.6322  -15.3120   23.8540 C.3     1  UNL1        0.0198
     16 C          -8.6411  -15.7366   24.8796 C.3     1  UNL1        0.0545
     17 C          -9.2521  -17.1047   24.8091 C.3     1  UNL1        0.0198
     18 C          -8.8543  -18.0482   23.7131 C.3     1  UNL1        0.0480
     19 N          -9.0390  -14.7930   25.9757 N.3     1  UNL1       -0.2914
     20 H         -10.0532  -14.8559   26.0646 H       1  UNL1        0.1235
     21 C          -8.4721  -14.9628   27.3540 C.3     1  UNL1        0.1731
     22 C          -7.3241  -15.9009   27.5825 C.3     1  UNL1        0.4118
     23 F          -6.1762  -16.8390   27.8110 F       1  UNL1       -0.1685
     24 F          -8.2896  -17.0156   27.8568 F       1  UNL1       -0.1685
     25 F          -6.3586  -14.7861   27.3082 F       1  UNL1       -0.1685
     26 C         -10.7882  -19.9231   21.1855 C.3     1  UNL1        0.0450
     27 C          -9.8519  -18.9747   20.4971 C.3     1  UNL1        0.2165
     28 O         -10.3977  -17.8128   19.7212 O.3     1  UNL1       -0.3737
     29 H          -9.6641  -17.3037   19.3424 H       1  UNL1        0.2111
@<TRIPOS>BOND
     1    27    26    1
     2    27    28    1
     3    27     1    1
     4     1     2    2
     5     2     3    1
     6     3     4    2
     7     4     5    1
     8     5     6    2
     9     6     7    1
    10     7     8    2
    11     8     9    1
    12     9    10    2
    13    10    11    1
    14    11    12    1
    15    13    12    1
    16    13    14    1
    17    14    15    1
    18    15    16    1
    19    16    19    1
    20    19    21    1
    21    21    22    1
    22    22    23    1
    23    22    24    1
    24    22    25    1
    25    16    17    1
    26    17    18    1
    27    12     1    1
    28    18    13    1
    29    11     3    1
    30    10     6    1
    31    28    29    1
    32    19    20    1
@<TRIPOS>MOLECULE
*****
 29 32 0 0 0
SMALL
GASTEIGER

@<TRIPOS>ATOM
      1 C          -9.1283  -20.0631   19.3931 C.2     1  UNL1        0.3270
      2 N         -10.5608  -19.6398   19.5299 N.2     1  UNL1       -0.0380
      3 C         -10.6459  -18.6478   20.6519 C.2     1  UNL1        0.2637
      4 C         -11.8016  -17.8928   21.2386 C.2     1  UNL1        0.2821
      5 N         -11.5774  -16.9480   22.3820 N.2     1  UNL1       -0.0268
      6 C         -10.1974  -16.7583   22.9385 C.2     1  UNL1        0.3760
      7 N          -9.6738  -15.9021   24.0532 N.2     1  UNL1       -0.0306
      8 C          -8.1944  -16.1279   24.1554 C.2     1  UNL1        0.2361
      9 C          -7.8038  -17.1237   23.1038 C.2     1  UNL1        0.0583
     10 C          -9.0417  -17.5133   22.3517 C.2     1  UNL1        0.1203
     11 C          -9.2660  -18.4581   21.2084 C.3     1  UNL1        0.2596
     12 N          -8.3281  -19.3327   20.4304 N.pl3   1  UNL1       -0.1887
     13 C          -6.8495  -19.4555   20.6511 C.3     1  UNL1        0.1606
     14 C          -6.3282  -20.0481   21.9266 C.3     1  UNL1        0.0480
     15 C          -4.8495  -20.1708   22.1472 C.3     1  UNL1        0.0198
     16 C          -3.8923  -19.7011   21.0923 C.3     1  UNL1        0.0545
     17 C          -4.4136  -19.1086   19.8167 C.3     1  UNL1        0.0198
     18 C          -5.8922  -18.9858   19.5961 C.3     1  UNL1        0.0480
     19 N          -2.4137  -19.8239   21.3129 N.3     1  UNL1       -0.2914
     20 H          -2.0492  -20.3977   20.5524 H       1  UNL1        0.1235
     21 C          -1.5596  -18.5923   21.3739 C.3     1  UNL1        0.1731
     22 C          -2.1421  -17.2991   21.8623 C.3     1  UNL1        0.4118
     23 F          -2.7245  -16.0060   22.3507 F       1  UNL1       -0.1685
     24 F          -2.1103  -16.7568   20.4642 F       1  UNL1       -0.1685
     25 F          -2.1739  -17.8415   23.2605 F       1  UNL1       -0.1685
     26 C          -9.2079  -21.1411   17.0305 C.3     1  UNL1        0.0450
     27 C          -8.5906  -21.0444   18.3942 C.3     1  UNL1        0.2165
     28 O          -7.4355  -21.9291   18.7590 O.3     1  UNL1       -0.3737
     29 H          -7.1585  -21.7403   19.6692 H       1  UNL1        0.2111
@<TRIPOS>BOND
     1    27    26    1
     2    27    28    1
     3    27     1    1
     4     1     2    2
     5     2     3    1
     6     3     4    2
     7     4     5    1
     8     5     6    2
     9     6     7    1
    10     7     8    2
    11     8     9    1
    12     9    10    2
    13    10    11    1
    14    11    12    1
    15    13    12    1
    16    13    14    1
    17    14    15    1
    18    15    16    1
    19    16    19    1
    20    19    21    1
    21    21    22    1
    22    22    23    1
    23    22    24    1
    24    22    25    1
    25    16    17    1
    26    17    18    1
    27    12     1    1
    28    18    13    1
    29    11     3    1
    30    10     6    1
    31    28    29    1
    32    19    20    1
@<TRIPOS>MOLECULE
*****
 29 32 0 0 0
SMALL
GASTEIGER

@<TRIPOS>ATOM
      1 C          -6.1410  -19.2423   21.0610 C.2     1  UNL1        0.3270
      2 N          -6.8327  -20.0165   19.9784 N.2     1  UNL1       -0.0380
      3 C          -8.2588  -19.5554   19.9175 C.2     1  UNL1        0.2637
      4 C          -9.4091  -19.9631   19.0456 C.2     1  UNL1        0.2821
      5 N         -10.7492  -19.3116   19.2185 N.2     1  UNL1       -0.0268
      6 C         -10.9388  -18.2524   20.2636 C.2     1  UNL1        0.3760
      7 N         -12.1342  -17.4390   20.6629 N.2     1  UNL1       -0.0306
      8 C         -11.7226  -16.5286   21.7817 C.2     1  UNL1        0.2361
      9 C         -10.2728  -16.7793   22.0739 C.2     1  UNL1        0.0583
     10 C          -9.7884  -17.8447   21.1356 C.2     1  UNL1        0.1203
     11 C          -8.4484  -18.4962   20.9625 C.3     1  UNL1        0.2596
     12 N          -7.1395  -18.3027   21.6693 N.pl3   1  UNL1       -0.1887
     13 C          -6.8756  -17.3388   22.7879 C.3     1  UNL1        0.1606
     14 C          -8.0217  -16.7388   23.5470 C.3     1  UNL1        0.0480
     15 C          -7.7576  -15.7749   24.6656 C.3     1  UNL1        0.0198
     16 C          -6.3475  -15.4111   25.0250 C.3     1  UNL1        0.0545
     17 C          -5.2014  -16.0111   24.2659 C.3     1  UNL1        0.0198
     18 C          -5.4654  -16.9750   23.1473 C.3     1  UNL1        0.0480
     19 N          -6.0835  -14.4472   26.1436 N.3     1  UNL1       -0.2914
     20 H          -6.4618  -13.5462   25.8513 H       1  UNL1        0.1235
     21 C          -6.6281  -14.7214   27.5141 C.3     1  UNL1        0.1731
     22 C          -7.7135  -15.7400   27.6999 C.3     1  UNL1        0.4118
     23 F          -8.7989  -16.7584   27.8857 F       1  UNL1       -0.1685
     24 F          -8.7466  -14.6568   27.6026 F       1  UNL1       -0.1685
     25 F          -6.6804  -16.8231   27.7973 F       1  UNL1       -0.1685
     26 C          -3.6152  -18.9509   20.5267 C.3     1  UNL1        0.0450
     27 C          -4.7032  -19.3831   21.4646 C.3     1  UNL1        0.2165
     28 O          -4.3534  -19.9561   22.8059 O.3     1  UNL1       -0.3737
     29 H          -5.1670  -20.1822   23.2831 H       1  UNL1        0.2111
@<TRIPOS>BOND
     1    27    26    1
     2    27    28    1
     3    27     1    1
     4     1     2    2
     5     2     3    1
     6     3     4    2
     7     4     5    1
     8     5     6    2
     9     6     7    1
    10     7     8    2
    11     8     9    1
    12     9    10    2
    13    10    11    1
    14    11    12    1
    15    13    12    1
    16    13    14    1
    17    14    15    1
    18    15    16    1
    19    16    19    1
    20    19    21    1
    21    21    22    1
    22    22    23    1
    23    22    24    1
    24    22    25    1
    25    16    17    1
    26    17    18    1
    27    12     1    1
    28    18    13    1
    29    11     3    1
    30    10     6    1
    31    28    29    1
    32    19    20    1
@<TRIPOS>MOLECULE
*****
 29 32 0 0 0
SMALL
GASTEIGER

@<TRIPOS>ATOM
      1 C           3.3114   -1.9923   19.7559 C.2     1  UNL1        0.3270
      2 N           2.0813   -1.1698   19.5103 N.2     1  UNL1       -0.0380
      3 C           1.7671   -0.4182   20.7699 C.2     1  UNL1        0.2637
      4 C           0.6717    0.5459   21.1166 C.2     1  UNL1        0.2821
      5 N           0.6120    1.1520   22.4875 N.2     1  UNL1       -0.0268
      6 C           1.6480    0.7940   23.5114 C.2     1  UNL1        0.3760
      7 N           1.8456    1.2282   24.9336 N.2     1  UNL1       -0.0306
      8 C           3.0632    0.5324   25.4657 C.2     1  UNL1        0.2361
      9 C           3.6182   -0.3318   24.3724 C.2     1  UNL1        0.0583
     10 C           2.7436   -0.1701   23.1646 C.2     1  UNL1        0.1203
     11 C           2.8031   -0.7762   21.7938 C.3     1  UNL1        0.2596
     12 N           3.7575   -1.7490   21.1672 N.pl3   1  UNL1       -0.1887
     13 C           4.9489   -2.3697   21.8346 C.3     1  UNL1        0.1606
     14 C           6.3295   -1.8812   21.5100 C.3     1  UNL1        0.0480
     15 C           7.5208   -2.5019   22.1775 C.3     1  UNL1        0.0198
     16 C           7.3316   -3.6110   23.1695 C.3     1  UNL1        0.0545
     17 C           5.9509   -4.0995   23.4940 C.3     1  UNL1        0.0198
     18 C           4.7596   -3.4788   22.8266 C.3     1  UNL1        0.0480
     19 N           8.5229   -4.2316   23.8369 N.3     1  UNL1       -0.2914
     20 H           8.3244   -4.2484   24.8373 H       1  UNL1        0.1235
     21 C           8.9578   -5.6164   23.4584 C.3     1  UNL1        0.1731
     22 C           8.3467   -6.8063   24.1373 C.3     1  UNL1        0.4118
     23 F           7.7356   -7.9962   24.8160 F       1  UNL1       -0.1685
     24 F           8.6193   -7.6403   22.9207 F       1  UNL1       -0.1685
     25 F           8.0741   -5.9722   25.3539 F       1  UNL1       -0.1685
     26 C           4.0112   -4.3790   19.0050 C.3     1  UNL1        0.0450
     27 C           3.9783   -2.8988   18.7642 C.3     1  UNL1        0.2165
     28 O           4.6123   -2.3252   17.5317 O.3     1  UNL1       -0.3737
     29 H           4.5026   -1.3614   17.5304 H       1  UNL1        0.2111
@<TRIPOS>BOND
     1    27    26    1
     2    27    28    1
     3    27     1    1
     4     1     2    2
     5     2     3    1
     6     3     4    2
     7     4     5    1
     8     5     6    2
     9     6     7    1
    10     7     8    2
    11     8     9    1
    12     9    10    2
    13    10    11    1
    14    11    12    1
    15    13    12    1
    16    13    14    1
    17    14    15    1
    18    15    16    1
    19    16    19    1
    20    19    21    1
    21    21    22    1
    22    22    23    1
    23    22    24    1
    24    22    25    1
    25    16    17    1
    26    17    18    1
    27    12     1    1
    28    18    13    1
    29    11     3    1
    30    10     6    1
    31    28    29    1
    32    19    20    1
@<TRIPOS>MOLECULE
*****
 29 32 0 0 0
SMALL
GASTEIGER

@<TRIPOS>ATOM
      1 C           3.4889    0.1105   18.3004 C.2     1  UNL1        0.3270
      2 N           2.4525    1.1923   18.2256 N.2     1  UNL1       -0.0380
      3 C           1.9250    1.4254   19.6103 C.2     1  UNL1        0.2637
      4 C           0.8896    2.3704   20.1440 C.2     1  UNL1        0.2821
      5 N           0.5645    2.3777   21.6084 N.2     1  UNL1       -0.0268
      6 C           1.2749    1.4400   22.5390 C.2     1  UNL1        0.3760
      7 N           1.1665    1.2212   24.0190 N.2     1  UNL1       -0.0306
      8 C           2.1350    0.1409   24.3999 C.2     1  UNL1        0.2361
      9 C           2.8419   -0.3079   23.1554 C.2     1  UNL1        0.0583
     10 C           2.3103    0.4950   22.0053 C.2     1  UNL1        0.1203
     11 C           2.6354    0.4877   20.5409 C.3     1  UNL1        0.2596
     12 N           3.6019   -0.3250   19.7314 N.pl3   1  UNL1       -0.1887
     13 C           4.5202   -1.3867   20.2599 C.3     1  UNL1        0.1606
     14 C           5.8969   -1.0213   20.7305 C.3     1  UNL1        0.0480
     15 C           6.8152   -2.0831   21.2591 C.3     1  UNL1        0.0198
     16 C           6.3569   -3.5102   21.3171 C.3     1  UNL1        0.0545
     17 C           4.9802   -3.8755   20.8466 C.3     1  UNL1        0.0198
     18 C           4.0619   -2.8138   20.3180 C.3     1  UNL1        0.0480
     19 N           7.2752   -4.5719   21.8457 N.3     1  UNL1       -0.2914
     20 H           8.0244   -4.6802   21.1620 H       1  UNL1        0.1235
     21 C           7.9314   -4.3980   23.1833 C.3     1  UNL1        0.1731
     22 C           7.2021   -4.7925   24.4334 C.3     1  UNL1        0.4118
     23 F           6.4729   -5.1870   25.6834 F       1  UNL1       -0.1685
     24 F           7.5714   -6.2268   24.1961 F       1  UNL1       -0.1685
     25 F           6.8328   -3.3581   24.6706 F       1  UNL1       -0.1685
     26 C           5.7203   -0.0756   16.9828 C.3     1  UNL1        0.0450
     27 C           4.2743   -0.4393   17.1469 C.3     1  UNL1        0.2165
     28 O           3.6138   -1.3528   16.1573 O.3     1  UNL1       -0.3737
     29 H           2.6859   -1.4842   16.4078 H       1  UNL1        0.2111
@<TRIPOS>BOND
     1    27    26    1
     2    27    28    1
     3    27     1    1
     4     1     2    2
     5     2     3    1
     6     3     4    2
     7     4     5    1
     8     5     6    2
     9     6     7    1
    10     7     8    2
    11     8     9    1
    12     9    10    2
    13    10    11    1
    14    11    12    1
    15    13    12    1
    16    13    14    1
    17    14    15    1
    18    15    16    1
    19    16    19    1
    20    19    21    1
    21    21    22    1
    22    22    23    1
    23    22    24    1
    24    22    25    1
    25    16    17    1
    26    17    18    1
    27    12     1    1
    28    18    13    1
    29    11     3    1
    30    10     6    1
    31    28    29    1
    32    19    20    1
@<TRIPOS>MOLECULE
*****
 29 32 0 0 0
SMALL
GASTEIGER

@<TRIPOS>ATOM
      1 C           5.9538   -2.9277   26.5919 C.2     1  UNL1        0.3270
      2 N           6.3919   -3.6588   27.8262 N.2     1  UNL1       -0.0380
      3 C           7.1996   -4.8482   27.3983 C.2     1  UNL1        0.2637
      4 C           7.8873   -5.9281   28.1797 C.2     1  UNL1        0.2821
      5 N           8.6362   -7.0121   27.4625 N.2     1  UNL1       -0.0268
      6 C           8.6972   -7.0160   25.9637 C.2     1  UNL1        0.3760
      7 N           9.3544   -7.9470   24.9884 N.2     1  UNL1       -0.0306
      8 C           9.0729   -7.4424   23.6042 C.2     1  UNL1        0.2361
      9 C           8.2416   -6.1996   23.7240 C.2     1  UNL1        0.0583
     10 C           8.0095   -5.9360   25.1823 C.2     1  UNL1        0.1203
     11 C           7.2607   -4.8521   25.8996 C.3     1  UNL1        0.2596
     12 N           6.4907   -3.6652   25.4012 N.pl3   1  UNL1       -0.1887
     13 C           6.2925   -3.2828   23.9644 C.3     1  UNL1        0.1606
     14 C           4.9596   -3.4931   23.3093 C.3     1  UNL1        0.0480
     15 C           4.7614   -3.1108   21.8724 C.3     1  UNL1        0.0198
     16 C           5.8961   -2.5181   21.0907 C.3     1  UNL1        0.0545
     17 C           7.2290   -2.3078   21.7457 C.3     1  UNL1        0.0198
     18 C           7.4272   -2.6901   23.1825 C.3     1  UNL1        0.0480
     19 N           5.6978   -2.1358   19.6539 N.3     1  UNL1       -0.2914
     20 H           6.5614   -1.6883   19.3464 H       1  UNL1        0.1235
     21 C           5.3691   -3.1877   18.6363 C.3     1  UNL1        0.1731
     22 C           4.0591   -3.9152   18.7060 C.3     1  UNL1        0.4118
     23 F           2.7493   -4.6427   18.7757 F       1  UNL1       -0.1685
     24 F           4.7691   -5.2158   18.4726 F       1  UNL1       -0.1685
     25 F           3.3492   -2.6146   18.9394 F       1  UNL1       -0.1685
     26 C           5.7898   -0.3398   26.4304 C.3     1  UNL1        0.0450
     27 C           5.1244   -1.6784   26.5549 C.3     1  UNL1        0.2165
     28 O           3.6297   -1.7677   26.6424 O.3     1  UNL1       -0.3737
     29 H           3.3652   -2.6979   26.7181 H       1  UNL1        0.2111
@<TRIPOS>BOND
     1    27    26    1
     2    27    28    1
     3    27     1    1
     4     1     2    2
     5     2     3    1
     6     3     4    2
     7     4     5    1
     8     5     6    2
     9     6     7    1
    10     7     8    2
    11     8     9    1
    12     9    10    2
    13    10    11    1
    14    11    12    1
    15    13    12    1
    16    13    14    1
    17    14    15    1
    18    15    16    1
    19    16    19    1
    20    19    21    1
    21    21    22    1
    22    22    23    1
    23    22    24    1
    24    22    25    1
    25    16    17    1
    26    17    18    1
    27    12     1    1
    28    18    13    1
    29    11     3    1
    30    10     6    1
    31    28    29    1
    32    19    20    1
@<TRIPOS>MOLECULE
*****
 29 32 0 0 0
SMALL
GASTEIGER

@<TRIPOS>ATOM
      1 C           3.7130    1.2764   34.4031 C.2     1  UNL1        0.3270
      2 N           2.5959    2.2625   34.2305 N.2     1  UNL1       -0.0380
      3 C           1.9950    2.0492   32.8727 C.2     1  UNL1        0.2637
      4 C           0.8652    2.7284   32.1572 C.2     1  UNL1        0.2821
      5 N           0.4810    2.2898   30.7751 N.2     1  UNL1       -0.0268
      6 C           1.2268    1.1719   30.1086 C.2     1  UNL1        0.3760
      7 N           1.0762    0.5272   28.7627 N.2     1  UNL1       -0.0306
      8 C           2.1129   -0.5506   28.6464 C.2     1  UNL1        0.2361
      9 C           2.9043   -0.5719   29.9205 C.2     1  UNL1        0.0583
     10 C           2.3566    0.4927   30.8242 C.2     1  UNL1        0.1203
     11 C           2.7407    0.9313   32.2063 C.3     1  UNL1        0.2596
     12 N           3.8025    0.4537   33.1521 N.pl3   1  UNL1       -0.1887
     13 C           4.7818   -0.6524   32.8925 C.3     1  UNL1        0.1606
     14 C           4.3544   -2.0826   33.0401 C.3     1  UNL1        0.0480
     15 C           5.3338   -3.1887   32.7805 C.3     1  UNL1        0.0198
     16 C           6.7406   -2.8646   32.3733 C.3     1  UNL1        0.0545
     17 C           7.1680   -1.4344   32.2257 C.3     1  UNL1        0.0198
     18 C           6.1887   -0.3283   32.4853 C.3     1  UNL1        0.0480
     19 N           7.7199   -3.9707   32.1137 N.3     1  UNL1       -0.2914
     20 H           7.3299   -4.8140   32.5345 H       1  UNL1        0.1235
     21 C           8.0964   -4.3239   30.7053 C.3     1  UNL1        0.1731
     22 C           7.0405   -4.7622   29.7341 C.3     1  UNL1        0.4118
     23 F           5.9847   -5.2005   28.7630 F       1  UNL1       -0.1685
     24 F           7.2659   -3.5178   28.9275 F       1  UNL1       -0.1685
     25 F           6.8151   -6.0066   30.5408 F       1  UNL1       -0.1685
     26 C           4.5533   -0.1255   36.4226 C.3     1  UNL1        0.0450
     27 C           4.5871    1.1375   35.6142 C.3     1  UNL1        0.2165
     28 O           5.4949    2.2617   36.0168 O.3     1  UNL1       -0.3737
     29 H           5.3947    2.9975   35.3928 H       1  UNL1        0.2111
@<TRIPOS>BOND
     1    27    26    1
     2    27    28    1
     3    27     1    1
     4     1     2    2
     5     2     3    1
     6     3     4    2
     7     4     5    1
     8     5     6    2
     9     6     7    1
    10     7     8    2
    11     8     9    1
    12     9    10    2
    13    10    11    1
    14    11    12    1
    15    13    12    1
    16    13    14    1
    17    14    15    1
    18    15    16    1
    19    16    19    1
    20    19    21    1
    21    21    22    1
    22    22    23    1
    23    22    24    1
    24    22    25    1
    25    16    17    1
    26    17    18    1
    27    12     1    1
    28    18    13    1
    29    11     3    1
    30    10     6    1
    31    28    29    1
    32    19    20    1
