@<TRIPOS>MOLECULE
*****
 24 26 0 0 0
SMALL
GASTEIGER

@<TRIPOS>ATOM
      1 C          -4.4186  -19.8706   20.8899 C.3     1  UNL1        0.0838
      2 C          -5.3268  -19.9902   19.7021 C.3     1  UNL1        0.0437
      3 C          -6.7311  -19.7377   20.1650 C.ar    1  UNL1       -0.0247
      4 C          -8.0413  -19.7232   19.4348 C.ar    1  UNL1       -0.0045
      5 C          -9.3111  -19.4329   20.1785 C.ar    1  UNL1        0.0012
      6 C          -9.2708  -19.1571   21.6524 C.ar    1  UNL1        0.0173
      7 C          -7.9607  -19.1716   22.3825 C.ar    1  UNL1       -0.0030
      8 C          -6.6908  -19.4619   21.6388 C.ar    1  UNL1       -0.0246
      9 C          -5.2616  -19.5440   22.0868 C.3     1  UNL1        0.0438
     10 C         -10.5408  -18.8668   22.3961 C.ar    1  UNL1        0.0814
     11 C         -11.6815  -18.1892   21.6964 C.ar    1  UNL1        0.0200
     12 C         -12.9515  -17.8989   22.4401 C.ar    1  UNL1        0.0145
     13 C         -13.0806  -18.2862   23.8835 C.ar    1  UNL1        0.0768
     14 CL        -14.3505  -17.9959   24.6272 Cl      1  UNL1       -0.0806
     15 C         -11.9398  -18.9638   24.5831 C.ar    1  UNL1        0.1101
     16 N         -10.6699  -19.2541   23.8394 N.ar    1  UNL1       -0.2430
     17 N          -2.9290  -20.0465   20.8821 N.3     1  UNL1       -0.1841
     18 H          -2.6842  -20.5228   21.7502 H       1  UNL1        0.1484
     19 S          -2.0328  -18.8483   20.7780 S.O2    1  UNL1        0.0390
     20 O          -1.7116  -18.9617   22.2388 O.2     1  UNL1       -0.1576
     21 O          -2.3540  -18.7348   19.3173 O.2     1  UNL1       -0.1576
     22 C          -1.5489  -16.3487   21.2958 C.3     1  UNL1        0.0270
     23 C          -1.1365  -17.6499   20.6740 C.3     1  UNL1        0.1457
     24 C           0.1722  -17.7529   19.9483 C.3     1  UNL1        0.0270
@<TRIPOS>BOND
     1    22    23    1
     2    23    24    1
     3    23    19    1
     4    19    20    2
     5    19    21    2
     6    19    17    1
     7    17     1    1
     8     1     2    1
     9     2     3    1
    10     3     4   ar
    11     4     5   ar
    12     5     6   ar
    13     6    10    1
    14    10    11   ar
    15    11    12   ar
    16    12    13   ar
    17    13    14    1
    18    13    15   ar
    19    15    16   ar
    20     6     7   ar
    21     7     8   ar
    22     8     9    1
    23     9     1    1
    24     8     3   ar
    25    16    10   ar
    26    17    18    1
@<TRIPOS>MOLECULE
*****
 24 26 0 0 0
SMALL
GASTEIGER

@<TRIPOS>ATOM
      1 C         -10.7684   -2.9055   18.2386 C.3     1  UNL1        0.0838
      2 C         -10.8136   -1.4641   17.8257 C.3     1  UNL1        0.0437
      3 C         -12.1484   -0.9089   18.2259 C.ar    1  UNL1       -0.0247
      4 C         -12.7546    0.4547   18.0745 C.ar    1  UNL1       -0.0045
      5 C         -14.1404    0.7201   18.5832 C.ar    1  UNL1        0.0012
      6 C         -14.9202   -0.3782   19.2434 C.ar    1  UNL1        0.0173
      7 C         -14.3140   -1.7418   19.3949 C.ar    1  UNL1       -0.0030
      8 C         -12.9281   -2.0072   18.8862 C.ar    1  UNL1       -0.0246
      9 C         -12.0752   -3.2411   18.8940 C.3     1  UNL1        0.0438
     10 C         -16.3061   -0.1127   19.7522 C.ar    1  UNL1        0.0814
     11 C         -16.6628    1.2437   20.2842 C.ar    1  UNL1        0.0200
     12 C         -18.0487    1.5091   20.7929 C.ar    1  UNL1        0.0145
     13 C         -19.0779    0.4182   20.7697 C.ar    1  UNL1        0.0768
     14 CL        -20.4638    0.6835   21.2784 Cl      1  UNL1       -0.0806
     15 C         -18.7212   -0.9383   20.2377 C.ar    1  UNL1        0.1101
     16 N         -17.3353   -1.2037   19.7290 N.ar    1  UNL1       -0.2430
     17 N          -9.6182   -3.8460   18.0323 N.3     1  UNL1       -0.1841
     18 H          -9.2259   -3.6346   17.1148 H       1  UNL1        0.1484
     19 S          -9.8444   -5.3282   18.0755 S.O2    1  UNL1        0.0390
     20 O         -10.3568   -5.2910   16.6662 O.2     1  UNL1       -0.1576
     21 O          -9.3321   -5.3654   19.4848 O.2     1  UNL1       -0.1576
     22 C         -11.1450   -7.4300   17.2748 C.3     1  UNL1        0.0270
     23 C         -10.0707   -6.8105   18.1186 C.3     1  UNL1        0.1457
     24 C          -9.2226   -7.6731   19.0055 C.3     1  UNL1        0.0270
@<TRIPOS>BOND
     1    22    23    1
     2    23    24    1
     3    23    19    1
     4    19    20    2
     5    19    21    2
     6    19    17    1
     7    17     1    1
     8     1     2    1
     9     2     3    1
    10     3     4   ar
    11     4     5   ar
    12     5     6   ar
    13     6    10    1
    14    10    11   ar
    15    11    12   ar
    16    12    13   ar
    17    13    14    1
    18    13    15   ar
    19    15    16   ar
    20     6     7   ar
    21     7     8   ar
    22     8     9    1
    23     9     1    1
    24     8     3   ar
    25    16    10   ar
    26    17    18    1
@<TRIPOS>MOLECULE
*****
 24 26 0 0 0
SMALL
GASTEIGER

@<TRIPOS>ATOM
      1 C           4.0090    1.3006   36.2182 C.3     1  UNL1        0.0838
      2 C           3.5116    1.7006   34.8608 C.3     1  UNL1        0.0437
      3 C           4.0140    0.6945   33.8680 C.ar    1  UNL1       -0.0247
      4 C           3.8402    0.5768   32.3828 C.ar    1  UNL1       -0.0045
      5 C           4.4743   -0.5626   31.6415 C.ar    1  UNL1        0.0012
      6 C           5.2822   -1.5844   32.3854 C.ar    1  UNL1        0.0173
      7 C           5.4560   -1.4667   33.8707 C.ar    1  UNL1       -0.0030
      8 C           4.8219   -0.3272   34.6119 C.ar    1  UNL1       -0.0246
      9 C           4.8188    0.0474   36.0644 C.3     1  UNL1        0.0438
     10 C           5.9163   -2.7239   31.6441 C.ar    1  UNL1        0.0814
     11 C           6.1482   -2.6203   30.1658 C.ar    1  UNL1        0.0200
     12 C           6.7823   -3.7598   29.4244 C.ar    1  UNL1        0.0145
     13 C           7.1844   -5.0028   30.1614 C.ar    1  UNL1        0.0768
     14 CL          7.8185   -6.1423   29.4201 Cl      1  UNL1       -0.0806
     15 C           6.9524   -5.1064   31.6398 C.ar    1  UNL1        0.1101
     16 N           6.3183   -3.9669   32.3811 N.ar    1  UNL1       -0.2430
     17 N           3.7433    2.0265   37.5037 N.3     1  UNL1       -0.1841
     18 H           4.5636    1.8896   38.0942 H       1  UNL1        0.1484
     19 S           2.5471    1.6672   38.3344 S.O2    1  UNL1        0.0390
     20 O           3.4305    0.9044   39.2766 O.2     1  UNL1       -0.1576
     21 O           1.6637    2.4300   37.3923 O.2     1  UNL1       -0.1576
     22 C           1.2158   -0.0767   39.7260 C.3     1  UNL1        0.0270
     23 C           1.3509    1.3079   39.1652 C.3     1  UNL1        0.1457
     24 C           0.2899    2.3333   39.4352 C.3     1  UNL1        0.0270
@<TRIPOS>BOND
     1    22    23    1
     2    23    24    1
     3    23    19    1
     4    19    20    2
     5    19    21    2
     6    19    17    1
     7    17     1    1
     8     1     2    1
     9     2     3    1
    10     3     4   ar
    11     4     5   ar
    12     5     6   ar
    13     6    10    1
    14    10    11   ar
    15    11    12   ar
    16    12    13   ar
    17    13    14    1
    18    13    15   ar
    19    15    16   ar
    20     6     7   ar
    21     7     8   ar
    22     8     9    1
    23     9     1    1
    24     8     3   ar
    25    16    10   ar
    26    17    18    1
@<TRIPOS>MOLECULE
*****
 24 26 0 0 0
SMALL
GASTEIGER

@<TRIPOS>ATOM
      1 C         -16.2043    0.7320   19.7424 C.3     1  UNL1        0.0838
      2 C         -15.0454    1.2098   18.9186 C.3     1  UNL1        0.0437
      3 C         -14.0836    0.0690   18.7657 C.ar    1  UNL1       -0.0247
      4 C         -12.7668   -0.0455   18.0567 C.ar    1  UNL1       -0.0045
      5 C         -12.0145   -1.3430   18.0769 C.ar    1  UNL1        0.0012
      6 C         -12.5790   -2.5260   18.8062 C.ar    1  UNL1        0.0173
      7 C         -13.8958   -2.4115   19.5153 C.ar    1  UNL1       -0.0030
      8 C         -14.6481   -1.1140   19.4951 C.ar    1  UNL1       -0.0246
      9 C         -15.9587   -0.7042   20.0987 C.3     1  UNL1        0.0438
     10 C         -11.8265   -3.8236   18.8264 C.ar    1  UNL1        0.0814
     11 C         -10.3290   -3.8236   18.7411 C.ar    1  UNL1        0.0200
     12 C          -9.5766   -5.1211   18.7613 C.ar    1  UNL1        0.0145
     13 C         -10.3218   -6.4186   18.8669 C.ar    1  UNL1        0.0768
     14 CL         -9.5695   -7.7161   18.8871 Cl      1  UNL1       -0.0806
     15 C         -11.8194   -6.4186   18.9523 C.ar    1  UNL1        0.1101
     16 N         -12.5718   -5.1211   18.9320 N.ar    1  UNL1       -0.2430
     17 N         -17.3990    1.5473   20.1401 N.3     1  UNL1       -0.1841
     18 H         -17.4433    2.3377   19.4970 H       1  UNL1        0.1484
     19 S         -17.4941    2.1113   21.5267 S.O2    1  UNL1        0.0390
     20 O         -16.4432    3.1258   21.1862 O.2     1  UNL1       -0.1576
     21 O         -18.5451    1.0967   21.8673 O.2     1  UNL1       -0.1576
     22 C         -18.6890    2.2293   23.8307 C.3     1  UNL1        0.0270
     23 C         -17.5893    2.6754   22.9134 C.3     1  UNL1        0.1457
     24 C         -16.5847    3.6856   23.3827 C.3     1  UNL1        0.0270
@<TRIPOS>BOND
     1    22    23    1
     2    23    24    1
     3    23    19    1
     4    19    20    2
     5    19    21    2
     6    19    17    1
     7    17     1    1
     8     1     2    1
     9     2     3    1
    10     3     4   ar
    11     4     5   ar
    12     5     6   ar
    13     6    10    1
    14    10    11   ar
    15    11    12   ar
    16    12    13   ar
    17    13    14    1
    18    13    15   ar
    19    15    16   ar
    20     6     7   ar
    21     7     8   ar
    22     8     9    1
    23     9     1    1
    24     8     3   ar
    25    16    10   ar
    26    17    18    1
@<TRIPOS>MOLECULE
*****
 24 26 0 0 0
SMALL
GASTEIGER

@<TRIPOS>ATOM
      1 C           3.9131    1.2632   36.1980 C.3     1  UNL1        0.0838
      2 C           4.6518   -0.0371   36.0828 C.3     1  UNL1        0.0437
      3 C           4.6515   -0.4442   34.6391 C.ar    1  UNL1       -0.0247
      4 C           5.2286   -1.6344   33.9317 C.ar    1  UNL1       -0.0045
      5 C           5.0667   -1.7757   32.4472 C.ar    1  UNL1        0.0012
      6 C           4.3277   -0.7269   31.6701 C.ar    1  UNL1        0.0173
      7 C           3.7507    0.4633   32.3775 C.ar    1  UNL1       -0.0030
      8 C           3.9125    0.6046   33.8620 C.ar    1  UNL1       -0.0246
      9 C           3.4562    1.6599   34.8254 C.3     1  UNL1        0.0438
     10 C           4.1659   -0.8683   30.1855 C.ar    1  UNL1        0.0814
     11 C           2.8777   -0.4674   29.5300 C.ar    1  UNL1        0.0200
     12 C           2.7159   -0.6088   28.0454 C.ar    1  UNL1        0.0145
     13 C           3.8422   -1.1511   27.2165 C.ar    1  UNL1        0.0768
     14 CL          3.6804   -1.2925   25.7320 Cl      1  UNL1       -0.0806
     15 C           5.1305   -1.5521   27.8721 C.ar    1  UNL1        0.1101
     16 N           5.2923   -1.4107   29.3566 N.ar    1  UNL1       -0.2430
     17 N           3.6734    2.0320   37.4635 N.3     1  UNL1       -0.1841
     18 H           4.5048    1.9130   38.0423 H       1  UNL1        0.1484
     19 S           2.4929    1.7034   38.3285 S.O2    1  UNL1        0.0390
     20 O           1.6180    2.5564   37.4586 O.2     1  UNL1       -0.1576
     21 O           3.3678    0.8503   39.1984 O.2     1  UNL1       -0.1576
     22 C           0.2502    2.4058   39.4364 C.3     1  UNL1        0.0270
     23 C           1.3122    1.3747   39.1935 C.3     1  UNL1        0.1457
     24 C           1.1937    0.0150   39.8157 C.3     1  UNL1        0.0270
@<TRIPOS>BOND
     1    22    23    1
     2    23    24    1
     3    23    19    1
     4    19    20    2
     5    19    21    2
     6    19    17    1
     7    17     1    1
     8     1     2    1
     9     2     3    1
    10     3     4   ar
    11     4     5   ar
    12     5     6   ar
    13     6    10    1
    14    10    11   ar
    15    11    12   ar
    16    12    13   ar
    17    13    14    1
    18    13    15   ar
    19    15    16   ar
    20     6     7   ar
    21     7     8   ar
    22     8     9    1
    23     9     1    1
    24     8     3   ar
    25    16    10   ar
    26    17    18    1
@<TRIPOS>MOLECULE
*****
 24 26 0 0 0
SMALL
GASTEIGER

@<TRIPOS>ATOM
      1 C         -14.4862    1.4716   18.6093 C.3     1  UNL1        0.0838
      2 C         -15.4413    0.4896   19.2203 C.3     1  UNL1        0.0437
      3 C         -14.7645   -0.8483   19.2662 C.ar    1  UNL1       -0.0247
      4 C         -15.2214   -2.1877   19.7632 C.ar    1  UNL1       -0.0045
      5 C         -14.3048   -3.3719   19.6777 C.ar    1  UNL1        0.0012
      6 C         -12.9313   -3.2167   19.0951 C.ar    1  UNL1        0.0173
      7 C         -12.4744   -1.8773   18.5980 C.ar    1  UNL1       -0.0030
      8 C         -13.3910   -0.6931   18.6836 C.ar    1  UNL1       -0.0246
      9 C         -13.2190    0.7407   18.2776 C.3     1  UNL1        0.0438
     10 C         -12.0147   -4.4011   19.0095 C.ar    1  UNL1        0.0814
     11 C         -10.5286   -4.1989   18.9825 C.ar    1  UNL1        0.0200
     12 C          -9.6120   -5.3833   18.8970 C.ar    1  UNL1        0.0145
     13 C         -10.1815   -6.7697   18.8384 C.ar    1  UNL1        0.0768
     14 CL         -9.2650   -7.9540   18.7529 Cl      1  UNL1       -0.0806
     15 C         -11.6677   -6.9718   18.8654 C.ar    1  UNL1        0.1101
     16 N         -12.5842   -5.7875   18.9510 N.ar    1  UNL1       -0.2430
     17 N         -14.7516    2.9287   18.3717 N.3     1  UNL1       -0.1841
     18 H         -13.8676    3.4165   18.5167 H       1  UNL1        0.1484
     19 S         -15.7819    3.6468   19.1918 S.O2    1  UNL1        0.0390
     20 O         -16.7542    3.5517   18.0536 O.2     1  UNL1       -0.1576
     21 O         -14.8097    3.7420   20.3301 O.2     1  UNL1       -0.1576
     22 C         -16.9622    4.0505   21.4709 C.3     1  UNL1        0.0270
     23 C         -16.8124    4.3650   20.0119 C.3     1  UNL1        0.1457
     24 C         -17.6930    5.3976   19.3730 C.3     1  UNL1        0.0270
@<TRIPOS>BOND
     1    22    23    1
     2    23    24    1
     3    23    19    1
     4    19    20    2
     5    19    21    2
     6    19    17    1
     7    17     1    1
     8     1     2    1
     9     2     3    1
    10     3     4   ar
    11     4     5   ar
    12     5     6   ar
    13     6    10    1
    14    10    11   ar
    15    11    12   ar
    16    12    13   ar
    17    13    14    1
    18    13    15   ar
    19    15    16   ar
    20     6     7   ar
    21     7     8   ar
    22     8     9    1
    23     9     1    1
    24     8     3   ar
    25    16    10   ar
    26    17    18    1
