@<TRIPOS>MOLECULE
*****
 25 25 0 0 0
SMALL
GASTEIGER

@<TRIPOS>ATOM
      1 C         -10.2698  -18.8941   20.4518 C.2     1  UNL1        0.1534
      2 O         -11.0309  -20.1250   20.8463 O.2     1  UNL1       -0.2960
      3 C         -11.0067  -17.6282   20.1284 C.3     1  UNL1        0.0937
      4 C         -11.0280  -16.4995   21.1162 C.3     1  UNL1        0.1179
      5 O          -9.9366  -15.4706   21.1029 O.3     1  UNL1       -0.3840
      6 H          -9.3022  -15.6811   20.4000 H       1  UNL1        0.2104
      7 C         -12.1406  -16.3999   22.1172 C.3     1  UNL1        0.0297
      8 C         -12.7989  -17.6450   22.6334 C.3     1  UNL1        0.0025
      9 C         -12.4230  -18.1891   23.9798 C.3     1  UNL1        0.0001
     10 C         -11.1932  -19.0346   24.1303 C.3     1  UNL1        0.0000
     11 C          -9.9727  -18.4713   24.7959 C.3     1  UNL1        0.0000
     12 C          -9.1828  -16.0084   24.5509 C.3     1  UNL1        0.0000
     13 C          -9.1453  -17.4362   24.0930 C.3     1  UNL1        0.0000
     14 C          -8.7719  -18.9291   20.3806 C.3     1  UNL1        0.0693
     15 C          -7.9817  -19.5343   21.5028 C.3     1  UNL1        0.0342
     16 C          -6.4913  -19.6590   21.3885 C.ar    1  UNL1       -0.0185
     17 C          -5.8925  -20.6350   20.4195 C.ar    1  UNL1       -0.0009
     18 C          -4.4020  -20.7597   20.3053 C.ar    1  UNL1        0.0395
     19 C          -3.5104  -19.9085   21.1599 C.ar    1  UNL1        0.1677
     20 O          -2.0200  -20.0333   21.0456 O.3     1  UNL1       -0.5029
     21 C          -4.1093  -18.9326   22.1288 C.ar    1  UNL1        0.1718
     22 C          -5.5997  -18.8078   22.2431 C.ar    1  UNL1        0.0358
     23 H          -1.6460  -20.6429   20.4403 H       1  UNL1        0.2923
     24 O          -3.2177  -18.0813   22.9835 O.3     1  UNL1       -0.4684
     25 C          -2.5428  -16.8771   22.3965 C.3     1  UNL1        0.2526
@<TRIPOS>BOND
     1    12    13    1
     2    13    11    1
     3    11    10    1
     4    10     9    1
     5     9     8    1
     6     8     7    1
     7     7     4    1
     8     4     5    1
     9     4     3    1
    10     3     1    1
    11     1     2    2
    12     1    14    1
    13    14    15    1
    14    15    16    1
    15    16    17   ar
    16    17    18   ar
    17    18    19   ar
    18    19    20    1
    19    19    21   ar
    20    21    24    1
    21    24    25    1
    22    21    22   ar
    23    22    16   ar
    24     5     6    1
    25    20    23    1
@<TRIPOS>MOLECULE
*****
 25 25 0 0 0
SMALL
GASTEIGER

@<TRIPOS>ATOM
      1 C          -9.8433  -19.1809   21.6962 C.2     1  UNL1        0.1534
      2 O         -10.9147  -18.6015   20.8209 O.2     1  UNL1       -0.2960
      3 C         -10.1948  -19.7349   23.0452 C.3     1  UNL1        0.0937
      4 C         -10.0334  -18.8847   24.2704 C.3     1  UNL1        0.1179
      5 O          -9.9193  -19.5286   25.6204 O.3     1  UNL1       -0.3840
      6 H          -9.9682  -20.4925   25.5240 H       1  UNL1        0.2104
      7 C          -9.9861  -17.3907   24.1456 C.3     1  UNL1        0.0297
      8 C          -8.7138  -16.6533   24.4413 C.3     1  UNL1        0.0025
      9 C          -8.7146  -15.5208   25.4249 C.3     1  UNL1        0.0001
     10 C          -8.1502  -15.7215   26.8002 C.3     1  UNL1        0.0000
     11 C          -6.6646  -15.7633   27.0025 C.3     1  UNL1        0.0000
     12 C          -5.1521  -15.8848   24.8935 C.3     1  UNL1        0.0000
     13 C          -5.7542  -15.0932   26.0164 C.3     1  UNL1        0.0000
     14 C          -8.4202  -19.2064   21.2226 C.3     1  UNL1        0.0693
     15 C          -7.3456  -19.7670   22.1063 C.3     1  UNL1        0.0342
     16 C          -5.9068  -19.6645   21.6948 C.ar    1  UNL1       -0.0185
     17 C          -5.3830  -20.5200   20.5796 C.ar    1  UNL1       -0.0009
     18 C          -3.9443  -20.4176   20.1680 C.ar    1  UNL1        0.0395
     19 C          -3.0293  -19.4596   20.8716 C.ar    1  UNL1        0.1677
     20 O          -1.5905  -19.3572   20.4600 O.3     1  UNL1       -0.5029
     21 C          -3.5531  -18.6042   21.9868 C.ar    1  UNL1        0.1718
     22 C          -4.9919  -18.7066   22.3984 C.ar    1  UNL1        0.0358
     23 H          -1.2633  -19.8916   19.7634 H       1  UNL1        0.2923
     24 O          -2.6381  -17.6462   22.6905 O.3     1  UNL1       -0.4684
     25 C          -2.2769  -16.3418   22.0439 C.3     1  UNL1        0.2526
@<TRIPOS>BOND
     1    12    13    1
     2    13    11    1
     3    11    10    1
     4    10     9    1
     5     9     8    1
     6     8     7    1
     7     7     4    1
     8     4     5    1
     9     4     3    1
    10     3     1    1
    11     1     2    2
    12     1    14    1
    13    14    15    1
    14    15    16    1
    15    16    17   ar
    16    17    18   ar
    17    18    19   ar
    18    19    20    1
    19    19    21   ar
    20    21    24    1
    21    24    25    1
    22    21    22   ar
    23    22    16   ar
    24     5     6    1
    25    20    23    1
@<TRIPOS>MOLECULE
*****
 25 25 0 0 0
SMALL
GASTEIGER

@<TRIPOS>ATOM
      1 C          -8.7023  -19.1817   20.4833 C.2     1  UNL1        0.1534
      2 O          -9.9909  -18.9568   19.7493 O.2     1  UNL1       -0.2960
      3 C          -8.6467  -19.0064   21.9721 C.3     1  UNL1        0.0937
      4 C          -8.5892  -17.6290   22.5634 C.3     1  UNL1        0.1179
      5 O          -7.9138  -16.5188   21.8142 O.3     1  UNL1       -0.3840
      6 H          -7.5710  -16.8583   20.9727 H       1  UNL1        0.2104
      7 C          -9.2071  -17.3620   23.9038 C.3     1  UNL1        0.0297
      8 C          -9.8436  -18.4816   24.6728 C.3     1  UNL1        0.0025
      9 C         -11.3297  -18.6787   24.6187 C.3     1  UNL1        0.0001
     10 C         -12.0397  -18.6702   23.2975 C.3     1  UNL1        0.0000
     11 C         -12.9128  -17.5095   22.9226 C.3     1  UNL1        0.0000
     12 C         -11.7187  -16.1466   21.0608 C.3     1  UNL1        0.0000
     13 C         -12.2943  -16.2298   22.4434 C.3     1  UNL1        0.0000
     14 C          -7.4692  -19.5819   19.7287 C.3     1  UNL1        0.0693
     15 C          -6.4835  -20.5267   20.3497 C.3     1  UNL1        0.0342
     16 C          -5.1750  -20.0101   20.8703 C.ar    1  UNL1       -0.0185
     17 C          -3.8945  -20.3848   20.1848 C.ar    1  UNL1       -0.0009
     18 C          -2.5860  -19.8682   20.7054 C.ar    1  UNL1        0.0395
     19 C          -2.5580  -18.9768   21.9114 C.ar    1  UNL1        0.1677
     20 O          -1.2495  -18.4602   22.4320 O.3     1  UNL1       -0.5029
     21 C          -3.8385  -18.6021   22.5969 C.ar    1  UNL1        0.1718
     22 C          -5.1469  -19.1187   22.0763 C.ar    1  UNL1        0.0358
     23 H          -0.4497  -18.6944   22.0038 H       1  UNL1        0.2923
     24 O          -3.8105  -17.7106   23.8030 O.3     1  UNL1       -0.4684
     25 C          -4.7050  -16.5083   23.8679 C.3     1  UNL1        0.2526
@<TRIPOS>BOND
     1    12    13    1
     2    13    11    1
     3    11    10    1
     4    10     9    1
     5     9     8    1
     6     8     7    1
     7     7     4    1
     8     4     5    1
     9     4     3    1
    10     3     1    1
    11     1     2    2
    12     1    14    1
    13    14    15    1
    14    15    16    1
    15    16    17   ar
    16    17    18   ar
    17    18    19   ar
    18    19    20    1
    19    19    21   ar
    20    21    24    1
    21    24    25    1
    22    21    22   ar
    23    22    16   ar
    24     5     6    1
    25    20    23    1
@<TRIPOS>MOLECULE
*****
 25 25 0 0 0
SMALL
GASTEIGER

@<TRIPOS>ATOM
      1 C          -8.5502  -18.2261   21.1329 C.2     1  UNL1        0.1534
      2 O          -7.6594  -17.0395   21.3527 O.2     1  UNL1       -0.2960
      3 C         -10.0204  -18.0291   20.9094 C.3     1  UNL1        0.0937
      4 C         -10.6724  -16.7371   21.3037 C.3     1  UNL1        0.1179
      5 O          -9.9004  -15.4533   21.2266 O.3     1  UNL1       -0.3840
      6 H          -9.0032  -15.6343   20.9053 H       1  UNL1        0.2104
      7 C         -12.0964  -16.7287   21.7749 C.3     1  UNL1        0.0297
      8 C         -12.6567  -17.9223   22.4901 C.3     1  UNL1        0.0025
      9 C         -12.2771  -18.1882   23.9167 C.3     1  UNL1        0.0001
     10 C         -11.1990  -19.1820   24.2332 C.3     1  UNL1        0.0000
     11 C          -9.8015  -18.7108   24.5068 C.3     1  UNL1        0.0000
     12 C          -8.4392  -16.4988   24.5377 C.3     1  UNL1        0.0000
     13 C          -9.5683  -17.3364   25.0605 C.3     1  UNL1        0.0000
     14 C          -7.9709  -19.6098   21.1367 C.3     1  UNL1        0.0693
     15 C          -6.7816  -19.9272   20.2796 C.3     1  UNL1        0.0342
     16 C          -5.4005  -19.5921   20.7594 C.ar    1  UNL1       -0.0185
     17 C          -5.1259  -19.4707   22.2291 C.ar    1  UNL1       -0.0009
     18 C          -3.7448  -19.1355   22.7089 C.ar    1  UNL1        0.0395
     19 C          -2.6383  -18.9218   21.7191 C.ar    1  UNL1        0.1677
     20 O          -1.2572  -18.5866   22.1989 O.3     1  UNL1       -0.5029
     21 C          -2.9128  -19.0432   20.2494 C.ar    1  UNL1        0.1718
     22 C          -4.2939  -19.3783   19.7696 C.ar    1  UNL1        0.0358
     23 H          -1.0857  -18.5108   23.1169 H       1  UNL1        0.2923
     24 O          -1.8062  -18.8294   19.2595 O.3     1  UNL1       -0.4684
     25 C          -1.7999  -17.6038   18.3948 C.3     1  UNL1        0.2526
@<TRIPOS>BOND
     1    12    13    1
     2    13    11    1
     3    11    10    1
     4    10     9    1
     5     9     8    1
     6     8     7    1
     7     7     4    1
     8     4     5    1
     9     4     3    1
    10     3     1    1
    11     1     2    2
    12     1    14    1
    13    14    15    1
    14    15    16    1
    15    16    17   ar
    16    17    18   ar
    17    18    19   ar
    18    19    20    1
    19    19    21   ar
    20    21    24    1
    21    24    25    1
    22    21    22   ar
    23    22    16   ar
    24     5     6    1
    25    20    23    1
@<TRIPOS>MOLECULE
*****
 25 25 0 0 0
SMALL
GASTEIGER

@<TRIPOS>ATOM
      1 C          -8.2565  -18.4945   21.1811 C.2     1  UNL1        0.1534
      2 O          -9.2896  -18.2237   20.1279 O.2     1  UNL1       -0.2960
      3 C          -7.8551  -17.4083   22.1346 C.3     1  UNL1        0.0937
      4 C          -8.8279  -16.3224   22.4871 C.3     1  UNL1        0.1179
      5 O          -9.1895  -15.2803   21.4705 O.3     1  UNL1       -0.3840
      6 H          -8.7098  -15.4534   20.6454 H       1  UNL1        0.2104
      7 C          -9.4393  -16.2784   23.8561 C.3     1  UNL1        0.0297
      8 C          -9.1685  -17.3830   24.8342 C.3     1  UNL1        0.0025
      9 C         -10.1782  -18.4749   25.0308 C.3     1  UNL1        0.0001
     10 C         -10.2988  -19.5758   24.0192 C.3     1  UNL1        0.0000
     11 C         -11.2889  -19.4595   22.8986 C.3     1  UNL1        0.0000
     12 C         -12.3799  -17.4052   21.7413 C.3     1  UNL1        0.0000
     13 C         -12.2995  -18.3510   22.9026 C.3     1  UNL1        0.0000
     14 C          -7.6249  -19.8513   21.2809 C.3     1  UNL1        0.0693
     15 C          -6.4499  -20.1971   20.4150 C.3     1  UNL1        0.0342
     16 C          -5.0756  -19.7313   20.7945 C.ar    1  UNL1       -0.0185
     17 C          -4.7229  -19.5337   22.2390 C.ar    1  UNL1       -0.0009
     18 C          -3.3485  -19.0679   22.6186 C.ar    1  UNL1        0.0395
     19 C          -2.3268  -18.7996   21.5536 C.ar    1  UNL1        0.1677
     20 O          -0.9524  -18.3338   21.9332 O.3     1  UNL1       -0.5029
     21 C          -2.6795  -18.9972   20.1092 C.ar    1  UNL1        0.1718
     22 C          -4.0539  -19.4630   19.7296 C.ar    1  UNL1        0.0358
     23 H          -0.7321  -18.2103   22.8355 H       1  UNL1        0.2923
     24 O          -1.6577  -18.7289   19.0442 O.3     1  UNL1       -0.4684
     25 C          -1.8433  -17.5786   18.0996 C.3     1  UNL1        0.2526
@<TRIPOS>BOND
     1    12    13    1
     2    13    11    1
     3    11    10    1
     4    10     9    1
     5     9     8    1
     6     8     7    1
     7     7     4    1
     8     4     5    1
     9     4     3    1
    10     3     1    1
    11     1     2    2
    12     1    14    1
    13    14    15    1
    14    15    16    1
    15    16    17   ar
    16    17    18   ar
    17    18    19   ar
    18    19    20    1
    19    19    21   ar
    20    21    24    1
    21    24    25    1
    22    21    22   ar
    23    22    16   ar
    24     5     6    1
    25    20    23    1
@<TRIPOS>MOLECULE
*****
 25 25 0 0 0
SMALL
GASTEIGER

@<TRIPOS>ATOM
      1 C          -8.7696  -19.9100   19.1740 C.2     1  UNL1        0.1534
      2 O          -9.0648  -20.6981   17.9324 O.2     1  UNL1       -0.2960
      3 C          -9.8782  -19.5618   20.1227 C.3     1  UNL1        0.0937
      4 C         -10.0921  -18.1356   20.5351 C.3     1  UNL1        0.1179
      5 O          -9.0661  -17.4363   21.3768 O.3     1  UNL1       -0.3840
      6 H          -8.3332  -18.0435   21.5642 H       1  UNL1        0.2104
      7 C         -11.3319  -17.4086   20.1059 C.3     1  UNL1        0.0297
      8 C         -12.4442  -17.1795   21.0858 C.3     1  UNL1        0.0025
      9 C         -12.6612  -18.1449   22.2132 C.3     1  UNL1        0.0001
     10 C         -12.2218  -17.7871   23.6020 C.3     1  UNL1        0.0000
     11 C         -11.0751  -18.5161   24.2372 C.3     1  UNL1        0.0000
     12 C          -9.2493  -20.2848   23.7003 C.3     1  UNL1        0.0000
     13 C         -10.6935  -19.8828   23.7507 C.3     1  UNL1        0.0000
     14 C          -7.3658  -19.4701   19.4671 C.3     1  UNL1        0.0693
     15 C          -6.5041  -20.2782   20.3914 C.3     1  UNL1        0.0342
     16 C          -5.3135  -19.6472   21.0503 C.ar    1  UNL1       -0.0185
     17 C          -5.4862  -18.8582   22.3142 C.ar    1  UNL1       -0.0009
     18 C          -4.2956  -18.2271   22.9731 C.ar    1  UNL1        0.0395
     19 C          -2.9322  -18.3850   22.3680 C.ar    1  UNL1        0.1677
     20 O          -1.7415  -17.7540   23.0269 O.3     1  UNL1       -0.5029
     21 C          -2.7594  -19.1740   21.1041 C.ar    1  UNL1        0.1718
     22 C          -3.9501  -19.8051   20.4452 C.ar    1  UNL1        0.0358
     23 H          -1.8495  -17.2611   23.8165 H       1  UNL1        0.2923
     24 O          -1.3960  -19.3320   20.4989 O.3     1  UNL1       -0.4684
     25 C          -0.7801  -18.1997   19.7318 C.3     1  UNL1        0.2526
@<TRIPOS>BOND
     1    12    13    1
     2    13    11    1
     3    11    10    1
     4    10     9    1
     5     9     8    1
     6     8     7    1
     7     7     4    1
     8     4     5    1
     9     4     3    1
    10     3     1    1
    11     1     2    2
    12     1    14    1
    13    14    15    1
    14    15    16    1
    15    16    17   ar
    16    17    18   ar
    17    18    19   ar
    18    19    20    1
    19    19    21   ar
    20    21    24    1
    21    24    25    1
    22    21    22   ar
    23    22    16   ar
    24     5     6    1
    25    20    23    1
@<TRIPOS>MOLECULE
*****
 25 25 0 0 0
SMALL
GASTEIGER

@<TRIPOS>ATOM
      1 C          -8.8490  -19.3157   20.4014 C.2     1  UNL1        0.1534
      2 O         -10.0783  -19.2119   19.5483 O.2     1  UNL1       -0.2960
      3 C          -8.9748  -19.3654   21.8954 C.3     1  UNL1        0.0937
      4 C         -10.2438  -19.8585   22.5251 C.3     1  UNL1        0.1179
      5 O         -11.2379  -20.6274   21.7062 O.3     1  UNL1       -0.3840
      6 H         -10.9088  -20.7167   20.7982 H       1  UNL1        0.2104
      7 C         -10.5187  -19.5826   23.9736 C.3     1  UNL1        0.0297
      8 C         -11.4341  -18.4599   24.3628 C.3     1  UNL1        0.0025
      9 C         -12.6278  -18.1369   23.5136 C.3     1  UNL1        0.0001
     10 C         -12.5947  -16.9535   22.5924 C.3     1  UNL1        0.0000
     11 C         -11.3166  -16.1943   22.3923 C.3     1  UNL1        0.0000
     12 C         -11.7017  -16.1144   19.8242 C.3     1  UNL1        0.0000
     13 C         -10.7915  -15.9617   21.0066 C.3     1  UNL1        0.0000
     14 C          -7.4938  -19.3697   19.7607 C.3     1  UNL1        0.0693
     15 C          -6.4290  -20.2584   20.3320 C.3     1  UNL1        0.0342
     16 C          -5.2384  -19.6568   21.0179 C.ar    1  UNL1       -0.0185
     17 C          -5.4139  -18.9074   22.3054 C.ar    1  UNL1       -0.0009
     18 C          -4.2232  -18.3058   22.9913 C.ar    1  UNL1        0.0395
     19 C          -2.8571  -18.4536   22.3898 C.ar    1  UNL1        0.1677
     20 O          -1.6665  -17.8520   23.0757 O.3     1  UNL1       -0.5029
     21 C          -2.6816  -19.2030   21.1024 C.ar    1  UNL1        0.1718
     22 C          -3.8723  -19.8046   20.4164 C.ar    1  UNL1        0.0358
     23 H          -1.7762  -17.3838   23.8800 H       1  UNL1        0.2923
     24 O          -1.3155  -19.3508   20.5008 O.3     1  UNL1       -0.4684
     25 C          -0.6965  -18.2060   19.7550 C.3     1  UNL1        0.2526
@<TRIPOS>BOND
     1    12    13    1
     2    13    11    1
     3    11    10    1
     4    10     9    1
     5     9     8    1
     6     8     7    1
     7     7     4    1
     8     4     5    1
     9     4     3    1
    10     3     1    1
    11     1     2    2
    12     1    14    1
    13    14    15    1
    14    15    16    1
    15    16    17   ar
    16    17    18   ar
    17    18    19   ar
    18    19    20    1
    19    19    21   ar
    20    21    24    1
    21    24    25    1
    22    21    22   ar
    23    22    16   ar
    24     5     6    1
    25    20    23    1
@<TRIPOS>MOLECULE
*****
 25 25 0 0 0
SMALL
GASTEIGER

@<TRIPOS>ATOM
      1 C          -3.2331  -19.6619   20.2539 C.2     1  UNL1        0.1534
      2 O          -2.1190  -20.2179   21.0902 O.2     1  UNL1       -0.2960
      3 C          -2.9959  -18.4556   19.3945 C.3     1  UNL1        0.0937
      4 C          -1.6498  -17.7939   19.3859 C.3     1  UNL1        0.1179
      5 O          -0.7671  -17.9050   18.1782 O.3     1  UNL1       -0.3840
      6 H          -1.2138  -18.4339   17.4988 H       1  UNL1        0.2104
      7 C          -1.1863  -17.0210   20.5850 C.3     1  UNL1        0.0297
      8 C          -2.1900  -16.4139   21.5199 C.3     1  UNL1        0.0025
      9 C          -2.5089  -17.0903   22.8202 C.3     1  UNL1        0.0001
     10 C          -3.9260  -17.4586   23.1463 C.3     1  UNL1        0.0000
     11 C          -4.6793  -16.6898   24.1910 C.3     1  UNL1        0.0000
     12 C          -6.7249  -15.1113   24.4617 C.3     1  UNL1        0.0000
     13 C          -5.4096  -15.4341   23.8171 C.3     1  UNL1        0.0000
     14 C          -4.5846  -20.3123   20.2769 C.3     1  UNL1        0.0693
     15 C          -5.5002  -20.0981   21.4455 C.3     1  UNL1        0.0342
     16 C          -6.9420  -19.7541   21.2155 C.ar    1  UNL1       -0.0185
     17 C          -7.5132  -19.8045   19.8294 C.ar    1  UNL1       -0.0009
     18 C          -8.9550  -19.4606   19.5994 C.ar    1  UNL1        0.0395
     19 C          -9.8256  -19.0662   20.7554 C.ar    1  UNL1        0.1677
     20 O         -11.2674  -18.7222   20.5254 O.3     1  UNL1       -0.5029
     21 C          -9.2545  -19.0158   22.1415 C.ar    1  UNL1        0.1718
     22 C          -7.8127  -19.3597   22.3715 C.ar    1  UNL1        0.0358
     23 H         -11.6242  -18.7537   19.6595 H       1  UNL1        0.2923
     24 O         -10.1251  -18.6214   23.2976 O.3     1  UNL1       -0.4684
     25 C          -9.6105  -17.6646   24.3318 C.3     1  UNL1        0.2526
@<TRIPOS>BOND
     1    12    13    1
     2    13    11    1
     3    11    10    1
     4    10     9    1
     5     9     8    1
     6     8     7    1
     7     7     4    1
     8     4     5    1
     9     4     3    1
    10     3     1    1
    11     1     2    2
    12     1    14    1
    13    14    15    1
    14    15    16    1
    15    16    17   ar
    16    17    18   ar
    17    18    19   ar
    18    19    20    1
    19    19    21   ar
    20    21    24    1
    21    24    25    1
    22    21    22   ar
    23    22    16   ar
    24     5     6    1
    25    20    23    1
@<TRIPOS>MOLECULE
*****
 25 25 0 0 0
SMALL
GASTEIGER

@<TRIPOS>ATOM
      1 C          -6.6803  -15.4711   24.2027 C.2     1  UNL1        0.1534
      2 O          -7.1881  -15.4024   25.6125 O.2     1  UNL1       -0.2960
      3 C          -7.6481  -15.5712   23.0610 C.3     1  UNL1        0.0937
      4 C          -8.0487  -16.9169   22.5332 C.3     1  UNL1        0.1179
      5 O          -7.6590  -17.3237   21.1429 O.3     1  UNL1       -0.3840
      6 H          -7.1558  -16.6071   20.7255 H       1  UNL1        0.2104
      7 C          -8.8390  -17.8559   23.3956 C.3     1  UNL1        0.0297
      8 C         -10.1019  -17.3859   24.0545 C.3     1  UNL1        0.0025
      9 C         -11.3678  -18.1754   23.8988 C.3     1  UNL1        0.0001
     10 C         -12.5109  -17.6116   23.1080 C.3     1  UNL1        0.0000
     11 C         -12.2586  -16.5535   22.0752 C.3     1  UNL1        0.0000
     12 C         -11.6613  -15.8935   19.6344 C.3     1  UNL1        0.0000
     13 C         -11.8174  -16.9423   20.6953 C.3     1  UNL1        0.0000
     14 C          -5.2048  -15.4398   23.9346 C.3     1  UNL1        0.0693
     15 C          -4.3936  -16.6956   24.0559 C.3     1  UNL1        0.0342
     16 C          -3.5482  -17.1565   22.9057 C.ar    1  UNL1       -0.0185
     17 C          -2.6052  -16.2004   22.2377 C.ar    1  UNL1       -0.0009
     18 C          -1.7598  -16.6613   21.0875 C.ar    1  UNL1        0.0395
     19 C          -1.8575  -18.0783   20.6054 C.ar    1  UNL1        0.1677
     20 O          -1.0121  -18.5392   19.4552 O.3     1  UNL1       -0.5029
     21 C          -2.8006  -19.0344   21.2735 C.ar    1  UNL1        0.1718
     22 C          -3.6459  -18.5735   22.4237 C.ar    1  UNL1        0.0358
     23 H          -0.4230  -17.9419   19.0379 H       1  UNL1        0.2923
     24 O          -2.8983  -20.4515   20.7914 O.3     1  UNL1       -0.4684
     25 C          -3.9942  -20.8487   19.8474 C.3     1  UNL1        0.2526
@<TRIPOS>BOND
     1    12    13    1
     2    13    11    1
     3    11    10    1
     4    10     9    1
     5     9     8    1
     6     8     7    1
     7     7     4    1
     8     4     5    1
     9     4     3    1
    10     3     1    1
    11     1     2    2
    12     1    14    1
    13    14    15    1
    14    15    16    1
    15    16    17   ar
    16    17    18   ar
    17    18    19   ar
    18    19    20    1
    19    19    21   ar
    20    21    24    1
    21    24    25    1
    22    21    22   ar
    23    22    16   ar
    24     5     6    1
    25    20    23    1
