@<TRIPOS>MOLECULE
*****
 30 33 0 0 0
SMALL
GASTEIGER

@<TRIPOS>ATOM
      1 C          -5.0309  -16.2457   23.7983 C.ar    1  UNL1        0.1730
      2 C          -3.6446  -16.5170   23.2937 C.ar    1  UNL1        0.0401
      3 C          -3.3679  -17.7519   22.4885 C.ar    1  UNL1        0.0039
      4 C          -4.4773  -18.7156   22.1880 C.ar    1  UNL1        0.0034
      5 C          -5.8636  -18.4444   22.6927 C.ar    1  UNL1        0.0406
      6 C          -6.1404  -17.2094   23.4978 C.ar    1  UNL1        0.1789
      7 C          -1.9816  -18.0232   21.9839 C.2     1  UNL1        0.0113
      8 C          -1.6685  -17.8587   20.5262 C.2     1  UNL1        0.0873
      9 S          -2.6333  -17.4318   19.4599 S.3     1  UNL1       -0.0254
     10 C          -1.8968  -17.4015   18.1535 C.2     1  UNL1        0.2832
     11 O          -2.4780  -17.0285   16.8220 O.2     1  UNL1       -0.2622
     12 N          -0.4768  -17.8097   18.4124 N.am    1  UNL1       -0.2425
     13 C          -0.3357  -18.0923   19.8788 C.2     1  UNL1        0.2583
     14 O           0.9180  -18.5313   20.5755 O.2     1  UNL1       -0.2692
     15 H           0.2373  -17.8798   17.7383 H       1  UNL1        0.1587
     16 C          -5.5009  -15.1107   26.0876 C.3     1  UNL1        0.2526
     17 O          -5.3077  -15.0108   24.6035 O.3     1  UNL1       -0.4684
     18 O          -7.5267  -16.9382   24.0025 O.3     1  UNL1       -0.4504
     19 C          -8.6310  -16.6333   23.0342 C.ar    1  UNL1        0.1454
     20 C          -8.3718  -15.7389   21.8583 C.ar    1  UNL1        0.0382
     21 C          -9.4762  -15.4340   20.8901 C.ar    1  UNL1        0.0134
     22 C         -10.8397  -16.0235   21.0978 C.ar    1  UNL1        0.0686
     23 C         -11.0990  -16.9179   22.2738 C.ar    1  UNL1        0.0126
     24 C         -12.4625  -17.5074   22.4815 C.ar    1  UNL1        0.0008
     25 C         -12.7217  -18.4018   23.6574 C.ar    1  UNL1        0.0000
     26 C         -11.6174  -18.7067   24.6257 C.ar    1  UNL1        0.0001
     27 C         -10.2538  -18.1172   24.4180 C.ar    1  UNL1        0.0031
     28 C          -9.9946  -17.2228   23.2420 C.ar    1  UNL1        0.0352
     29 C         -11.9441  -15.7186   20.1296 C.1     1  UNL1        0.1004
     30 N         -13.0484  -15.4137   19.1614 N.1     1  UNL1       -0.1908
@<TRIPOS>BOND
     1    16    17    1
     2    17     1    1
     3     1     2   ar
     4     2     3   ar
     5     3     7    1
     6     7     8    2
     7     8     9    1
     8     9    10    1
     9    10    11    2
    10    10    12   am
    11    12    13   am
    12    13    14    2
    13     3     4   ar
    14     4     5   ar
    15     5     6   ar
    16     6    18    1
    17    18    19    1
    18    19    20   ar
    19    20    21   ar
    20    21    22   ar
    21    22    29    1
    22    29    30    3
    23    22    23   ar
    24    23    24   ar
    25    24    25   ar
    26    25    26   ar
    27    26    27   ar
    28    27    28   ar
    29     6     1   ar
    30    28    19   ar
    31    13     8    1
    32    28    23   ar
    33    12    15    1
@<TRIPOS>MOLECULE
*****
 30 33 0 0 0
SMALL
GASTEIGER

@<TRIPOS>ATOM
      1 C          -5.8604  -18.4203   22.6768 C.ar    1  UNL1        0.1730
      2 C          -4.4797  -18.7025   22.1632 C.ar    1  UNL1        0.0401
      3 C          -3.3552  -17.7612   22.4785 C.ar    1  UNL1        0.0039
      4 C          -3.6115  -16.5376   23.3075 C.ar    1  UNL1        0.0034
      5 C          -4.9923  -16.2554   23.8211 C.ar    1  UNL1        0.0406
      6 C          -6.1168  -17.1967   23.5058 C.ar    1  UNL1        0.1789
      7 C          -1.9745  -18.0434   21.9649 C.2     1  UNL1        0.0113
      8 C          -1.6674  -17.8732   20.5065 C.2     1  UNL1        0.0873
      9 S          -2.6333  -17.4300   19.4480 S.3     1  UNL1       -0.0254
     10 C          -1.9034  -17.3992   18.1379 C.2     1  UNL1        0.2832
     11 O          -2.4879  -17.0122   16.8119 O.2     1  UNL1       -0.2622
     12 N          -0.4863  -17.8233   18.3868 N.am    1  UNL1       -0.2425
     13 C          -0.3404  -18.1163   19.8507 C.2     1  UNL1        0.2583
     14 O           0.9124  -18.5722   20.5380 O.2     1  UNL1       -0.2692
     15 H           0.2234  -17.8965   17.7085 H       1  UNL1        0.1587
     16 C          -7.5387  -19.4289   20.9691 C.3     1  UNL1        0.2526
     17 O          -6.9849  -19.3617   22.3615 O.3     1  UNL1       -0.4684
     18 O          -7.4975  -16.9145   24.0195 O.3     1  UNL1       -0.4504
     19 C          -8.6089  -16.6152   23.0576 C.ar    1  UNL1        0.1454
     20 C          -8.3638  -15.7112   21.8860 C.ar    1  UNL1        0.0382
     21 C          -9.4752  -15.4119   20.9242 C.ar    1  UNL1        0.0134
     22 C         -10.8317  -16.0166   21.1339 C.ar    1  UNL1        0.0686
     23 C         -11.0769  -16.9206   22.3055 C.ar    1  UNL1        0.0126
     24 C         -12.4335  -17.5253   22.5152 C.ar    1  UNL1        0.0008
     25 C         -12.6787  -18.4294   23.6868 C.ar    1  UNL1        0.0000
     26 C         -11.5673  -18.7287   24.6486 C.ar    1  UNL1        0.0001
     27 C         -10.2107  -18.1240   24.4389 C.ar    1  UNL1        0.0031
     28 C          -9.9655  -17.2200   23.2674 C.ar    1  UNL1        0.0352
     29 C         -11.9431  -15.7172   20.1720 C.1     1  UNL1        0.1004
     30 N         -13.0546  -15.4179   19.2102 N.1     1  UNL1       -0.1908
@<TRIPOS>BOND
     1    16    17    1
     2    17     1    1
     3     1     2   ar
     4     2     3   ar
     5     3     7    1
     6     7     8    2
     7     8     9    1
     8     9    10    1
     9    10    11    2
    10    10    12   am
    11    12    13   am
    12    13    14    2
    13     3     4   ar
    14     4     5   ar
    15     5     6   ar
    16     6    18    1
    17    18    19    1
    18    19    20   ar
    19    20    21   ar
    20    21    22   ar
    21    22    29    1
    22    29    30    3
    23    22    23   ar
    24    23    24   ar
    25    24    25   ar
    26    25    26   ar
    27    26    27   ar
    28    27    28   ar
    29     6     1   ar
    30    28    19   ar
    31    13     8    1
    32    28    23   ar
    33    12    15    1
@<TRIPOS>MOLECULE
*****
 30 33 0 0 0
SMALL
GASTEIGER

@<TRIPOS>ATOM
      1 C          -6.2843  -18.6629   22.6381 C.ar    1  UNL1        0.1730
      2 C          -4.8148  -18.4407   22.4355 C.ar    1  UNL1        0.0401
      3 C          -4.0112  -19.4222   21.6349 C.ar    1  UNL1        0.0039
      4 C          -4.6771  -20.6259   21.0370 C.ar    1  UNL1        0.0034
      5 C          -6.1467  -20.8482   21.2396 C.ar    1  UNL1        0.0406
      6 C          -6.9503  -19.8667   22.0402 C.ar    1  UNL1        0.1789
      7 C          -2.5417  -19.2000   21.4323 C.2     1  UNL1        0.0113
      8 C          -2.0482  -18.5476   20.1750 C.2     1  UNL1        0.0873
      9 S          -2.9003  -18.0668   19.0381 S.3     1  UNL1       -0.0254
     10 C          -1.9947  -17.4834   17.9943 C.2     1  UNL1        0.2832
     11 O          -2.4253  -16.8849   16.6881 O.2     1  UNL1       -0.2622
     12 N          -0.5827  -17.6035   18.4862 N.am    1  UNL1       -0.2425
     13 C          -0.6157  -18.2612   19.8340 C.2     1  UNL1        0.2583
     14 O           0.5746  -18.5771   20.6903 O.2     1  UNL1       -0.2692
     15 H           0.2240  -17.3034   18.0084 H       1  UNL1        0.1587
     16 C          -7.5269  -16.3884   22.8181 C.3     1  UNL1        0.2526
     17 O          -7.0879  -17.6814   23.4387 O.3     1  UNL1       -0.4684
     18 O          -8.4198  -20.0889   22.2428 O.3     1  UNL1       -0.4504
     19 C          -9.4114  -19.1260   21.6599 C.ar    1  UNL1        0.1454
     20 C          -9.1914  -18.5619   20.2876 C.ar    1  UNL1        0.0382
     21 C         -10.1829  -17.5990   19.7047 C.ar    1  UNL1        0.0134
     22 C         -11.3944  -17.2003   20.4942 C.ar    1  UNL1        0.0686
     23 C         -11.6144  -17.7645   21.8666 C.ar    1  UNL1        0.0126
     24 C         -12.8260  -17.3658   22.6560 C.ar    1  UNL1        0.0008
     25 C         -13.0459  -17.9299   24.0283 C.ar    1  UNL1        0.0000
     26 C         -12.0544  -18.8928   24.6112 C.ar    1  UNL1        0.0001
     27 C         -10.8429  -19.2915   23.8218 C.ar    1  UNL1        0.0031
     28 C         -10.6229  -18.7273   22.4494 C.ar    1  UNL1        0.0352
     29 C         -12.3860  -16.2375   19.9113 C.1     1  UNL1        0.1004
     30 N         -13.3775  -15.2746   19.3284 N.1     1  UNL1       -0.1908
@<TRIPOS>BOND
     1    16    17    1
     2    17     1    1
     3     1     2   ar
     4     2     3   ar
     5     3     7    1
     6     7     8    2
     7     8     9    1
     8     9    10    1
     9    10    11    2
    10    10    12   am
    11    12    13   am
    12    13    14    2
    13     3     4   ar
    14     4     5   ar
    15     5     6   ar
    16     6    18    1
    17    18    19    1
    18    19    20   ar
    19    20    21   ar
    20    21    22   ar
    21    22    29    1
    22    29    30    3
    23    22    23   ar
    24    23    24   ar
    25    24    25   ar
    26    25    26   ar
    27    26    27   ar
    28    27    28   ar
    29     6     1   ar
    30    28    19   ar
    31    13     8    1
    32    28    23   ar
    33    12    15    1
@<TRIPOS>MOLECULE
*****
 30 33 0 0 0
SMALL
GASTEIGER

@<TRIPOS>ATOM
      1 C          -7.0344  -18.2974   21.2507 C.ar    1  UNL1        0.1730
      2 C          -5.5710  -18.0978   21.5125 C.ar    1  UNL1        0.0401
      3 C          -4.5918  -19.1778   21.1594 C.ar    1  UNL1        0.0039
      4 C          -5.0760  -20.4574   20.5444 C.ar    1  UNL1        0.0034
      5 C          -6.5395  -20.6570   20.2826 C.ar    1  UNL1        0.0406
      6 C          -7.5187  -19.5770   20.6357 C.ar    1  UNL1        0.1789
      7 C          -3.1284  -18.9783   21.4211 C.2     1  UNL1        0.0113
      8 C          -2.2145  -18.5748   20.3022 C.2     1  UNL1        0.0873
      9 S          -2.6175  -18.3356   18.8773 S.3     1  UNL1       -0.0254
     10 C          -1.3892  -17.9526   18.1062 C.2     1  UNL1        0.2832
     11 O          -1.3329  -17.6247   16.6436 O.2     1  UNL1       -0.2622
     12 N          -0.2270  -17.9551   19.0545 N.am    1  UNL1       -0.2425
     13 C          -0.7370  -18.3397   20.4118 C.2     1  UNL1        0.2583
     14 O           0.0858  -18.4667   21.6594 O.2     1  UNL1       -0.2692
     15 H           0.7066  -17.7419   18.8262 H       1  UNL1        0.1587
     16 C          -8.0820  -16.6973   23.0091 C.3     1  UNL1        0.2526
     17 O          -8.0136  -17.2174   21.6039 O.3     1  UNL1       -0.4684
     18 O          -8.9821  -19.7766   20.3739 O.3     1  UNL1       -0.4504
     19 C          -9.9828  -19.4940   21.4550 C.ar    1  UNL1        0.1454
     20 C         -10.0029  -20.3351   22.6968 C.ar    1  UNL1        0.0382
     21 C         -11.0036  -20.0526   23.7779 C.ar    1  UNL1        0.0134
     22 C         -11.9842  -18.9289   23.6172 C.ar    1  UNL1        0.0686
     23 C         -11.9640  -18.0877   22.3754 C.ar    1  UNL1        0.0126
     24 C         -12.9445  -16.9640   22.2147 C.ar    1  UNL1        0.0008
     25 C         -12.9244  -16.1229   20.9729 C.ar    1  UNL1        0.0000
     26 C         -11.9237  -16.4055   19.8918 C.ar    1  UNL1        0.0001
     27 C         -10.9432  -17.5292   20.0525 C.ar    1  UNL1        0.0031
     28 C         -10.9633  -18.3703   21.2943 C.ar    1  UNL1        0.0352
     29 C         -12.9848  -18.6463   24.6983 C.1     1  UNL1        0.1004
     30 N         -13.9855  -18.3638   25.7794 N.1     1  UNL1       -0.1908
@<TRIPOS>BOND
     1    16    17    1
     2    17     1    1
     3     1     2   ar
     4     2     3   ar
     5     3     7    1
     6     7     8    2
     7     8     9    1
     8     9    10    1
     9    10    11    2
    10    10    12   am
    11    12    13   am
    12    13    14    2
    13     3     4   ar
    14     4     5   ar
    15     5     6   ar
    16     6    18    1
    17    18    19    1
    18    19    20   ar
    19    20    21   ar
    20    21    22   ar
    21    22    29    1
    22    29    30    3
    23    22    23   ar
    24    23    24   ar
    25    24    25   ar
    26    25    26   ar
    27    26    27   ar
    28    27    28   ar
    29     6     1   ar
    30    28    19   ar
    31    13     8    1
    32    28    23   ar
    33    12    15    1
@<TRIPOS>MOLECULE
*****
 30 33 0 0 0
SMALL
GASTEIGER

@<TRIPOS>ATOM
      1 C           2.1233    1.8169   21.6196 C.ar    1  UNL1        0.1730
      2 C           2.9409    0.5624   21.5319 C.ar    1  UNL1        0.0401
      3 C           2.4020   -0.6349   20.8066 C.ar    1  UNL1        0.0039
      4 C           1.0454   -0.5778   20.1692 C.ar    1  UNL1        0.0034
      5 C           0.2277    0.6768   20.2569 C.ar    1  UNL1        0.0406
      6 C           0.7667    1.8741   20.9821 C.ar    1  UNL1        0.1789
      7 C           3.2196   -1.8894   20.7189 C.2     1  UNL1        0.0113
      8 C           4.3503   -1.9806   19.7374 C.2     1  UNL1        0.0873
      9 S           4.7791   -0.9049   18.7840 S.3     1  UNL1       -0.0254
     10 C           5.9444   -1.4230   17.9943 C.2     1  UNL1        0.2832
     11 O           6.6879   -0.6764   16.9267 O.2     1  UNL1       -0.2622
     12 N           6.2358   -2.8189   18.4596 N.am    1  UNL1       -0.2425
     13 C           5.2506   -3.1636   19.5369 C.2     1  UNL1        0.2583
     14 O           5.1783   -4.4629   20.2828 O.2     1  UNL1       -0.2692
     15 H           6.9486   -3.4059   18.1180 H       1  UNL1        0.1587
     16 C           3.3335    4.1155   21.5791 C.3     1  UNL1        0.2526
     17 O           2.6622    3.0142   22.3449 O.3     1  UNL1       -0.4684
     18 O          -0.0510    3.1286   21.0699 O.3     1  UNL1       -0.4504
     19 C          -1.0034    3.3247   22.2120 C.ar    1  UNL1        0.1454
     20 C          -0.4843    3.3978   23.6174 C.ar    1  UNL1        0.0382
     21 C          -1.4368    3.5939   24.7594 C.ar    1  UNL1        0.0134
     22 C          -2.9083    3.7169   24.4962 C.ar    1  UNL1        0.0686
     23 C          -3.4275    3.6438   23.0907 C.ar    1  UNL1        0.0126
     24 C          -4.8990    3.7669   22.8274 C.ar    1  UNL1        0.0008
     25 C          -5.4181    3.6938   21.4220 C.ar    1  UNL1        0.0000
     26 C          -4.4657    3.4977   20.2799 C.ar    1  UNL1        0.0001
     27 C          -2.9941    3.3746   20.5432 C.ar    1  UNL1        0.0031
     28 C          -2.4750    3.4477   21.9486 C.ar    1  UNL1        0.0352
     29 C          -3.8608    3.9130   25.6382 C.1     1  UNL1        0.1004
     30 N          -4.8132    4.1091   26.7803 N.1     1  UNL1       -0.1908
@<TRIPOS>BOND
     1    16    17    1
     2    17     1    1
     3     1     2   ar
     4     2     3   ar
     5     3     7    1
     6     7     8    2
     7     8     9    1
     8     9    10    1
     9    10    11    2
    10    10    12   am
    11    12    13   am
    12    13    14    2
    13     3     4   ar
    14     4     5   ar
    15     5     6   ar
    16     6    18    1
    17    18    19    1
    18    19    20   ar
    19    20    21   ar
    20    21    22   ar
    21    22    29    1
    22    29    30    3
    23    22    23   ar
    24    23    24   ar
    25    24    25   ar
    26    25    26   ar
    27    26    27   ar
    28    27    28   ar
    29     6     1   ar
    30    28    19   ar
    31    13     8    1
    32    28    23   ar
    33    12    15    1
@<TRIPOS>MOLECULE
*****
 30 33 0 0 0
SMALL
GASTEIGER

@<TRIPOS>ATOM
      1 C           1.9317    2.0656   21.6316 C.ar    1  UNL1        0.1730
      2 C           2.6620    0.7573   21.6996 C.ar    1  UNL1        0.0401
      3 C           2.1534   -0.4264   20.9314 C.ar    1  UNL1        0.0039
      4 C           0.9145   -0.3017   20.0951 C.ar    1  UNL1        0.0034
      5 C           0.1841    1.0067   20.0270 C.ar    1  UNL1        0.0406
      6 C           0.6927    2.1904   20.7953 C.ar    1  UNL1        0.1789
      7 C           2.8838   -1.7348   20.9994 C.2     1  UNL1        0.0113
      8 C           4.0177   -2.0107   20.0570 C.2     1  UNL1        0.0873
      9 S           4.5316   -1.0795   18.9993 S.3     1  UNL1       -0.0254
     10 C           5.6683   -1.7595   18.2954 C.2     1  UNL1        0.2832
     11 O           6.4747   -1.1883   17.1671 O.2     1  UNL1       -0.2622
     12 N           5.8570   -3.1110   18.9181 N.am    1  UNL1       -0.2425
     13 C           4.8368   -3.2664   20.0068 C.2     1  UNL1        0.2583
     14 O           4.6659   -4.4664   20.8902 O.2     1  UNL1       -0.2692
     15 H           6.5318   -3.7789   18.6579 H       1  UNL1        0.1587
     16 C           1.9109    3.5354   23.7739 C.3     1  UNL1        0.2526
     17 O           2.4403    3.2493   22.3999 O.3     1  UNL1       -0.4684
     18 O          -0.0377    3.4988   20.7273 O.3     1  UNL1       -0.4504
     19 C          -1.4722    3.5352   20.2906 C.ar    1  UNL1        0.1454
     20 C          -2.5665    3.3032   21.2899 C.ar    1  UNL1        0.0382
     21 C          -4.0011    3.3396   20.8532 C.ar    1  UNL1        0.0134
     22 C          -4.3414    3.6079   19.4172 C.ar    1  UNL1        0.0686
     23 C          -3.2471    3.8399   18.4178 C.ar    1  UNL1        0.0126
     24 C          -3.5874    4.1082   16.9818 C.ar    1  UNL1        0.0008
     25 C          -2.4931    4.3402   15.9825 C.ar    1  UNL1        0.0000
     26 C          -1.0585    4.3038   16.4192 C.ar    1  UNL1        0.0001
     27 C          -0.7182    4.0355   17.8552 C.ar    1  UNL1        0.0031
     28 C          -1.8125    3.8035   18.8545 C.ar    1  UNL1        0.0352
     29 C          -5.7759    3.6442   18.9806 C.1     1  UNL1        0.1004
     30 N          -7.2105    3.6806   18.5439 N.1     1  UNL1       -0.1908
@<TRIPOS>BOND
     1    16    17    1
     2    17     1    1
     3     1     2   ar
     4     2     3   ar
     5     3     7    1
     6     7     8    2
     7     8     9    1
     8     9    10    1
     9    10    11    2
    10    10    12   am
    11    12    13   am
    12    13    14    2
    13     3     4   ar
    14     4     5   ar
    15     5     6   ar
    16     6    18    1
    17    18    19    1
    18    19    20   ar
    19    20    21   ar
    20    21    22   ar
    21    22    29    1
    22    29    30    3
    23    22    23   ar
    24    23    24   ar
    25    24    25   ar
    26    25    26   ar
    27    26    27   ar
    28    27    28   ar
    29     6     1   ar
    30    28    19   ar
    31    13     8    1
    32    28    23   ar
    33    12    15    1
@<TRIPOS>MOLECULE
*****
 30 33 0 0 0
SMALL
GASTEIGER

@<TRIPOS>ATOM
      1 C           6.1547   -1.2624   23.5909 C.ar    1  UNL1        0.1730
      2 C           4.9765   -0.6093   22.9314 C.ar    1  UNL1        0.0401
      3 C           3.9309   -1.4503   22.2609 C.ar    1  UNL1        0.0039
      4 C           4.0635   -2.9443   22.2500 C.ar    1  UNL1        0.0034
      5 C           5.2419   -3.5975   22.9096 C.ar    1  UNL1        0.0406
      6 C           6.2875   -2.7566   23.5801 C.ar    1  UNL1        0.1789
      7 C           2.7526   -0.7972   21.6013 C.2     1  UNL1        0.0113
      8 C           2.7588   -0.5590   20.1204 C.2     1  UNL1        0.0873
      9 S           3.8661   -0.9179   19.1743 S.3     1  UNL1       -0.0254
     10 C           3.4505   -0.5009   17.7946 C.2     1  UNL1        0.2832
     11 O           4.2573   -0.6707   16.5416 O.2     1  UNL1       -0.2622
     12 N           2.0863    0.1158   17.8881 N.am    1  UNL1       -0.2425
     13 C           1.6587    0.0799   19.3254 C.2     1  UNL1        0.2583
     14 O           0.3595    0.5927   19.8719 O.2     1  UNL1       -0.2692
     15 H           1.5633    0.4801   17.1377 H       1  UNL1        0.1587
     16 C           6.8061    0.5545   25.3300 C.3     1  UNL1        0.2526
     17 O           7.2003   -0.4215   24.2614 O.3     1  UNL1       -0.4684
     18 O           7.4657   -3.4097   24.2396 O.3     1  UNL1       -0.4504
     19 C           7.3452   -3.9364   25.6389 C.ar    1  UNL1        0.1454
     20 C           6.9273   -3.0213   26.7514 C.ar    1  UNL1        0.0382
     21 C           6.8068   -3.5481   28.1507 C.ar    1  UNL1        0.0134
     22 C           7.1043   -4.9900   28.4375 C.ar    1  UNL1        0.0686
     23 C           7.5222   -5.9053   27.3249 C.ar    1  UNL1        0.0126
     24 C           7.8197   -7.3472   27.6116 C.ar    1  UNL1        0.0008
     25 C           8.2377   -8.2624   26.4991 C.ar    1  UNL1        0.0000
     26 C           8.3581   -7.7356   25.0998 C.ar    1  UNL1        0.0001
     27 C           8.0607   -6.2936   24.8131 C.ar    1  UNL1        0.0031
     28 C           7.6427   -5.3785   25.9256 C.ar    1  UNL1        0.0352
     29 C           6.9838   -5.5168   29.8367 C.1     1  UNL1        0.1004
     30 N           6.8633   -6.0436   31.2360 N.1     1  UNL1       -0.1908
@<TRIPOS>BOND
     1    16    17    1
     2    17     1    1
     3     1     2   ar
     4     2     3   ar
     5     3     7    1
     6     7     8    2
     7     8     9    1
     8     9    10    1
     9    10    11    2
    10    10    12   am
    11    12    13   am
    12    13    14    2
    13     3     4   ar
    14     4     5   ar
    15     5     6   ar
    16     6    18    1
    17    18    19    1
    18    19    20   ar
    19    20    21   ar
    20    21    22   ar
    21    22    29    1
    22    29    30    3
    23    22    23   ar
    24    23    24   ar
    25    24    25   ar
    26    25    26   ar
    27    26    27   ar
    28    27    28   ar
    29     6     1   ar
    30    28    19   ar
    31    13     8    1
    32    28    23   ar
    33    12    15    1
@<TRIPOS>MOLECULE
*****
 30 33 0 0 0
SMALL
GASTEIGER

@<TRIPOS>ATOM
      1 C          -5.5556  -20.6822   21.0310 C.ar    1  UNL1        0.1730
      2 C          -4.0964  -20.3917   20.8408 C.ar    1  UNL1        0.0401
      3 C          -3.4581  -19.2473   21.5708 C.ar    1  UNL1        0.0039
      4 C          -4.2791  -18.3934   22.4910 C.ar    1  UNL1        0.0034
      5 C          -5.7384  -18.6838   22.6812 C.ar    1  UNL1        0.0406
      6 C          -6.3767  -19.8283   21.9512 C.ar    1  UNL1        0.1789
      7 C          -1.9989  -18.9568   21.3807 C.2     1  UNL1        0.0113
      8 C          -1.5049  -18.4251   20.0680 C.2     1  UNL1        0.0873
      9 S          -2.3469  -18.1355   18.8609 S.3     1  UNL1       -0.0254
     10 C          -1.4445  -17.6210   17.7787 C.2     1  UNL1        0.2832
     11 O          -1.8676  -17.2075   16.4004 O.2     1  UNL1       -0.2622
     12 N          -0.0447  -17.5926   18.3170 N.am    1  UNL1       -0.2425
     13 C          -0.0820  -18.0895   19.7319 C.2     1  UNL1        0.2583
     14 O           1.0966  -18.2268   20.6494 O.2     1  UNL1       -0.2692
     15 H           0.7576  -17.2992   17.8277 H       1  UNL1        0.1587
     16 C          -6.9423  -21.5783   19.0250 C.3     1  UNL1        0.2526
     17 O          -6.1939  -21.8266   20.3010 O.3     1  UNL1       -0.4684
     18 O          -7.8359  -20.1187   22.1414 O.3     1  UNL1       -0.4504
     19 C          -8.8661  -19.1823   21.5829 C.ar    1  UNL1        0.1454
     20 C          -9.4217  -19.4118   20.2087 C.ar    1  UNL1        0.0382
     21 C         -10.4518  -18.4754   19.6502 C.ar    1  UNL1        0.0134
     22 C         -10.9264  -17.3095   20.4660 C.ar    1  UNL1        0.0686
     23 C         -10.3707  -17.0800   21.8403 C.ar    1  UNL1        0.0126
     24 C         -10.8452  -15.9141   22.6560 C.ar    1  UNL1        0.0008
     25 C         -10.2896  -15.6846   24.0303 C.ar    1  UNL1        0.0000
     26 C          -9.2595  -16.6210   24.5887 C.ar    1  UNL1        0.0001
     27 C          -8.7849  -17.7869   23.7730 C.ar    1  UNL1        0.0031
     28 C          -9.3406  -18.0164   22.3988 C.ar    1  UNL1        0.0352
     29 C         -11.9565  -16.3731   19.9075 C.1     1  UNL1        0.1004
     30 N         -12.9867  -15.4366   19.3490 N.1     1  UNL1       -0.1908
@<TRIPOS>BOND
     1    16    17    1
     2    17     1    1
     3     1     2   ar
     4     2     3   ar
     5     3     7    1
     6     7     8    2
     7     8     9    1
     8     9    10    1
     9    10    11    2
    10    10    12   am
    11    12    13   am
    12    13    14    2
    13     3     4   ar
    14     4     5   ar
    15     5     6   ar
    16     6    18    1
    17    18    19    1
    18    19    20   ar
    19    20    21   ar
    20    21    22   ar
    21    22    29    1
    22    29    30    3
    23    22    23   ar
    24    23    24   ar
    25    24    25   ar
    26    25    26   ar
    27    26    27   ar
    28    27    28   ar
    29     6     1   ar
    30    28    19   ar
    31    13     8    1
    32    28    23   ar
    33    12    15    1
@<TRIPOS>MOLECULE
*****
 30 33 0 0 0
SMALL
GASTEIGER

@<TRIPOS>ATOM
      1 C           2.0197    2.3745   21.3806 C.ar    1  UNL1        0.1730
      2 C           2.7528    1.0763   21.5451 C.ar    1  UNL1        0.0401
      3 C           2.1756   -0.1879   20.9807 C.ar    1  UNL1        0.0039
      4 C           0.8651   -0.1539   20.2517 C.ar    1  UNL1        0.0034
      5 C           0.1319    1.1444   20.0871 C.ar    1  UNL1        0.0406
      6 C           0.7092    2.4085   20.6515 C.ar    1  UNL1        0.1789
      7 C           2.9087   -1.4861   21.1453 C.2     1  UNL1        0.0113
      8 C           4.0176   -1.8461   20.2015 C.2     1  UNL1        0.0873
      9 S           4.5024   -1.0131   19.0521 S.3     1  UNL1       -0.0254
     10 C           5.6208   -1.7545   18.3816 C.2     1  UNL1        0.2832
     11 O           6.3966   -1.2868   17.1861 O.2     1  UNL1       -0.2622
     12 N           5.8272   -3.0457   19.1166 N.am    1  UNL1       -0.2425
     13 C           4.8364   -3.1024   20.2413 C.2     1  UNL1        0.2583
     14 O           4.6900   -4.2191   21.2319 O.2     1  UNL1       -0.2692
     15 H           6.4956   -3.7349   18.8989 H       1  UNL1        0.1587
     16 C           2.2134    4.0881   23.3237 C.3     1  UNL1        0.2526
     17 O           2.5970    3.6386   21.9450 O.3     1  UNL1       -0.4684
     18 O          -0.0240    3.7067   20.4870 O.3     1  UNL1       -0.4504
     19 C          -1.4728    3.7058   20.0984 C.ar    1  UNL1        0.1454
     20 C          -1.8620    3.8175   18.6541 C.ar    1  UNL1        0.0382
     21 C          -3.3108    3.8166   18.2656 C.ar    1  UNL1        0.0134
     22 C          -4.3704    3.7041   19.3213 C.ar    1  UNL1        0.0686
     23 C          -3.9812    3.5924   20.7657 C.ar    1  UNL1        0.0126
     24 C          -5.0408    3.4799   21.8214 C.ar    1  UNL1        0.0008
     25 C          -4.6515    3.3682   23.2657 C.ar    1  UNL1        0.0000
     26 C          -3.2027    3.3691   23.6542 C.ar    1  UNL1        0.0001
     27 C          -2.1432    3.4816   22.5985 C.ar    1  UNL1        0.0031
     28 C          -2.5324    3.5933   21.1542 C.ar    1  UNL1        0.0352
     29 C          -5.8192    3.7032   18.9328 C.1     1  UNL1        0.1004
     30 N          -7.2680    3.7023   18.5442 N.1     1  UNL1       -0.1908
@<TRIPOS>BOND
     1    16    17    1
     2    17     1    1
     3     1     2   ar
     4     2     3   ar
     5     3     7    1
     6     7     8    2
     7     8     9    1
     8     9    10    1
     9    10    11    2
    10    10    12   am
    11    12    13   am
    12    13    14    2
    13     3     4   ar
    14     4     5   ar
    15     5     6   ar
    16     6    18    1
    17    18    19    1
    18    19    20   ar
    19    20    21   ar
    20    21    22   ar
    21    22    29    1
    22    29    30    3
    23    22    23   ar
    24    23    24   ar
    25    24    25   ar
    26    25    26   ar
    27    26    27   ar
    28    27    28   ar
    29     6     1   ar
    30    28    19   ar
    31    13     8    1
    32    28    23   ar
    33    12    15    1
