@<TRIPOS>MOLECULE
*****
 25 28 0 0 0
SMALL
GASTEIGER

@<TRIPOS>ATOM
      1 C          -7.3562  -19.6205   21.9658 C.ar    1  UNL1        0.0593
      2 C          -8.0283  -20.5159   22.9640 C.ar    1  UNL1        0.0152
      3 C          -9.4117  -20.1953   23.4471 C.ar    1  UNL1        0.0036
      4 C         -10.1230  -18.9792   22.9320 C.ar    1  UNL1        0.0291
      5 C          -9.4508  -18.0838   21.9338 C.ar    1  UNL1        0.1414
      6 F         -10.1621  -16.8678   21.4187 F       1  UNL1       -0.2041
      7 C          -8.0675  -18.4045   21.4507 C.ar    1  UNL1        0.0446
      8 O          -6.6068  -21.4603   19.3767 O.2     1  UNL1       -0.2258
      9 C          -5.6283  -20.7868   20.2926 C.2     1  UNL1        0.4088
     10 O          -4.1336  -20.8406   20.1793 O.3     1  UNL1       -0.4342
     11 C          -3.5542  -20.0282   21.2993 C.3     1  UNL1        0.2149
     12 C          -4.6909  -19.4723   22.1048 C.3     1  UNL1        0.1471
     13 N          -5.9728  -19.9411   21.4827 N.am    1  UNL1       -0.2212
     14 C          -2.0945  -19.8101   21.5668 C.3     1  UNL1        0.1745
     15 N          -1.3864  -18.6387   20.9532 N.ar    1  UNL1       -0.2264
     16 C          -1.7374  -17.1939   21.1510 C.ar    1  UNL1        0.1193
     17 C          -0.7709  -16.3688   20.3541 C.ar    1  UNL1        0.1441
     18 N           0.1775  -17.3036   19.6638 N.ar    1  UNL1       -0.1271
     19 N          -0.2029  -18.7066   20.0340 N.ar    1  UNL1       -0.0636
     20 C         -11.5064  -18.6586   23.4151 C.ar    1  UNL1        0.0213
     21 C         -12.4938  -18.0135   22.4884 C.ar    1  UNL1        0.0032
     22 C         -13.8772  -17.6929   22.9715 C.ar    1  UNL1        0.0207
     23 C         -14.2732  -18.0174   24.3814 C.ar    1  UNL1        0.0989
     24 N         -13.2858  -18.6626   25.3082 N.ar    1  UNL1       -0.2423
     25 C         -11.9024  -18.9832   24.8250 C.ar    1  UNL1        0.0989
@<TRIPOS>BOND
     1     8     9    2
     2     9    10    1
     3    10    11    1
     4    11    14    1
     5    14    15    1
     6    15    16   ar
     7    16    17   ar
     8    17    18   ar
     9    18    19   ar
    10    11    12    1
    11    12    13    1
    12    13     1    1
    13     1     2   ar
    14     2     3   ar
    15     3     4   ar
    16     4    20    1
    17    20    21   ar
    18    21    22   ar
    19    22    23   ar
    20    23    24   ar
    21    24    25   ar
    22     4     5   ar
    23     5     6    1
    24     5     7   ar
    25    13     9   am
    26     7     1   ar
    27    19    15   ar
    28    25    20   ar
@<TRIPOS>MOLECULE
*****
 25 28 0 0 0
SMALL
GASTEIGER

@<TRIPOS>ATOM
      1 C          -7.3468  -19.6348   21.8874 C.ar    1  UNL1        0.0593
      2 C          -8.1048  -18.5044   21.2570 C.ar    1  UNL1        0.0152
      3 C          -9.4933  -18.1805   21.7228 C.ar    1  UNL1        0.0036
      4 C         -10.1238  -18.9872   22.8191 C.ar    1  UNL1        0.0291
      5 C          -9.3658  -20.1176   23.4495 C.ar    1  UNL1        0.1414
      6 F          -9.9964  -20.9243   24.5457 F       1  UNL1       -0.2041
      7 C          -7.9773  -20.4415   22.9836 C.ar    1  UNL1        0.0446
      8 O          -6.5691  -21.5108   19.3328 O.2     1  UNL1       -0.2258
      9 C          -5.6007  -20.8210   20.2474 C.2     1  UNL1        0.4088
     10 O          -4.1049  -20.8723   20.1483 O.3     1  UNL1       -0.4342
     11 C          -3.5378  -20.0418   21.2613 C.3     1  UNL1        0.2149
     12 C          -4.6832  -19.4771   22.0482 C.3     1  UNL1        0.1471
     13 N          -5.9581  -19.9587   21.4215 N.am    1  UNL1       -0.2212
     14 C          -2.0811  -19.8156   21.5386 C.3     1  UNL1        0.1745
     15 N          -1.3975  -18.5912   21.0061 N.ar    1  UNL1       -0.2264
     16 C          -1.8829  -17.1789   21.1467 C.ar    1  UNL1        0.1193
     17 C          -0.8939  -16.2790   20.4669 C.ar    1  UNL1        0.1441
     18 N           0.2028  -17.1352   19.9062 N.ar    1  UNL1       -0.1271
     19 N          -0.1085  -18.5642   20.2394 N.ar    1  UNL1       -0.0636
     20 C         -11.5124  -18.6633   23.2849 C.ar    1  UNL1        0.0213
     21 C         -11.9007  -18.9082   24.7129 C.ar    1  UNL1        0.0032
     22 C         -13.2893  -18.5844   25.1788 C.ar    1  UNL1        0.0207
     23 C         -14.2896  -18.0155   24.2166 C.ar    1  UNL1        0.0989
     24 N         -13.9013  -17.7706   22.7885 N.ar    1  UNL1       -0.2423
     25 C         -12.5127  -18.0944   22.3227 C.ar    1  UNL1        0.0989
@<TRIPOS>BOND
     1     8     9    2
     2     9    10    1
     3    10    11    1
     4    11    14    1
     5    14    15    1
     6    15    16   ar
     7    16    17   ar
     8    17    18   ar
     9    18    19   ar
    10    11    12    1
    11    12    13    1
    12    13     1    1
    13     1     2   ar
    14     2     3   ar
    15     3     4   ar
    16     4    20    1
    17    20    21   ar
    18    21    22   ar
    19    22    23   ar
    20    23    24   ar
    21    24    25   ar
    22     4     5   ar
    23     5     6    1
    24     5     7   ar
    25    13     9   am
    26     7     1   ar
    27    19    15   ar
    28    25    20   ar
@<TRIPOS>MOLECULE
*****
 25 28 0 0 0
SMALL
GASTEIGER

@<TRIPOS>ATOM
      1 C          -7.2413  -17.5130   23.3202 C.ar    1  UNL1        0.0593
      2 C          -8.0282  -16.4932   24.0889 C.ar    1  UNL1        0.0152
      3 C          -9.5090  -16.6609   24.2589 C.ar    1  UNL1        0.0036
      4 C         -10.2030  -17.8483   23.6603 C.ar    1  UNL1        0.0291
      5 C          -9.4162  -18.8680   22.8916 C.ar    1  UNL1        0.1414
      6 F         -10.1102  -20.0555   22.2930 F       1  UNL1       -0.2041
      7 C          -7.9354  -18.7004   22.7216 C.ar    1  UNL1        0.0446
      8 O          -5.5107  -14.8553   24.0894 O.2     1  UNL1       -0.2258
      9 C          -4.9650  -16.1238   23.5037 C.2     1  UNL1        0.4088
     10 O          -3.5280  -16.3934   23.1687 O.3     1  UNL1       -0.4342
     11 C          -3.4352  -17.7816   22.6081 C.3     1  UNL1        0.2149
     12 C          -4.8150  -18.3700   22.5966 C.3     1  UNL1        0.1471
     13 N          -5.7604  -17.3454   23.1501 N.am    1  UNL1       -0.2212
     14 C          -2.1827  -18.4620   22.1410 C.3     1  UNL1        0.1745
     15 N          -1.6964  -18.2565   20.7369 N.ar    1  UNL1       -0.2264
     16 C          -2.5412  -17.8715   19.5588 C.ar    1  UNL1        0.1193
     17 C          -1.6469  -17.7769   18.3583 C.ar    1  UNL1        0.1441
     18 N          -0.2493  -18.1034   18.7945 N.ar    1  UNL1       -0.1271
     19 N          -0.2799  -18.3998   20.2646 N.ar    1  UNL1       -0.0636
     20 C         -11.6839  -18.0159   23.8304 C.ar    1  UNL1        0.0213
     21 C         -12.6192  -17.5617   22.7492 C.ar    1  UNL1        0.0032
     22 C         -14.1001  -17.7293   22.9193 C.ar    1  UNL1        0.0207
     23 C         -14.6457  -18.3511   24.1706 C.ar    1  UNL1        0.0989
     24 N         -13.7104  -18.8053   25.2518 N.ar    1  UNL1       -0.2423
     25 C         -12.2295  -18.6377   25.0816 C.ar    1  UNL1        0.0989
@<TRIPOS>BOND
     1     8     9    2
     2     9    10    1
     3    10    11    1
     4    11    14    1
     5    14    15    1
     6    15    16   ar
     7    16    17   ar
     8    17    18   ar
     9    18    19   ar
    10    11    12    1
    11    12    13    1
    12    13     1    1
    13     1     2   ar
    14     2     3   ar
    15     3     4   ar
    16     4    20    1
    17    20    21   ar
    18    21    22   ar
    19    22    23   ar
    20    23    24   ar
    21    24    25   ar
    22     4     5   ar
    23     5     6    1
    24     5     7   ar
    25    13     9   am
    26     7     1   ar
    27    19    15   ar
    28    25    20   ar
@<TRIPOS>MOLECULE
*****
 25 28 0 0 0
SMALL
GASTEIGER

@<TRIPOS>ATOM
      1 C          -8.0455  -18.5740   22.3786 C.ar    1  UNL1        0.0593
      2 C          -8.4789  -17.4995   23.3313 C.ar    1  UNL1        0.0152
      3 C          -9.8972  -17.4556   23.8173 C.ar    1  UNL1        0.0036
      4 C         -10.8822  -18.4861   23.3506 C.ar    1  UNL1        0.0291
      5 C         -10.4488  -19.5606   22.3979 C.ar    1  UNL1        0.1414
      6 F         -11.4338  -20.5911   21.9312 F       1  UNL1       -0.2041
      7 C          -9.0304  -19.6045   21.9119 C.ar    1  UNL1        0.0446
      8 O          -7.0860  -19.1217   19.3079 O.2     1  UNL1       -0.2258
      9 C          -6.1860  -18.8697   20.4812 C.2     1  UNL1        0.4088
     10 O          -4.6870  -18.8252   20.4490 O.3     1  UNL1       -0.4342
     11 C          -4.2016  -18.5460   21.8405 C.3     1  UNL1        0.2149
     12 C          -5.4005  -18.4179   22.7327 C.3     1  UNL1        0.1471
     13 N          -6.6270  -18.6180   21.8926 N.am    1  UNL1       -0.2212
     14 C          -2.7687  -18.4174   22.2653 C.3     1  UNL1        0.1745
     15 N          -1.7037  -18.1557   21.2420 N.ar    1  UNL1       -0.2264
     16 C          -1.1757  -16.8094   20.8435 C.ar    1  UNL1        0.1193
     17 C          -0.1254  -17.0160   19.7927 C.ar    1  UNL1        0.1441
     18 N          -0.0042  -18.4899   19.5417 N.ar    1  UNL1       -0.1271
     19 N          -0.9797  -19.1943   20.4374 N.ar    1  UNL1       -0.0636
     20 C         -12.3007  -18.4421   23.8366 C.ar    1  UNL1        0.0213
     21 C         -12.6021  -18.6529   25.2908 C.ar    1  UNL1        0.0032
     22 C         -14.0205  -18.6089   25.7768 C.ar    1  UNL1        0.0207
     23 C         -15.1375  -18.3542   24.8086 C.ar    1  UNL1        0.0989
     24 N         -14.8360  -18.1435   23.3543 N.ar    1  UNL1       -0.2423
     25 C         -13.4177  -18.1874   22.8683 C.ar    1  UNL1        0.0989
@<TRIPOS>BOND
     1     8     9    2
     2     9    10    1
     3    10    11    1
     4    11    14    1
     5    14    15    1
     6    15    16   ar
     7    16    17   ar
     8    17    18   ar
     9    18    19   ar
    10    11    12    1
    11    12    13    1
    12    13     1    1
    13     1     2   ar
    14     2     3   ar
    15     3     4   ar
    16     4    20    1
    17    20    21   ar
    18    21    22   ar
    19    22    23   ar
    20    23    24   ar
    21    24    25   ar
    22     4     5   ar
    23     5     6    1
    24     5     7   ar
    25    13     9   am
    26     7     1   ar
    27    19    15   ar
    28    25    20   ar
@<TRIPOS>MOLECULE
*****
 25 28 0 0 0
SMALL
GASTEIGER

@<TRIPOS>ATOM
      1 C         -14.0466   -1.7330   18.9850 C.ar    1  UNL1        0.0593
      2 C         -13.0737   -1.8315   17.8476 C.ar    1  UNL1        0.0152
      3 C         -12.2496   -3.0723   17.6710 C.ar    1  UNL1        0.0036
      4 C         -12.3984   -4.2146   18.6317 C.ar    1  UNL1        0.0291
      5 C         -13.3714   -4.1161   19.7691 C.ar    1  UNL1        0.1414
      6 F         -13.5202   -5.2584   20.7298 F       1  UNL1       -0.2041
      7 C         -14.1955   -2.8753   19.9457 C.ar    1  UNL1        0.0446
      8 O         -13.0967    1.3139   18.3041 O.2     1  UNL1       -0.2258
      9 C         -14.4342    0.9083   18.8487 C.2     1  UNL1        0.4088
     10 O         -15.5698    1.8319   19.1759 O.3     1  UNL1       -0.4342
     11 C         -16.7084    1.0023   19.6911 C.3     1  UNL1        0.2149
     12 C         -16.2764   -0.4341   19.6823 C.3     1  UNL1        0.1471
     13 N         -14.8708   -0.4922   19.1616 N.am    1  UNL1       -0.2212
     14 C         -18.0444    1.5185   20.1369 C.3     1  UNL1        0.1745
     15 N         -18.3195    1.7251   21.5969 N.ar    1  UNL1       -0.2264
     16 C         -17.4288    2.4397   22.5694 C.ar    1  UNL1        0.1193
     17 C         -18.0924    2.4097   23.9143 C.ar    1  UNL1        0.1441
     18 N         -19.3934    1.6765   23.7729 N.ar    1  UNL1       -0.1271
     19 N         -19.5337    1.2533   22.3407 N.ar    1  UNL1       -0.0636
     20 C         -11.5742   -5.4554   18.4551 C.ar    1  UNL1        0.0213
     21 C         -10.2500   -5.5813   19.1483 C.ar    1  UNL1        0.0032
     22 C          -9.4258   -6.8221   18.9717 C.ar    1  UNL1        0.0207
     23 C          -9.9259   -7.9370   18.1017 C.ar    1  UNL1        0.0989
     24 N         -11.2501   -7.8111   17.4084 N.ar    1  UNL1       -0.2423
     25 C         -12.0743   -6.5704   17.5851 C.ar    1  UNL1        0.0989
@<TRIPOS>BOND
     1     8     9    2
     2     9    10    1
     3    10    11    1
     4    11    14    1
     5    14    15    1
     6    15    16   ar
     7    16    17   ar
     8    17    18   ar
     9    18    19   ar
    10    11    12    1
    11    12    13    1
    12    13     1    1
    13     1     2   ar
    14     2     3   ar
    15     3     4   ar
    16     4    20    1
    17    20    21   ar
    18    21    22   ar
    19    22    23   ar
    20    23    24   ar
    21    24    25   ar
    22     4     5   ar
    23     5     6    1
    24     5     7   ar
    25    13     9   am
    26     7     1   ar
    27    19    15   ar
    28    25    20   ar
@<TRIPOS>MOLECULE
*****
 25 28 0 0 0
SMALL
GASTEIGER

@<TRIPOS>ATOM
      1 C         -13.1307   -4.4516   18.0945 C.ar    1  UNL1        0.0593
      2 C         -13.6940   -4.7776   19.4459 C.ar    1  UNL1        0.0152
      3 C         -14.4876   -6.0348   19.6443 C.ar    1  UNL1        0.0036
      4 C         -14.7180   -6.9661   18.4912 C.ar    1  UNL1        0.0291
      5 C         -14.1548   -6.6401   17.1397 C.ar    1  UNL1        0.1414
      6 F         -14.3852   -7.5714   15.9866 F       1  UNL1       -0.2041
      7 C         -13.3611   -5.3828   16.9414 C.ar    1  UNL1        0.0446
      8 O          -9.9836   -4.0307   18.8484 O.2     1  UNL1       -0.2258
      9 C         -10.8905   -3.0009   18.2427 C.2     1  UNL1        0.4088
     10 O         -10.5100   -1.5967   17.8771 O.3     1  UNL1       -0.4342
     11 C         -11.7214   -0.9223   17.3045 C.3     1  UNL1        0.2149
     12 C         -12.8505   -1.9097   17.3163 C.3     1  UNL1        0.1471
     13 N         -12.3370   -3.1943   17.8961 N.am    1  UNL1       -0.2212
     14 C         -11.7913    0.4912   16.8075 C.3     1  UNL1        0.1745
     15 N         -12.8738    1.4062   17.2985 N.ar    1  UNL1       -0.2264
     16 C         -13.5216    2.5071   16.5123 C.ar    1  UNL1        0.1193
     17 C         -14.5467    3.1622   17.3898 C.ar    1  UNL1        0.1441
     18 N         -14.5325    2.4660   18.7184 N.ar    1  UNL1       -0.1271
     19 N         -13.4986    1.3807   18.6620 N.ar    1  UNL1       -0.0636
     20 C         -15.5118   -8.2234   18.6896 C.ar    1  UNL1        0.0213
     21 C         -16.8075   -8.1812   19.4441 C.ar    1  UNL1        0.0032
     22 C         -17.6012   -9.4385   19.6425 C.ar    1  UNL1        0.0207
     23 C         -17.0991  -10.7379   19.0863 C.ar    1  UNL1        0.0989
     24 N         -15.8033  -10.7801   18.3318 N.ar    1  UNL1       -0.2423
     25 C         -15.0097   -9.5228   18.1334 C.ar    1  UNL1        0.0989
@<TRIPOS>BOND
     1     8     9    2
     2     9    10    1
     3    10    11    1
     4    11    14    1
     5    14    15    1
     6    15    16   ar
     7    16    17   ar
     8    17    18   ar
     9    18    19   ar
    10    11    12    1
    11    12    13    1
    12    13     1    1
    13     1     2   ar
    14     2     3   ar
    15     3     4   ar
    16     4    20    1
    17    20    21   ar
    18    21    22   ar
    19    22    23   ar
    20    23    24   ar
    21    24    25   ar
    22     4     5   ar
    23     5     6    1
    24     5     7   ar
    25    13     9   am
    26     7     1   ar
    27    19    15   ar
    28    25    20   ar
@<TRIPOS>MOLECULE
*****
 25 28 0 0 0
SMALL
GASTEIGER

@<TRIPOS>ATOM
      1 C         -14.3738   -1.2477   19.1855 C.ar    1  UNL1        0.0593
      2 C         -13.3163   -1.3289   18.1248 C.ar    1  UNL1        0.0152
      3 C         -12.4251   -2.5328   18.0450 C.ar    1  UNL1        0.0036
      4 C         -12.5914   -3.6555   19.0257 C.ar    1  UNL1        0.0291
      5 C         -13.6490   -3.5743   20.0864 C.ar    1  UNL1        0.1414
      6 F         -13.8153   -4.6970   21.0671 F       1  UNL1       -0.2041
      7 C         -14.5401   -2.3704   20.1663 C.ar    1  UNL1        0.0446
      8 O         -17.5168   -1.2426   20.0636 O.2     1  UNL1       -0.2258
      9 C         -16.7097   -0.0415   19.6690 C.2     1  UNL1        0.4088
     10 O         -17.2055    1.3729   19.6088 O.3     1  UNL1       -0.4342
     11 C         -16.0673    2.2448   19.1679 C.3     1  UNL1        0.2149
     12 C         -14.8680    1.3692   18.9557 C.3     1  UNL1        0.1471
     13 N         -15.2650   -0.0438   19.2654 N.am    1  UNL1       -0.2212
     14 C         -16.1192    3.7312   18.9735 C.3     1  UNL1        0.1745
     15 N         -15.2597    4.6281   19.8142 N.ar    1  UNL1       -0.2264
     16 C         -14.7855    6.0006   19.4383 C.ar    1  UNL1        0.1193
     17 C         -13.9562    6.5307   20.5702 C.ar    1  UNL1        0.1441
     18 N         -13.9178    5.4857   21.6457 N.ar    1  UNL1       -0.1271
     19 N         -14.7234    4.3098   21.1785 N.ar    1  UNL1       -0.0636
     20 C         -11.7002   -4.8594   18.9458 C.ar    1  UNL1        0.0213
     21 C         -10.2199   -4.7107   19.1368 C.ar    1  UNL1        0.0032
     22 C          -9.3286   -5.9147   19.0569 C.ar    1  UNL1        0.0207
     23 C          -9.9178   -7.2673   18.7860 C.ar    1  UNL1        0.0989
     24 N         -11.3982   -7.4159   18.5950 N.ar    1  UNL1       -0.2423
     25 C         -12.2893   -6.2120   18.6749 C.ar    1  UNL1        0.0989
@<TRIPOS>BOND
     1     8     9    2
     2     9    10    1
     3    10    11    1
     4    11    14    1
     5    14    15    1
     6    15    16   ar
     7    16    17   ar
     8    17    18   ar
     9    18    19   ar
    10    11    12    1
    11    12    13    1
    12    13     1    1
    13     1     2   ar
    14     2     3   ar
    15     3     4   ar
    16     4    20    1
    17    20    21   ar
    18    21    22   ar
    19    22    23   ar
    20    23    24   ar
    21    24    25   ar
    22     4     5   ar
    23     5     6    1
    24     5     7   ar
    25    13     9   am
    26     7     1   ar
    27    19    15   ar
    28    25    20   ar
@<TRIPOS>MOLECULE
*****
 25 28 0 0 0
SMALL
GASTEIGER

@<TRIPOS>ATOM
      1 C           4.7997   -0.9131   32.5412 C.ar    1  UNL1        0.0593
      2 C           5.0402   -2.2026   33.2686 C.ar    1  UNL1        0.0152
      3 C           5.7887   -3.3148   32.5957 C.ar    1  UNL1        0.0036
      4 C           6.2967   -3.1375   31.1955 C.ar    1  UNL1        0.0291
      5 C           6.0561   -1.8479   30.4682 C.ar    1  UNL1        0.1414
      6 F           6.5640   -1.6705   29.0680 F       1  UNL1       -0.2041
      7 C           5.3076   -0.7357   31.1410 C.ar    1  UNL1        0.0446
      8 O           2.1074    0.5451   31.4121 O.2     1  UNL1       -0.2258
      9 C           2.8137    0.8694   32.6951 C.2     1  UNL1        0.4088
     10 O           2.4065    1.9210   33.6842 O.3     1  UNL1       -0.4342
     11 C           3.3924    1.9006   34.8146 C.3     1  UNL1        0.2149
     12 C           4.4088    0.8365   34.5240 C.3     1  UNL1        0.1471
     13 N           4.0512    0.1992   33.2140 N.am    1  UNL1       -0.2212
     14 C           3.3663    2.7885   36.0233 C.3     1  UNL1        0.1745
     15 N           2.4817    2.4472   37.1857 N.ar    1  UNL1       -0.2264
     16 C           2.6435    1.2700   38.1011 C.ar    1  UNL1        0.1193
     17 C           1.5417    1.3186   39.1178 C.ar    1  UNL1        0.1441
     18 N           0.6990    2.5258   38.8308 N.ar    1  UNL1       -0.1271
     19 N           1.2798    3.2234   37.6367 N.ar    1  UNL1       -0.0636
     20 C           7.0452   -4.2498   30.5227 C.ar    1  UNL1        0.0213
     21 C           6.5816   -4.7696   29.1943 C.ar    1  UNL1        0.0032
     22 C           7.3301   -5.8819   28.5214 C.ar    1  UNL1        0.0207
     23 C           8.5422   -6.4743   29.1771 C.ar    1  UNL1        0.0989
     24 N           9.0057   -5.9544   30.5057 N.ar    1  UNL1       -0.2423
     25 C           8.2572   -4.8422   31.1784 C.ar    1  UNL1        0.0989
@<TRIPOS>BOND
     1     8     9    2
     2     9    10    1
     3    10    11    1
     4    11    14    1
     5    14    15    1
     6    15    16   ar
     7    16    17   ar
     8    17    18   ar
     9    18    19   ar
    10    11    12    1
    11    12    13    1
    12    13     1    1
    13     1     2   ar
    14     2     3   ar
    15     3     4   ar
    16     4    20    1
    17    20    21   ar
    18    21    22   ar
    19    22    23   ar
    20    23    24   ar
    21    24    25   ar
    22     4     5   ar
    23     5     6    1
    24     5     7   ar
    25    13     9   am
    26     7     1   ar
    27    19    15   ar
    28    25    20   ar
@<TRIPOS>MOLECULE
*****
 25 28 0 0 0
SMALL
GASTEIGER

@<TRIPOS>ATOM
      1 C           5.7155   -0.8562   34.4292 C.ar    1  UNL1        0.0593
      2 C           4.6900   -1.8552   33.9815 C.ar    1  UNL1        0.0152
      3 C           4.9623   -2.7279   32.7924 C.ar    1  UNL1        0.0036
      4 C           6.2601   -2.6017   32.0508 C.ar    1  UNL1        0.0291
      5 C           7.2856   -1.6027   32.4985 C.ar    1  UNL1        0.1414
      6 F           8.5833   -1.4765   31.7569 F       1  UNL1       -0.2041
      7 C           7.0133   -0.7300   33.6876 C.ar    1  UNL1        0.0446
      8 O           7.6982   -0.4231   36.9848 O.2     1  UNL1       -0.2258
      9 C           6.3546    0.2156   36.7930 C.2     1  UNL1        0.4088
     10 O           5.6864    1.1656   37.7423 O.3     1  UNL1       -0.4342
     11 C           4.3621    1.5537   37.1543 C.3     1  UNL1        0.2149
     12 C           4.2119    0.8435   35.8417 C.3     1  UNL1        0.1471
     13 N           5.4433    0.0166   35.6184 N.am    1  UNL1       -0.2212
     14 C           3.3635    2.4878   37.7708 C.3     1  UNL1        0.1745
     15 N           2.3831    1.9755   38.7839 N.ar    1  UNL1       -0.2264
     16 C           1.7931    0.5970   38.8213 C.ar    1  UNL1        0.1193
     17 C           0.8660    0.5214   39.9980 C.ar    1  UNL1        0.1441
     18 N           0.8830    1.8532   40.6879 N.ar    1  UNL1       -0.1271
     19 N           1.8206    2.7519   39.9376 N.ar    1  UNL1       -0.0636
     20 C           6.5323   -3.4745   30.8616 C.ar    1  UNL1        0.0213
     21 C           6.5808   -2.8757   29.4872 C.ar    1  UNL1        0.0032
     22 C           6.8531   -3.7485   28.2980 C.ar    1  UNL1        0.0207
     23 C           7.0768   -5.2201   28.4833 C.ar    1  UNL1        0.0989
     24 N           7.0283   -5.8189   29.8578 N.ar    1  UNL1       -0.2423
     25 C           6.7561   -4.9461   31.0469 C.ar    1  UNL1        0.0989
@<TRIPOS>BOND
     1     8     9    2
     2     9    10    1
     3    10    11    1
     4    11    14    1
     5    14    15    1
     6    15    16   ar
     7    16    17   ar
     8    17    18   ar
     9    18    19   ar
    10    11    12    1
    11    12    13    1
    12    13     1    1
    13     1     2   ar
    14     2     3   ar
    15     3     4   ar
    16     4    20    1
    17    20    21   ar
    18    21    22   ar
    19    22    23   ar
    20    23    24   ar
    21    24    25   ar
    22     4     5   ar
    23     5     6    1
    24     5     7   ar
    25    13     9   am
    26     7     1   ar
    27    19    15   ar
    28    25    20   ar
