@<TRIPOS>MOLECULE
*****
 37 40 0 0 0
SMALL
GASTEIGER

@<TRIPOS>ATOM
      1 N          -8.7189  -20.4737   20.2867 N.am    1  UNL1       -0.2903
      2 C          -7.5383  -19.5914   20.5658 C.2     1  UNL1        0.3044
      3 O          -7.1529  -18.5225   19.5867 O.2     1  UNL1       -0.2525
      4 N          -6.7433  -19.7781   21.8240 N.am    1  UNL1       -0.2683
      5 H          -8.9719  -21.1753   20.9293 H       1  UNL1        0.1509
      6 H          -6.9963  -20.4797   22.4666 H       1  UNL1        0.1564
      7 C          -5.5628  -18.8958   22.1031 C.ar    1  UNL1        0.0522
      8 C          -5.6090  -17.9185   23.2401 C.ar    1  UNL1        0.0214
      9 C          -4.4285  -17.0362   23.5191 C.ar    1  UNL1        0.0359
     10 BR         -4.4748  -16.0589   24.6561 Br      1  UNL1       -0.0490
     11 C          -3.2017  -17.1313   22.6613 C.ar    1  UNL1        0.0099
     12 C          -3.1554  -18.1086   21.5243 C.ar    1  UNL1        0.0391
     13 C          -4.3360  -18.9909   21.2452 C.ar    1  UNL1        0.0178
     14 C          -1.9286  -18.2036   20.6665 C.ar    1  UNL1        0.1839
     15 N          -0.6077  -18.7832   21.0780 N.ar    1  UNL1       -0.1081
     16 N           0.3300  -18.6735   19.9123 N.ar    1  UNL1       -0.0227
     17 N          -0.4114  -18.0261   18.7804 N.ar    1  UNL1       -0.0429
     18 N          -1.8073  -17.7357   19.2465 N.ar    1  UNL1       -0.2113
     19 C          -2.8914  -17.0906   18.4350 C.3     1  UNL1        0.1573
     20 C          -9.1246  -21.0206   17.7795 C.3     1  UNL1        0.0214
     21 C          -9.5139  -20.2870   19.0285 C.3     1  UNL1        0.0745
     22 C         -10.6984  -19.3666   19.0194 C.3     1  UNL1        0.0369
     23 C         -10.6756  -18.1069   19.8335 C.3     1  UNL1        0.0738
     24 N         -11.2790  -18.0903   21.2067 N.3     1  UNL1       -0.2726
     25 C         -12.7381  -17.7893   21.3812 C.3     1  UNL1        0.0721
     26 C         -13.3414  -17.7727   22.7544 C.3     1  UNL1        0.0174
     27 C         -12.4856  -18.0572   23.9531 C.3     1  UNL1        0.0031
     28 C         -11.0266  -18.3583   23.7786 C.3     1  UNL1        0.0204
     29 C         -10.4233  -18.3748   22.4054 C.3     1  UNL1        0.0724
     30 C         -10.1709  -18.6428   24.9772 C.3     1  UNL1        0.0277
     31 C          -9.3315  -17.5529   25.5752 C.ar    1  UNL1       -0.0220
     32 C          -8.7976  -16.4542   24.7047 C.ar    1  UNL1       -0.0020
     33 C          -7.9582  -15.3643   25.3026 C.ar    1  UNL1        0.0293
     34 C          -7.6527  -15.3731   26.7712 C.ar    1  UNL1        0.1401
     35 F          -6.8133  -14.2832   27.3692 F       1  UNL1       -0.2042
     36 C          -8.1866  -16.4718   27.6417 C.ar    1  UNL1        0.0293
     37 C          -9.0260  -17.5617   27.0437 C.ar    1  UNL1       -0.0020
@<TRIPOS>BOND
     1    21    20    1
     2    21    22    1
     3    22    23    1
     4    23    24    1
     5    24    25    1
     6    25    26    1
     7    26    27    1
     8    27    28    1
     9    28    30    1
    10    30    31    1
    11    31    32   ar
    12    32    33   ar
    13    33    34   ar
    14    34    35    1
    15    34    36   ar
    16    36    37   ar
    17    28    29    1
    18    21     1    1
    19     1     2   am
    20     2     3    2
    21     2     4   am
    22     4     7    1
    23     7     8   ar
    24     8     9   ar
    25     9    10    1
    26     9    11   ar
    27    11    12   ar
    28    12    14    1
    29    14    15   ar
    30    15    16   ar
    31    16    17   ar
    32    17    18   ar
    33    18    19    1
    34    12    13   ar
    35    29    24    1
    36    13     7   ar
    37    37    31   ar
    38    18    14   ar
    39     1     5    1
    40     4     6    1
@<TRIPOS>MOLECULE
*****
 37 40 0 0 0
SMALL
GASTEIGER

@<TRIPOS>ATOM
      1 N          -2.4365  -19.3000   19.8451 N.am    1  UNL1       -0.2903
      2 C          -3.9304  -19.1698   19.8796 C.2     1  UNL1        0.3044
      3 O          -4.5930  -17.9714   19.2675 O.2     1  UNL1       -0.2525
      4 N          -4.7616  -20.2380   20.5260 N.am    1  UNL1       -0.2683
      5 H          -2.0015  -20.0866   20.2468 H       1  UNL1        0.1509
      6 H          -4.3267  -21.0246   20.9277 H       1  UNL1        0.1564
      7 C          -6.2555  -20.1078   20.5605 C.ar    1  UNL1        0.0522
      8 C          -7.0487  -20.2327   19.2934 C.ar    1  UNL1        0.0214
      9 C          -8.5426  -20.1024   19.3278 C.ar    1  UNL1        0.0359
     10 BR         -9.3357  -20.2273   18.0608 Br      1  UNL1       -0.0490
     11 C          -9.2434  -19.8473   20.6293 C.ar    1  UNL1        0.0099
     12 C          -8.4504  -19.7225   21.8963 C.ar    1  UNL1        0.0391
     13 C          -6.9564  -19.8527   21.8619 C.ar    1  UNL1        0.0178
     14 C          -9.1512  -19.4674   23.1978 C.ar    1  UNL1        0.1839
     15 N          -9.2110  -20.4067   24.3658 N.ar    1  UNL1       -0.1081
     16 N         -10.0120  -19.7480   25.4496 N.ar    1  UNL1       -0.0227
     17 N         -10.4472  -18.4017   24.9514 N.ar    1  UNL1       -0.0429
     18 N          -9.9152  -18.2283   23.5597 N.ar    1  UNL1       -0.2113
     19 C         -10.1125  -17.0268   22.6837 C.3     1  UNL1        0.1573
     20 C          -1.8248  -17.8801   17.7572 C.3     1  UNL1        0.0214
     21 C          -1.6052  -18.2318   19.1987 C.3     1  UNL1        0.0745
     22 C          -0.5542  -17.5153   19.9938 C.3     1  UNL1        0.0369
     23 C          -0.9548  -16.5092   21.0316 C.3     1  UNL1        0.0738
     24 N          -2.0603  -16.8250   21.9951 N.3     1  UNL1       -0.2726
     25 C          -2.1143  -18.1683   22.6604 C.3     1  UNL1        0.0721
     26 C          -3.2197  -18.4842   23.6239 C.3     1  UNL1        0.0174
     27 C          -4.2710  -17.4567   23.9221 C.3     1  UNL1        0.0031
     28 C          -4.2170  -16.1134   23.2569 C.3     1  UNL1        0.0204
     29 C          -3.1116  -15.7976   22.2934 C.3     1  UNL1        0.0724
     30 C          -5.2683  -15.0859   23.5551 C.3     1  UNL1        0.0277
     31 C          -6.1827  -15.2677   24.7302 C.ar    1  UNL1       -0.0220
     32 C          -5.6131  -15.3826   26.1131 C.ar    1  UNL1       -0.0020
     33 C          -6.5274  -15.5644   27.2882 C.ar    1  UNL1        0.0293
     34 C          -8.0115  -15.6312   27.0804 C.ar    1  UNL1        0.1401
     35 F          -8.9259  -15.8130   28.2556 F       1  UNL1       -0.2042
     36 C          -8.5811  -15.5163   25.6976 C.ar    1  UNL1        0.0293
     37 C          -7.6667  -15.3345   24.5224 C.ar    1  UNL1       -0.0020
@<TRIPOS>BOND
     1    21    20    1
     2    21    22    1
     3    22    23    1
     4    23    24    1
     5    24    25    1
     6    25    26    1
     7    26    27    1
     8    27    28    1
     9    28    30    1
    10    30    31    1
    11    31    32   ar
    12    32    33   ar
    13    33    34   ar
    14    34    35    1
    15    34    36   ar
    16    36    37   ar
    17    28    29    1
    18    21     1    1
    19     1     2   am
    20     2     3    2
    21     2     4   am
    22     4     7    1
    23     7     8   ar
    24     8     9   ar
    25     9    10    1
    26     9    11   ar
    27    11    12   ar
    28    12    14    1
    29    14    15   ar
    30    15    16   ar
    31    16    17   ar
    32    17    18   ar
    33    18    19    1
    34    12    13   ar
    35    29    24    1
    36    13     7   ar
    37    37    31   ar
    38    18    14   ar
    39     1     5    1
    40     4     6    1
@<TRIPOS>MOLECULE
*****
 37 40 0 0 0
SMALL
GASTEIGER

@<TRIPOS>ATOM
      1 N          -7.2262  -16.7642   26.3169 N.am    1  UNL1       -0.2903
      2 C          -8.4471  -16.6129   25.4588 C.2     1  UNL1        0.3044
      3 O          -8.7623  -15.2881   24.8299 O.2     1  UNL1       -0.2525
      4 N          -9.3529  -17.7864   25.2298 N.am    1  UNL1       -0.2683
      5 H          -7.0193  -17.6337   26.7297 H       1  UNL1        0.1509
      6 H          -9.1461  -18.6559   25.6426 H       1  UNL1        0.1564
      7 C         -10.5739  -17.6351   24.3717 C.ar    1  UNL1        0.0522
      8 C         -11.8947  -18.1642   24.8467 C.ar    1  UNL1        0.0214
      9 C         -13.1157  -18.0129   23.9887 C.ar    1  UNL1        0.0359
     10 BR        -14.4364  -18.5420   24.4638 Br      1  UNL1       -0.0490
     11 C         -13.0159  -17.3325   22.6556 C.ar    1  UNL1        0.0099
     12 C         -11.6952  -16.8035   22.1805 C.ar    1  UNL1        0.0391
     13 C         -10.4742  -16.9547   23.0386 C.ar    1  UNL1        0.0178
     14 C         -11.5955  -16.1231   20.8474 C.ar    1  UNL1        0.1839
     15 N         -12.6653  -16.0811   19.7967 N.ar    1  UNL1       -0.1081
     16 N         -12.1393  -15.2973   18.6309 N.ar    1  UNL1       -0.0227
     17 N         -10.7446  -14.8549   18.9610 N.ar    1  UNL1       -0.0429
     18 N         -10.4085  -15.3653   20.3309 N.ar    1  UNL1       -0.2113
     19 C          -9.1129  -15.1547   21.0569 C.3     1  UNL1        0.1573
     20 C          -6.6283  -14.6070   27.6356 C.3     1  UNL1        0.0214
     21 C          -6.3203  -15.5907   26.5460 C.3     1  UNL1        0.0745
     22 C          -5.1065  -15.4010   25.6853 C.3     1  UNL1        0.0369
     23 C          -5.2292  -15.4618   24.1916 C.3     1  UNL1        0.0738
     24 N          -4.6750  -16.6361   23.4407 N.3     1  UNL1       -0.2726
     25 C          -3.2307  -16.6538   23.0361 C.3     1  UNL1        0.0721
     26 C          -2.6765  -17.8280   22.2852 C.3     1  UNL1        0.0174
     27 C          -3.5666  -18.9847   21.9389 C.3     1  UNL1        0.0031
     28 C          -5.0108  -18.9671   22.3435 C.3     1  UNL1        0.0204
     29 C          -5.5650  -17.7928   23.0944 C.3     1  UNL1        0.0724
     30 C          -5.9009  -20.1238   21.9973 C.3     1  UNL1        0.0277
     31 C          -7.2142  -19.8814   21.3143 C.ar    1  UNL1       -0.0220
     32 C          -8.4903  -19.9385   22.1007 C.ar    1  UNL1       -0.0020
     33 C          -9.8036  -19.6961   21.4177 C.ar    1  UNL1        0.0293
     34 C          -9.8408  -19.3966   19.9484 C.ar    1  UNL1        0.1401
     35 F         -11.1542  -19.1542   19.2654 F       1  UNL1       -0.2042
     36 C          -8.5648  -19.3394   19.1620 C.ar    1  UNL1        0.0293
     37 C          -7.2514  -19.5818   19.8450 C.ar    1  UNL1       -0.0020
@<TRIPOS>BOND
     1    21    20    1
     2    21    22    1
     3    22    23    1
     4    23    24    1
     5    24    25    1
     6    25    26    1
     7    26    27    1
     8    27    28    1
     9    28    30    1
    10    30    31    1
    11    31    32   ar
    12    32    33   ar
    13    33    34   ar
    14    34    35    1
    15    34    36   ar
    16    36    37   ar
    17    28    29    1
    18    21     1    1
    19     1     2   am
    20     2     3    2
    21     2     4   am
    22     4     7    1
    23     7     8   ar
    24     8     9   ar
    25     9    10    1
    26     9    11   ar
    27    11    12   ar
    28    12    14    1
    29    14    15   ar
    30    15    16   ar
    31    16    17   ar
    32    17    18   ar
    33    18    19    1
    34    12    13   ar
    35    29    24    1
    36    13     7   ar
    37    37    31   ar
    38    18    14   ar
    39     1     5    1
    40     4     6    1
@<TRIPOS>MOLECULE
*****
 37 40 0 0 0
SMALL
GASTEIGER

@<TRIPOS>ATOM
      1 N         -11.6935  -16.6099   22.7666 N.am    1  UNL1       -0.2903
      2 C         -10.3691  -16.6650   23.4686 C.2     1  UNL1        0.3044
      3 O          -9.9143  -17.9410   24.1128 O.2     1  UNL1       -0.2525
      4 N          -9.4994  -15.4442   23.5264 N.am    1  UNL1       -0.2683
      5 H         -11.9920  -15.7724   22.3438 H       1  UNL1        0.1509
      6 H          -9.7979  -14.6067   23.1036 H       1  UNL1        0.1564
      7 C          -8.1750  -15.4993   24.2284 C.ar    1  UNL1        0.0522
      8 C          -8.1134  -15.3916   25.7233 C.ar    1  UNL1        0.0214
      9 C          -6.7890  -15.4468   26.4253 C.ar    1  UNL1        0.0359
     10 BR         -6.7275  -15.3391   27.9201 Br      1  UNL1       -0.0490
     11 C          -5.5261  -15.6096   25.6325 C.ar    1  UNL1        0.0099
     12 C          -5.5877  -15.7173   24.1376 C.ar    1  UNL1        0.0391
     13 C          -6.9121  -15.6621   23.4355 C.ar    1  UNL1        0.0178
     14 C          -4.3248  -15.8801   23.3448 C.ar    1  UNL1        0.1839
     15 N          -3.8021  -14.9248   22.3130 N.ar    1  UNL1       -0.1081
     16 N          -2.5171  -15.4812   21.7751 N.ar    1  UNL1       -0.0227
     17 N          -2.2456  -16.7802   22.4743 N.ar    1  UNL1       -0.0429
     18 N          -3.3628  -17.0267   23.4444 N.ar    1  UNL1       -0.2113
     19 C          -3.4948  -18.2118   24.3544 C.3     1  UNL1        0.1573
     20 C         -13.7266  -17.9678   23.6456 C.3     1  UNL1        0.0214
     21 C         -12.5631  -17.8307   22.7088 C.3     1  UNL1        0.0745
     22 C         -12.2692  -18.9144   21.7142 C.3     1  UNL1        0.0369
     23 C         -11.1584  -19.8886   21.9728 C.3     1  UNL1        0.0738
     24 N          -9.8873  -19.8044   21.1807 N.3     1  UNL1       -0.2726
     25 C          -9.9416  -19.6375   19.6910 C.3     1  UNL1        0.0721
     26 C          -8.6706  -19.5533   18.8990 C.3     1  UNL1        0.0174
     27 C          -7.3453  -19.6360   19.5966 C.3     1  UNL1        0.0031
     28 C          -7.2910  -19.8028   21.0863 C.3     1  UNL1        0.0204
     29 C          -8.5620  -19.8871   21.8783 C.3     1  UNL1        0.0724
     30 C          -5.9657  -19.8855   21.7840 C.3     1  UNL1        0.0277
     31 C          -4.7111  -19.4972   21.0592 C.ar    1  UNL1       -0.0220
     32 C          -4.7727  -18.5169   19.9254 C.ar    1  UNL1       -0.0020
     33 C          -3.5181  -18.1286   19.2007 C.ar    1  UNL1        0.0293
     34 C          -2.2020  -18.7206   19.6097 C.ar    1  UNL1        0.1401
     35 F          -0.9474  -18.3322   18.8849 F       1  UNL1       -0.2042
     36 C          -2.1403  -19.7008   20.7434 C.ar    1  UNL1        0.0293
     37 C          -3.3949  -20.0891   21.4682 C.ar    1  UNL1       -0.0020
@<TRIPOS>BOND
     1    21    20    1
     2    21    22    1
     3    22    23    1
     4    23    24    1
     5    24    25    1
     6    25    26    1
     7    26    27    1
     8    27    28    1
     9    28    30    1
    10    30    31    1
    11    31    32   ar
    12    32    33   ar
    13    33    34   ar
    14    34    35    1
    15    34    36   ar
    16    36    37   ar
    17    28    29    1
    18    21     1    1
    19     1     2   am
    20     2     3    2
    21     2     4   am
    22     4     7    1
    23     7     8   ar
    24     8     9   ar
    25     9    10    1
    26     9    11   ar
    27    11    12   ar
    28    12    14    1
    29    14    15   ar
    30    15    16   ar
    31    16    17   ar
    32    17    18   ar
    33    18    19    1
    34    12    13   ar
    35    29    24    1
    36    13     7   ar
    37    37    31   ar
    38    18    14   ar
    39     1     5    1
    40     4     6    1
@<TRIPOS>MOLECULE
*****
 37 40 0 0 0
SMALL
GASTEIGER

@<TRIPOS>ATOM
      1 N          -9.9781  -16.3034   21.3183 N.am    1  UNL1       -0.2903
      2 C          -8.9878  -17.3260   20.8456 C.2     1  UNL1        0.3044
      3 O          -9.3456  -18.2532   19.7221 O.2     1  UNL1       -0.2525
      4 N          -7.6397  -17.4214   21.4963 N.am    1  UNL1       -0.2683
      5 H          -9.7433  -15.6948   22.0557 H       1  UNL1        0.1509
      6 H          -7.4048  -16.8128   22.2337 H       1  UNL1        0.1564
      7 C          -6.6494  -18.4440   21.0236 C.ar    1  UNL1        0.0522
      8 C          -7.0934  -19.8524   20.7600 C.ar    1  UNL1        0.0214
      9 C          -6.1031  -20.8750   20.2873 C.ar    1  UNL1        0.0359
     10 BR         -6.5472  -22.2832   20.0237 Br      1  UNL1       -0.0490
     11 C          -4.6687  -20.4893   20.0781 C.ar    1  UNL1        0.0099
     12 C          -4.2246  -19.0810   20.3417 C.ar    1  UNL1        0.0391
     13 C          -5.2150  -18.0583   20.8144 C.ar    1  UNL1        0.0178
     14 C          -2.7902  -18.6954   20.1325 C.ar    1  UNL1        0.1839
     15 N          -2.0849  -18.6060   18.8117 N.ar    1  UNL1       -0.1081
     16 N          -0.6680  -18.1867   19.0703 N.ar    1  UNL1       -0.0227
     17 N          -0.4977  -18.0171   20.5509 N.ar    1  UNL1       -0.0429
     18 N          -1.8093  -18.3314   21.2074 N.ar    1  UNL1       -0.2113
     19 C          -2.0906  -18.2892   22.6802 C.3     1  UNL1        0.1573
     20 C         -11.4549  -15.6275   19.2905 C.3     1  UNL1        0.0214
     21 C         -11.3262  -16.2080   20.6676 C.3     1  UNL1        0.0745
     22 C         -12.5457  -16.6931   21.3940 C.3     1  UNL1        0.0369
     23 C         -12.6315  -18.1211   21.8450 C.3     1  UNL1        0.0738
     24 N         -11.5810  -18.6845   22.7556 N.3     1  UNL1       -0.2726
     25 C         -10.9434  -20.0048   22.4387 C.3     1  UNL1        0.0721
     26 C          -9.8930  -20.5681   23.3493 C.3     1  UNL1        0.0174
     27 C          -9.4802  -19.8112   24.5767 C.3     1  UNL1        0.0031
     28 C         -10.1178  -18.4910   24.8936 C.3     1  UNL1        0.0204
     29 C         -11.1682  -17.9277   23.9831 C.3     1  UNL1        0.0724
     30 C          -9.7049  -17.7341   26.1211 C.3     1  UNL1        0.0277
     31 C          -8.4954  -16.8478   26.0843 C.ar    1  UNL1       -0.0220
     32 C          -7.9167  -16.4228   24.7673 C.ar    1  UNL1       -0.0020
     33 C          -6.7071  -15.5366   24.7305 C.ar    1  UNL1        0.0293
     34 C          -6.0761  -15.0752   26.0107 C.ar    1  UNL1        0.1401
     35 F          -4.8665  -14.1889   25.9739 F       1  UNL1       -0.2042
     36 C          -6.6547  -15.5002   27.3278 C.ar    1  UNL1        0.0293
     37 C          -7.8644  -16.3865   27.3646 C.ar    1  UNL1       -0.0020
@<TRIPOS>BOND
     1    21    20    1
     2    21    22    1
     3    22    23    1
     4    23    24    1
     5    24    25    1
     6    25    26    1
     7    26    27    1
     8    27    28    1
     9    28    30    1
    10    30    31    1
    11    31    32   ar
    12    32    33   ar
    13    33    34   ar
    14    34    35    1
    15    34    36   ar
    16    36    37   ar
    17    28    29    1
    18    21     1    1
    19     1     2   am
    20     2     3    2
    21     2     4   am
    22     4     7    1
    23     7     8   ar
    24     8     9   ar
    25     9    10    1
    26     9    11   ar
    27    11    12   ar
    28    12    14    1
    29    14    15   ar
    30    15    16   ar
    31    16    17   ar
    32    17    18   ar
    33    18    19    1
    34    12    13   ar
    35    29    24    1
    36    13     7   ar
    37    37    31   ar
    38    18    14   ar
    39     1     5    1
    40     4     6    1
@<TRIPOS>MOLECULE
*****
 37 40 0 0 0
SMALL
GASTEIGER

@<TRIPOS>ATOM
      1 N          -7.4319  -21.3290   19.0874 N.am    1  UNL1       -0.2903
      2 C          -6.5207  -20.2941   19.6779 C.2     1  UNL1        0.3044
      3 O          -6.9465  -18.8564   19.7204 O.2     1  UNL1       -0.2525
      4 N          -5.1837  -20.6968   20.2258 N.am    1  UNL1       -0.2683
      5 H          -7.1525  -22.2726   19.0595 H       1  UNL1        0.1509
      6 H          -4.9043  -21.6404   20.1979 H       1  UNL1        0.1564
      7 C          -4.2725  -19.6619   20.8163 C.ar    1  UNL1        0.0522
      8 C          -3.0642  -19.2041   20.0545 C.ar    1  UNL1        0.0214
      9 C          -2.1530  -18.1692   20.6449 C.ar    1  UNL1        0.0359
     10 BR         -0.9447  -17.7114   19.8831 Br      1  UNL1       -0.0490
     11 C          -2.4501  -17.5921   21.9972 C.ar    1  UNL1        0.0099
     12 C          -3.6584  -18.0499   22.7590 C.ar    1  UNL1        0.0391
     13 C          -4.5696  -19.0848   22.1686 C.ar    1  UNL1        0.0178
     14 C          -3.9555  -17.4728   24.1113 C.ar    1  UNL1        0.1839
     15 N          -3.5635  -18.0701   25.4304 N.ar    1  UNL1       -0.1081
     16 N          -4.0625  -17.1635   26.5163 N.ar    1  UNL1       -0.0227
     17 N          -4.7628  -16.0060   25.8684 N.ar    1  UNL1       -0.0429
     18 N          -4.6966  -16.1971   24.3821 N.ar    1  UNL1       -0.2113
     19 C          -5.2709  -15.2746   23.3481 C.3     1  UNL1        0.1573
     20 C          -9.0500  -21.0620   17.0723 C.3     1  UNL1        0.0214
     21 C          -8.7689  -20.9262   18.5395 C.3     1  UNL1        0.0745
     22 C          -9.8249  -20.3876   19.4587 C.3     1  UNL1        0.0369
     23 C         -10.3060  -18.9755   19.3025 C.3     1  UNL1        0.0738
     24 N         -10.8020  -18.2157   20.4970 N.3     1  UNL1       -0.2726
     25 C         -11.7386  -17.0585   20.3138 C.3     1  UNL1        0.0721
     26 C         -12.2345  -16.2987   21.5082 C.3     1  UNL1        0.0174
     27 C         -11.7939  -16.6962   22.8859 C.3     1  UNL1        0.0031
     28 C         -10.8574  -17.8534   23.0691 C.3     1  UNL1        0.0204
     29 C         -10.3614  -18.6132   21.8746 C.3     1  UNL1        0.0724
     30 C         -10.4168  -18.2509   24.4467 C.3     1  UNL1        0.0277
     31 C          -9.5623  -17.3226   25.2579 C.ar    1  UNL1       -0.0220
     32 C          -8.9980  -16.0822   24.6309 C.ar    1  UNL1       -0.0020
     33 C          -8.1435  -15.1539   25.4421 C.ar    1  UNL1        0.0293
     34 C          -7.8534  -15.4658   26.8803 C.ar    1  UNL1        0.1401
     35 F          -6.9989  -14.5374   27.6915 F       1  UNL1       -0.2042
     36 C          -8.4177  -16.7061   27.5073 C.ar    1  UNL1        0.0293
     37 C          -9.2722  -17.6345   26.6961 C.ar    1  UNL1       -0.0020
@<TRIPOS>BOND
     1    21    20    1
     2    21    22    1
     3    22    23    1
     4    23    24    1
     5    24    25    1
     6    25    26    1
     7    26    27    1
     8    27    28    1
     9    28    30    1
    10    30    31    1
    11    31    32   ar
    12    32    33   ar
    13    33    34   ar
    14    34    35    1
    15    34    36   ar
    16    36    37   ar
    17    28    29    1
    18    21     1    1
    19     1     2   am
    20     2     3    2
    21     2     4   am
    22     4     7    1
    23     7     8   ar
    24     8     9   ar
    25     9    10    1
    26     9    11   ar
    27    11    12   ar
    28    12    14    1
    29    14    15   ar
    30    15    16   ar
    31    16    17   ar
    32    17    18   ar
    33    18    19    1
    34    12    13   ar
    35    29    24    1
    36    13     7   ar
    37    37    31   ar
    38    18    14   ar
    39     1     5    1
    40     4     6    1
@<TRIPOS>MOLECULE
*****
 37 40 0 0 0
SMALL
GASTEIGER

@<TRIPOS>ATOM
      1 N         -10.8568   -5.2206   19.1885 N.am    1  UNL1       -0.2903
      2 C         -12.2901   -5.6210   19.0008 C.2     1  UNL1        0.3044
      3 O         -12.6716   -6.5381   17.8768 O.2     1  UNL1       -0.2525
      4 N         -13.3420   -5.1043   19.9371 N.am    1  UNL1       -0.2683
      5 H         -10.6064   -4.6187   19.9262 H       1  UNL1        0.1509
      6 H         -13.0916   -4.5024   20.6749 H       1  UNL1        0.1564
      7 C         -14.7753   -5.5047   19.7495 C.ar    1  UNL1        0.0522
      8 C         -15.8581   -4.4687   19.8145 C.ar    1  UNL1        0.0214
      9 C         -17.2914   -4.8691   19.6269 C.ar    1  UNL1        0.0359
     10 BR        -18.3742   -3.8331   19.6919 Br      1  UNL1       -0.0490
     11 C         -17.6420   -6.3055   19.3741 C.ar    1  UNL1        0.0099
     12 C         -16.5592   -7.3415   19.3091 C.ar    1  UNL1        0.0391
     13 C         -15.1258   -6.9411   19.4967 C.ar    1  UNL1        0.0178
     14 C         -16.9098   -8.7779   19.0563 C.ar    1  UNL1        0.1839
     15 N         -16.4647   -9.9517   19.8774 N.ar    1  UNL1       -0.1081
     16 N         -17.0468  -11.1919   19.2666 N.ar    1  UNL1       -0.0227
     17 N         -17.8516  -10.7847   18.0681 N.ar    1  UNL1       -0.0429
     18 N         -17.7669   -9.2927   17.9381 N.ar    1  UNL1       -0.2113
     19 C         -18.4239   -8.4615   16.8763 C.3     1  UNL1        0.1573
     20 C          -9.2152   -7.0999   18.4651 C.3     1  UNL1        0.0214
     21 C          -9.8050   -5.7373   18.2522 C.3     1  UNL1        0.0745
     22 C          -9.3430   -4.8913   17.1028 C.3     1  UNL1        0.0369
     23 C         -10.3477   -4.2471   16.1942 C.3     1  UNL1        0.0738
     24 N         -11.0993   -3.0313   16.6491 N.3     1  UNL1       -0.2726
     25 C         -10.3559   -1.7737   16.9893 C.3     1  UNL1        0.0721
     26 C         -11.1075   -0.5579   17.4441 C.3     1  UNL1        0.0174
     27 C         -12.6025   -0.5997   17.5587 C.3     1  UNL1        0.0031
     28 C         -13.3459   -1.8573   17.2186 C.3     1  UNL1        0.0204
     29 C         -12.5943   -3.0731   16.7638 C.3     1  UNL1        0.0724
     30 C         -14.8409   -1.8991   17.3332 C.3     1  UNL1        0.0277
     31 C         -15.5638   -0.8366   18.1068 C.ar    1  UNL1       -0.0220
     32 C         -16.1487    0.3451   17.3915 C.ar    1  UNL1       -0.0020
     33 C         -16.8716    1.4076   18.1651 C.ar    1  UNL1        0.0293
     34 C         -17.0096    1.2885   19.6540 C.ar    1  UNL1        0.1401
     35 F         -17.7326    2.3511   20.4276 F       1  UNL1       -0.2042
     36 C         -16.4248    0.1069   20.3693 C.ar    1  UNL1        0.0293
     37 C         -15.7019   -0.9557   19.5957 C.ar    1  UNL1       -0.0020
@<TRIPOS>BOND
     1    21    20    1
     2    21    22    1
     3    22    23    1
     4    23    24    1
     5    24    25    1
     6    25    26    1
     7    26    27    1
     8    27    28    1
     9    28    30    1
    10    30    31    1
    11    31    32   ar
    12    32    33   ar
    13    33    34   ar
    14    34    35    1
    15    34    36   ar
    16    36    37   ar
    17    28    29    1
    18    21     1    1
    19     1     2   am
    20     2     3    2
    21     2     4   am
    22     4     7    1
    23     7     8   ar
    24     8     9   ar
    25     9    10    1
    26     9    11   ar
    27    11    12   ar
    28    12    14    1
    29    14    15   ar
    30    15    16   ar
    31    16    17   ar
    32    17    18   ar
    33    18    19    1
    34    12    13   ar
    35    29    24    1
    36    13     7   ar
    37    37    31   ar
    38    18    14   ar
    39     1     5    1
    40     4     6    1
@<TRIPOS>MOLECULE
*****
 37 40 0 0 0
SMALL
GASTEIGER

@<TRIPOS>ATOM
      1 N           6.7707   -5.4500   32.0041 N.am    1  UNL1       -0.2903
      2 C           6.5180   -3.9741   31.9164 C.2     1  UNL1        0.3044
      3 O           7.2806   -3.1399   30.9303 O.2     1  UNL1       -0.2525
      4 N           5.5026   -3.3324   32.8149 N.am    1  UNL1       -0.2683
      5 H           6.2702   -5.9976   32.6513 H       1  UNL1        0.1509
      6 H           5.0021   -3.8799   33.4621 H       1  UNL1        0.1564
      7 C           5.2499   -1.8565   32.7272 C.ar    1  UNL1        0.0522
      8 C           6.2883   -0.8877   33.2104 C.ar    1  UNL1        0.0214
      9 C           6.0355    0.5882   33.1228 C.ar    1  UNL1        0.0359
     10 BR          7.0738    1.5569   33.6060 Br      1  UNL1       -0.0490
     11 C           4.7445    1.0955   32.5519 C.ar    1  UNL1        0.0099
     12 C           3.7061    0.1268   32.0688 C.ar    1  UNL1        0.0391
     13 C           3.9588   -1.3492   32.1564 C.ar    1  UNL1        0.0178
     14 C           2.4151    0.6341   31.4979 C.ar    1  UNL1        0.1839
     15 N           1.4472    1.5512   32.1851 N.ar    1  UNL1       -0.1081
     16 N           0.2991    1.7972   31.2515 N.ar    1  UNL1       -0.0227
     17 N           0.5575    1.0321   29.9874 N.ar    1  UNL1       -0.0429
     18 N           1.8652    0.3133   30.1397 N.ar    1  UNL1       -0.2113
     19 C           2.5098   -0.5711   29.1139 C.3     1  UNL1        0.1573
     20 C           9.0509   -6.6534   31.6841 C.3     1  UNL1        0.0214
     21 C           7.7861   -6.0918   31.1056 C.3     1  UNL1        0.0745
     22 C           7.5365   -6.1718   29.6286 C.3     1  UNL1        0.0369
     23 C           8.6521   -5.8996   28.6637 C.3     1  UNL1        0.0738
     24 N           8.4401   -6.1090   27.1935 N.3     1  UNL1       -0.2726
     25 C           8.3091   -7.4990   26.6452 C.3     1  UNL1        0.0721
     26 C           8.0970   -7.7083   25.1751 C.3     1  UNL1        0.0174
     27 C           8.0159   -6.5277   24.2534 C.3     1  UNL1        0.0031
     28 C           8.1469   -5.1377   24.8018 C.3     1  UNL1        0.0204
     29 C           8.3590   -4.9283   26.2718 C.3     1  UNL1        0.0724
     30 C           8.0658   -3.9571   23.8800 C.3     1  UNL1        0.0277
     31 C           6.9593   -3.8677   22.8713 C.ar    1  UNL1       -0.0220
     32 C           7.2626   -4.0195   21.4100 C.ar    1  UNL1       -0.0020
     33 C           6.1561   -3.9302   20.4012 C.ar    1  UNL1        0.0293
     34 C           4.7464   -3.6891   20.8536 C.ar    1  UNL1        0.1401
     35 F           3.6399   -3.5998   19.8447 F       1  UNL1       -0.2042
     36 C           4.4431   -3.5374   22.3147 C.ar    1  UNL1        0.0293
     37 C           5.5496   -3.6267   23.3236 C.ar    1  UNL1       -0.0020
@<TRIPOS>BOND
     1    21    20    1
     2    21    22    1
     3    22    23    1
     4    23    24    1
     5    24    25    1
     6    25    26    1
     7    26    27    1
     8    27    28    1
     9    28    30    1
    10    30    31    1
    11    31    32   ar
    12    32    33   ar
    13    33    34   ar
    14    34    35    1
    15    34    36   ar
    16    36    37   ar
    17    28    29    1
    18    21     1    1
    19     1     2   am
    20     2     3    2
    21     2     4   am
    22     4     7    1
    23     7     8   ar
    24     8     9   ar
    25     9    10    1
    26     9    11   ar
    27    11    12   ar
    28    12    14    1
    29    14    15   ar
    30    15    16   ar
    31    16    17   ar
    32    17    18   ar
    33    18    19    1
    34    12    13   ar
    35    29    24    1
    36    13     7   ar
    37    37    31   ar
    38    18    14   ar
    39     1     5    1
    40     4     6    1
@<TRIPOS>MOLECULE
*****
 37 40 0 0 0
SMALL
GASTEIGER

@<TRIPOS>ATOM
      1 N         -11.5157   -3.4649   19.1607 N.am    1  UNL1       -0.2903
      2 C         -12.7771   -4.2420   18.9264 C.2     1  UNL1        0.3044
      3 O         -13.0246   -4.8864   17.5947 O.2     1  UNL1       -0.2525
      4 N         -13.7911   -4.3746   20.0238 N.am    1  UNL1       -0.2683
      5 H         -11.3533   -3.0419   20.0347 H       1  UNL1        0.1509
      6 H         -13.6286   -3.9516   20.8978 H       1  UNL1        0.1564
      7 C         -15.0525   -5.1517   19.7895 C.ar    1  UNL1        0.0522
      8 C         -16.3781   -4.4497   19.7963 C.ar    1  UNL1        0.0214
      9 C         -17.6395   -5.2268   19.5620 C.ar    1  UNL1        0.0359
     10 BR        -18.9650   -4.5247   19.5688 Br      1  UNL1       -0.0490
     11 C         -17.5754   -6.7059   19.3210 C.ar    1  UNL1        0.0099
     12 C         -16.2499   -7.4079   19.3142 C.ar    1  UNL1        0.0391
     13 C         -14.9884   -6.6308   19.5485 C.ar    1  UNL1        0.0178
     14 C         -16.1857   -8.8870   19.0731 C.ar    1  UNL1        0.1839
     15 N         -17.0168   -9.9293   19.7610 N.ar    1  UNL1       -0.1081
     16 N         -16.6240  -11.2700   19.2149 N.ar    1  UNL1       -0.0227
     17 N         -15.5502  -11.0564   18.1895 N.ar    1  UNL1       -0.0429
     18 N         -15.2793   -9.5836   18.1020 N.ar    1  UNL1       -0.2113
     19 C         -14.2779   -8.9234   17.2013 C.3     1  UNL1        0.1573
     20 C          -9.4798   -4.4097   17.8521 C.3     1  UNL1        0.0214
     21 C         -10.5017   -3.3322   18.0633 C.3     1  UNL1        0.0745
     22 C         -10.5097   -2.1220   17.1770 C.3     1  UNL1        0.0369
     23 C         -11.4015   -0.9604   17.5018 C.3     1  UNL1        0.0738
     24 N         -12.8916   -1.1323   17.4892 N.3     1  UNL1       -0.2726
     25 C         -13.5743   -1.6691   16.2662 C.3     1  UNL1        0.0721
     26 C         -15.0644   -1.8410   16.2536 C.3     1  UNL1        0.0174
     27 C         -15.8717   -1.4761   17.4640 C.3     1  UNL1        0.0031
     28 C         -15.1890   -0.9393   18.6870 C.3     1  UNL1        0.0204
     29 C         -13.6989   -0.7675   18.6996 C.3     1  UNL1        0.0724
     30 C         -15.9963   -0.5744   19.8974 C.3     1  UNL1        0.0277
     31 C         -16.3241    0.8627   20.1750 C.ar    1  UNL1       -0.0220
     32 C         -15.7178    1.9464   19.3334 C.ar    1  UNL1       -0.0020
     33 C         -16.0456    3.3835   19.6110 C.ar    1  UNL1        0.0293
     34 C         -16.9796    3.7371   20.7301 C.ar    1  UNL1        0.1401
     35 F         -17.3074    5.1744   21.0077 F       1  UNL1       -0.2042
     36 C         -17.5859    2.6536   21.5717 C.ar    1  UNL1        0.0293
     37 C         -17.2581    1.2163   21.2942 C.ar    1  UNL1       -0.0020
@<TRIPOS>BOND
     1    21    20    1
     2    21    22    1
     3    22    23    1
     4    23    24    1
     5    24    25    1
     6    25    26    1
     7    26    27    1
     8    27    28    1
     9    28    30    1
    10    30    31    1
    11    31    32   ar
    12    32    33   ar
    13    33    34   ar
    14    34    35    1
    15    34    36   ar
    16    36    37   ar
    17    28    29    1
    18    21     1    1
    19     1     2   am
    20     2     3    2
    21     2     4   am
    22     4     7    1
    23     7     8   ar
    24     8     9   ar
    25     9    10    1
    26     9    11   ar
    27    11    12   ar
    28    12    14    1
    29    14    15   ar
    30    15    16   ar
    31    16    17   ar
    32    17    18   ar
    33    18    19    1
    34    12    13   ar
    35    29    24    1
    36    13     7   ar
    37    37    31   ar
    38    18    14   ar
    39     1     5    1
    40     4     6    1
