@<TRIPOS>MOLECULE
*****
 24 27 0 0 0
SMALL
GASTEIGER

@<TRIPOS>ATOM
      1 O          -5.8576  -14.5010   25.8228 O.2     1  UNL1       -0.2638
      2 C          -5.8047  -15.5681   24.7699 C.ar    1  UNL1        0.2947
      3 N          -4.4842  -16.1424   24.3498 N.ar    1  UNL1       -0.3062
      4 C          -4.4314  -17.2094   23.2970 C.ar    1  UNL1        0.1358
      5 N          -5.6990  -17.7023   22.6642 N.ar    1  UNL1       -0.2278
      6 C          -7.0195  -17.1280   23.0843 C.ar    1  UNL1        0.1247
      7 C          -7.0723  -16.0609   24.1372 C.ar    1  UNL1        0.2184
      8 O          -8.5098  -15.6864   24.3458 O.2     1  UNL1       -0.4471
      9 C          -9.3453  -16.5220   23.4219 C.ar    1  UNL1        0.1471
     10 C         -10.8258  -16.5868   23.1897 C.ar    1  UNL1        0.0381
     11 C         -11.3852  -17.5425   22.1780 C.ar    1  UNL1        0.0098
     12 C         -10.4641  -18.4334   21.3984 C.ar    1  UNL1        0.0348
     13 BR        -11.0236  -19.3892   20.3866 Br      1  UNL1       -0.0490
     14 C          -8.9836  -18.3687   21.6305 C.ar    1  UNL1        0.0113
     15 C          -8.4242  -17.4130   22.6422 C.ar    1  UNL1        0.0559
     16 H          -3.6523  -15.8189   24.7651 H       1  UNL1        0.1702
     17 C          -3.1109  -17.7838   22.8768 C.3     1  UNL1        0.1370
     18 N          -2.8615  -18.1146   21.4352 N.3     1  UNL1       -0.2642
     19 C          -3.5518  -19.1861   20.6443 C.3     1  UNL1        0.0751
     20 C          -2.9949  -19.1657   19.2517 C.3     1  UNL1        0.0480
     21 C          -1.9606  -18.0818   19.1818 C.3     1  UNL1        0.1278
     22 O          -1.1508  -17.7123   17.9744 O.3     1  UNL1       -0.3830
     23 C          -1.8780  -17.4321   20.5313 C.3     1  UNL1        0.1020
     24 H          -0.5554  -16.9794   18.1963 H       1  UNL1        0.2104
@<TRIPOS>BOND
     1     1     2    2
     2     2     3   ar
     3     3     4   ar
     4     4    17    1
     5    17    18    1
     6    18    19    1
     7    19    20    1
     8    20    21    1
     9    21    22    1
    10    21    23    1
    11     4     5   ar
    12     5     6   ar
    13     6     7   ar
    14     7     8   ar
    15     8     9   ar
    16     9    10   ar
    17    10    11   ar
    18    11    12   ar
    19    12    13    1
    20    12    14   ar
    21    14    15   ar
    22     7     2   ar
    23    15     9   ar
    24    23    18    1
    25    15     6   ar
    26     3    16    1
    27    22    24    1
@<TRIPOS>MOLECULE
*****
 24 27 0 0 0
SMALL
GASTEIGER

@<TRIPOS>ATOM
      1 O          -8.5429  -15.3253   26.4893 O.2     1  UNL1       -0.2638
      2 C          -7.8388  -15.8406   25.2692 C.ar    1  UNL1        0.2947
      3 N          -6.3832  -15.5438   25.0619 N.ar    1  UNL1       -0.3062
      4 C          -5.6791  -16.0591   23.8418 C.ar    1  UNL1        0.1358
      5 N          -6.4306  -16.8711   22.8289 N.ar    1  UNL1       -0.2278
      6 C          -7.8862  -17.1679   23.0362 C.ar    1  UNL1        0.1247
      7 C          -8.5903  -16.6527   24.2564 C.ar    1  UNL1        0.2184
      8 O         -10.0199  -17.1023   24.1911 O.2     1  UNL1       -0.4471
      9 C         -10.1992  -17.8955   22.9306 C.ar    1  UNL1        0.1471
     10 C         -11.3930  -18.5860   22.3406 C.ar    1  UNL1        0.0381
     11 C         -11.2680  -19.3171   21.0368 C.ar    1  UNL1        0.0098
     12 C          -9.9493  -19.3576   20.3231 C.ar    1  UNL1        0.0348
     13 BR         -9.8244  -20.0887   19.0192 Br      1  UNL1       -0.0490
     14 C          -8.7556  -18.6671   20.9131 C.ar    1  UNL1        0.0113
     15 C          -8.8806  -17.9360   22.2169 C.ar    1  UNL1        0.0559
     16 H          -5.8899  -15.0108   25.7266 H       1  UNL1        0.1702
     17 C          -4.2233  -15.7623   23.6344 C.3     1  UNL1        0.1370
     18 N          -3.3803  -16.6855   22.8056 N.3     1  UNL1       -0.2642
     19 C          -2.3949  -16.2728   21.7526 C.3     1  UNL1        0.0751
     20 C          -1.7803  -17.5158   21.1805 C.3     1  UNL1        0.0480
     21 C          -2.3858  -18.6966   21.8798 C.3     1  UNL1        0.1278
     22 O          -2.0597  -20.1375   21.6203 O.3     1  UNL1       -0.3830
     23 C          -3.3747  -18.1835   22.8842 C.3     1  UNL1        0.1020
     24 H          -2.5902  -20.6997   22.2064 H       1  UNL1        0.2104
@<TRIPOS>BOND
     1     1     2    2
     2     2     3   ar
     3     3     4   ar
     4     4    17    1
     5    17    18    1
     6    18    19    1
     7    19    20    1
     8    20    21    1
     9    21    22    1
    10    21    23    1
    11     4     5   ar
    12     5     6   ar
    13     6     7   ar
    14     7     8   ar
    15     8     9   ar
    16     9    10   ar
    17    10    11   ar
    18    11    12   ar
    19    12    13    1
    20    12    14   ar
    21    14    15   ar
    22     7     2   ar
    23    15     9   ar
    24    23    18    1
    25    15     6   ar
    26     3    16    1
    27    22    24    1
@<TRIPOS>MOLECULE
*****
 24 27 0 0 0
SMALL
GASTEIGER

@<TRIPOS>ATOM
      1 O          -5.7836  -14.5846   25.8171 O.2     1  UNL1       -0.2638
      2 C          -6.4071  -15.5418   24.8450 C.ar    1  UNL1        0.2947
      3 N          -7.8989  -15.5968   24.6987 N.ar    1  UNL1       -0.3062
      4 C          -8.5223  -16.5540   23.7266 C.ar    1  UNL1        0.1358
      5 N          -7.6540  -17.4562   22.9008 N.ar    1  UNL1       -0.2278
      6 C          -6.1622  -17.4013   23.0471 C.ar    1  UNL1        0.1247
      7 C          -5.5387  -16.4440   24.0192 C.ar    1  UNL1        0.2184
      8 O          -4.0501  -16.6135   23.9465 O.2     1  UNL1       -0.4471
      9 C          -3.7535  -17.6754   22.9294 C.ar    1  UNL1        0.1471
     10 C          -2.4636  -18.2619   22.4376 C.ar    1  UNL1        0.0381
     11 C          -2.4789  -19.3353   21.3900 C.ar    1  UNL1        0.0098
     12 C          -3.7843  -19.8222   20.8342 C.ar    1  UNL1        0.0348
     13 BR         -3.7996  -20.8956   19.7865 Br      1  UNL1       -0.0490
     14 C          -5.0743  -19.2357   21.3259 C.ar    1  UNL1        0.0113
     15 C          -5.0589  -18.1623   22.3735 C.ar    1  UNL1        0.0559
     16 H          -8.4688  -15.0046   25.2407 H       1  UNL1        0.1702
     17 C         -10.0143  -16.6090   23.5803 C.3     1  UNL1        0.1370
     18 N         -10.6293  -16.7640   22.2210 N.3     1  UNL1       -0.2642
     19 C         -10.8638  -18.0594   21.5019 C.3     1  UNL1        0.0751
     20 C         -11.4973  -17.7468   20.1787 C.3     1  UNL1        0.0480
     21 C         -11.6543  -16.2584   20.0799 C.3     1  UNL1        0.1278
     22 O         -12.2442  -15.5089   18.9222 O.3     1  UNL1       -0.3830
     23 C         -11.1179  -15.6509   21.3421 C.3     1  UNL1        0.1020
     24 H         -12.2283  -14.5576   19.1111 H       1  UNL1        0.2104
@<TRIPOS>BOND
     1     1     2    2
     2     2     3   ar
     3     3     4   ar
     4     4    17    1
     5    17    18    1
     6    18    19    1
     7    19    20    1
     8    20    21    1
     9    21    22    1
    10    21    23    1
    11     4     5   ar
    12     5     6   ar
    13     6     7   ar
    14     7     8   ar
    15     8     9   ar
    16     9    10   ar
    17    10    11   ar
    18    11    12   ar
    19    12    13    1
    20    12    14   ar
    21    14    15   ar
    22     7     2   ar
    23    15     9   ar
    24    23    18    1
    25    15     6   ar
    26     3    16    1
    27    22    24    1
@<TRIPOS>MOLECULE
*****
 24 27 0 0 0
SMALL
GASTEIGER

@<TRIPOS>ATOM
      1 O          -4.8311  -14.2694   25.9651 O.2     1  UNL1       -0.2638
      2 C          -5.6612  -15.1703   25.0995 C.ar    1  UNL1        0.2947
      3 N          -7.1571  -15.0626   25.1224 N.ar    1  UNL1       -0.3062
      4 C          -7.9872  -15.9635   24.2568 C.ar    1  UNL1        0.1358
      5 N          -7.3214  -16.9722   23.3683 N.ar    1  UNL1       -0.2278
      6 C          -5.8255  -17.0799   23.3454 C.ar    1  UNL1        0.1247
      7 C          -4.9954  -16.1790   24.2110 C.ar    1  UNL1        0.2184
      8 O          -3.5518  -16.5136   23.9781 O.2     1  UNL1       -0.4471
      9 C          -3.4898  -17.6213   22.9685 C.ar    1  UNL1        0.1471
     10 C          -2.3353  -18.3564   22.3548 C.ar    1  UNL1        0.0381
     11 C          -2.5861  -19.4416   21.3501 C.ar    1  UNL1        0.0098
     12 C          -3.9913  -19.7916   20.9591 C.ar    1  UNL1        0.0348
     13 BR         -4.2420  -20.8768   19.9543 Br      1  UNL1       -0.0490
     14 C          -5.1457  -19.0565   21.5728 C.ar    1  UNL1        0.0113
     15 C          -4.8950  -17.9713   22.5775 C.ar    1  UNL1        0.0559
     16 H          -7.5941  -14.4006   25.7055 H       1  UNL1        0.1702
     17 C          -9.4833  -15.8558   24.2796 C.3     1  UNL1        0.1370
     18 N         -10.3095  -16.6887   23.3450 N.3     1  UNL1       -0.2642
     19 C         -10.8526  -18.0576   23.6301 C.3     1  UNL1        0.0751
     20 C         -11.6165  -18.5138   22.4224 C.3     1  UNL1        0.0480
     21 C         -11.5455  -17.4271   21.3911 C.3     1  UNL1        0.1278
     22 O         -12.1722  -17.4620   20.0287 O.3     1  UNL1       -0.3830
     23 C         -10.7377  -16.2990   21.9612 C.3     1  UNL1        0.1020
     24 H         -11.9762  -16.6350   19.5613 H       1  UNL1        0.2104
@<TRIPOS>BOND
     1     1     2    2
     2     2     3   ar
     3     3     4   ar
     4     4    17    1
     5    17    18    1
     6    18    19    1
     7    19    20    1
     8    20    21    1
     9    21    22    1
    10    21    23    1
    11     4     5   ar
    12     5     6   ar
    13     6     7   ar
    14     7     8   ar
    15     8     9   ar
    16     9    10   ar
    17    10    11   ar
    18    11    12   ar
    19    12    13    1
    20    12    14   ar
    21    14    15   ar
    22     7     2   ar
    23    15     9   ar
    24    23    18    1
    25    15     6   ar
    26     3    16    1
    27    22    24    1
@<TRIPOS>MOLECULE
*****
 24 27 0 0 0
SMALL
GASTEIGER

@<TRIPOS>ATOM
      1 O         -11.2739   -7.6163   17.8235 O.2     1  UNL1       -0.2638
      2 C         -12.4179   -6.9102   18.4887 C.ar    1  UNL1        0.2947
      3 N         -12.2337   -5.5198   19.0205 N.ar    1  UNL1       -0.3062
      4 C         -13.3778   -4.8136   19.6857 C.ar    1  UNL1        0.1358
      5 N         -14.7060   -5.4978   19.8191 N.ar    1  UNL1       -0.2278
      6 C         -14.8901   -6.8882   19.2873 C.ar    1  UNL1        0.1247
      7 C         -13.7461   -7.5944   18.6221 C.ar    1  UNL1        0.2184
      8 O         -14.2230   -8.9518   18.1978 O.2     1  UNL1       -0.4471
      9 C         -15.6617   -9.0845   18.6008 C.ar    1  UNL1        0.1471
     10 C         -16.6496  -10.2020   18.4416 C.ar    1  UNL1        0.0381
     11 C         -18.0499  -10.0440   18.9557 C.ar    1  UNL1        0.0098
     12 C         -18.4622   -8.7686   19.6291 C.ar    1  UNL1        0.0348
     13 BR        -19.8625   -8.6107   20.1432 Br      1  UNL1       -0.0490
     14 C         -17.4743   -7.6512   19.7883 C.ar    1  UNL1        0.0113
     15 C         -16.0741   -7.8092   19.2742 C.ar    1  UNL1        0.0559
     16 H         -11.3620   -5.0707   18.9329 H       1  UNL1        0.1702
     17 C         -13.1937   -3.4231   20.2175 C.3     1  UNL1        0.1370
     18 N         -12.7198   -2.3287   19.3077 N.3     1  UNL1       -0.2642
     19 C         -13.5650   -1.2284   18.7375 C.3     1  UNL1        0.0751
     20 C         -12.6850   -0.3623   17.8857 C.3     1  UNL1        0.0480
     21 C         -11.2962   -0.9272   17.9294 C.3     1  UNL1        0.1278
     22 O         -10.0965   -0.3739   17.2191 O.3     1  UNL1       -0.3830
     23 C         -11.3177   -2.1425   18.8083 C.3     1  UNL1        0.1020
     24 H          -9.3227   -0.9255   17.4136 H       1  UNL1        0.2104
@<TRIPOS>BOND
     1     1     2    2
     2     2     3   ar
     3     3     4   ar
     4     4    17    1
     5    17    18    1
     6    18    19    1
     7    19    20    1
     8    20    21    1
     9    21    22    1
    10    21    23    1
    11     4     5   ar
    12     5     6   ar
    13     6     7   ar
    14     7     8   ar
    15     8     9   ar
    16     9    10   ar
    17    10    11   ar
    18    11    12   ar
    19    12    13    1
    20    12    14   ar
    21    14    15   ar
    22     7     2   ar
    23    15     9   ar
    24    23    18    1
    25    15     6   ar
    26     3    16    1
    27    22    24    1
@<TRIPOS>MOLECULE
*****
 24 27 0 0 0
SMALL
GASTEIGER

@<TRIPOS>ATOM
      1 O           4.3402   -0.3133   27.0029 O.2     1  UNL1       -0.2638
      2 C           4.9638   -1.4566   26.2587 C.ar    1  UNL1        0.2947
      3 N           5.9381   -2.3612   26.9533 N.ar    1  UNL1       -0.3062
      4 C           6.5617   -3.5046   26.2091 C.ar    1  UNL1        0.1358
      5 N           6.2111   -3.7433   24.7703 N.ar    1  UNL1       -0.2278
      6 C           5.2369   -2.8387   24.0757 C.ar    1  UNL1        0.1247
      7 C           4.6132   -1.6954   24.8199 C.ar    1  UNL1        0.2184
      8 O           3.6930   -0.9765   23.8784 O.2     1  UNL1       -0.4471
      9 C           3.7480   -1.6755   22.5524 C.ar    1  UNL1        0.1471
     10 C           3.0524   -1.4126   21.2497 C.ar    1  UNL1        0.0381
     11 C           3.3111   -2.3008   20.0689 C.ar    1  UNL1        0.0098
     12 C           4.2652   -3.4517   20.1908 C.ar    1  UNL1        0.0348
     13 BR          4.5238   -4.3399   19.0100 Br      1  UNL1       -0.0490
     14 C           4.9607   -3.7146   21.4935 C.ar    1  UNL1        0.0113
     15 C           4.7021   -2.8264   22.6743 C.ar    1  UNL1        0.0559
     16 H           6.1682   -2.2046   27.8976 H       1  UNL1        0.1702
     17 C           7.5360   -4.4093   26.9037 C.3     1  UNL1        0.1370
     18 N           7.5128   -4.5301   28.3987 N.3     1  UNL1       -0.2642
     19 C           8.2672   -3.6657   29.3649 C.3     1  UNL1        0.0751
     20 C           7.9516   -4.1380   30.7532 C.3     1  UNL1        0.0480
     21 C           7.0023   -5.2942   30.6450 C.3     1  UNL1        0.1278
     22 O           6.4254   -6.0717   31.7908 O.3     1  UNL1       -0.3830
     23 C           6.7310   -5.5366   29.1898 C.3     1  UNL1        0.1020
     24 H           5.8412   -6.7663   31.4486 H       1  UNL1        0.2104
@<TRIPOS>BOND
     1     1     2    2
     2     2     3   ar
     3     3     4   ar
     4     4    17    1
     5    17    18    1
     6    18    19    1
     7    19    20    1
     8    20    21    1
     9    21    22    1
    10    21    23    1
    11     4     5   ar
    12     5     6   ar
    13     6     7   ar
    14     7     8   ar
    15     8     9   ar
    16     9    10   ar
    17    10    11   ar
    18    11    12   ar
    19    12    13    1
    20    12    14   ar
    21    14    15   ar
    22     7     2   ar
    23    15     9   ar
    24    23    18    1
    25    15     6   ar
    26     3    16    1
    27    22    24    1
@<TRIPOS>MOLECULE
*****
 24 27 0 0 0
SMALL
GASTEIGER

@<TRIPOS>ATOM
      1 O           0.5628    1.6839   31.6413 O.2     1  UNL1       -0.2638
      2 C           1.6882    1.6382   32.6320 C.ar    1  UNL1        0.2947
      3 N           1.5887    2.4074   33.9159 N.ar    1  UNL1       -0.3062
      4 C           2.7141    2.3617   34.9066 C.ar    1  UNL1        0.1358
      5 N           3.9389    1.5469   34.6134 N.ar    1  UNL1       -0.2278
      6 C           4.0383    0.7777   33.3295 C.ar    1  UNL1        0.1247
      7 C           2.9130    0.8234   32.3388 C.ar    1  UNL1        0.2184
      8 O           3.2924   -0.0323   31.1667 O.2     1  UNL1       -0.4471
      9 C           4.6522   -0.6068   31.4329 C.ar    1  UNL1        0.1471
     10 C           5.5301   -1.5211   30.6309 C.ar    1  UNL1        0.0381
     11 C           6.8691   -1.9347   31.1657 C.ar    1  UNL1        0.0098
     12 C           7.3301   -1.4341   32.5024 C.ar    1  UNL1        0.0348
     13 BR          8.6692   -1.8478   33.0371 Br      1  UNL1       -0.0490
     14 C           6.4522   -0.5198   33.3044 C.ar    1  UNL1        0.0113
     15 C           5.1132   -0.1062   32.7697 C.ar    1  UNL1        0.0559
     16 H           0.7849    2.9422   34.1083 H       1  UNL1        0.1702
     17 C           2.6146    3.1309   36.1906 C.3     1  UNL1        0.1370
     18 N           2.1223    2.4530   37.4348 N.3     1  UNL1       -0.2642
     19 C           1.0321    2.9503   38.3371 C.3     1  UNL1        0.0751
     20 C           0.8697    1.9635   39.4551 C.3     1  UNL1        0.0480
     21 C           1.8594    0.8564   39.2437 C.3     1  UNL1        0.1278
     22 O           2.0428   -0.3428   40.1259 O.3     1  UNL1       -0.3830
     23 C           2.6336    1.1589   37.9950 C.3     1  UNL1        0.1020
     24 H           2.7470   -0.9044   39.7659 H       1  UNL1        0.2104
@<TRIPOS>BOND
     1     1     2    2
     2     2     3   ar
     3     3     4   ar
     4     4    17    1
     5    17    18    1
     6    18    19    1
     7    19    20    1
     8    20    21    1
     9    21    22    1
    10    21    23    1
    11     4     5   ar
    12     5     6   ar
    13     6     7   ar
    14     7     8   ar
    15     8     9   ar
    16     9    10   ar
    17    10    11   ar
    18    11    12   ar
    19    12    13    1
    20    12    14   ar
    21    14    15   ar
    22     7     2   ar
    23    15     9   ar
    24    23    18    1
    25    15     6   ar
    26     3    16    1
    27    22    24    1
@<TRIPOS>MOLECULE
*****
 24 27 0 0 0
SMALL
GASTEIGER

@<TRIPOS>ATOM
      1 O           8.2312   -6.5994   23.1983 O.2     1  UNL1       -0.2638
      2 C           7.8497   -5.5305   24.1791 C.ar    1  UNL1        0.2947
      3 N           8.5306   -5.4598   25.5138 N.ar    1  UNL1       -0.3062
      4 C           8.1491   -4.3909   26.4945 C.ar    1  UNL1        0.1358
      5 N           7.0867   -3.3928   26.1406 N.ar    1  UNL1       -0.2278
      6 C           6.4059   -3.4636   24.8060 C.ar    1  UNL1        0.1247
      7 C           6.7874   -4.5324   23.8252 C.ar    1  UNL1        0.2184
      8 O           5.9481   -4.3536   22.5949 O.2     1  UNL1       -0.4471
      9 C           5.0478   -3.1741   22.8154 C.ar    1  UNL1        0.1471
     10 C           4.0071   -2.5300   21.9483 C.ar    1  UNL1        0.0381
     11 C           3.2492   -1.3358   22.4478 C.ar    1  UNL1        0.0098
     12 C           3.5322   -0.7857   23.8143 C.ar    1  UNL1        0.0348
     13 BR          2.7743    0.4085   24.3138 Br      1  UNL1       -0.0490
     14 C           4.5730   -1.4299   24.6814 C.ar    1  UNL1        0.0113
     15 C           5.3308   -2.6241   24.1819 C.ar    1  UNL1        0.0559
     16 H           9.2278   -6.1148   25.7461 H       1  UNL1        0.1702
     17 C           8.8299   -4.3201   27.8293 C.3     1  UNL1        0.1370
     18 N           8.0233   -4.4273   29.0894 N.3     1  UNL1       -0.2642
     19 C           7.2291   -3.3245   29.7243 C.3     1  UNL1        0.0751
     20 C           6.5841   -3.8718   30.9630 C.3     1  UNL1        0.0480
     21 C           6.9797   -5.3127   31.0937 C.3     1  UNL1        0.1278
     22 O           6.5596   -6.2465   32.1900 O.3     1  UNL1       -0.3830
     23 C           7.8692   -5.6561   29.9357 C.3     1  UNL1        0.1020
     24 H           6.9533   -7.1201   32.0391 H       1  UNL1        0.2104
@<TRIPOS>BOND
     1     1     2    2
     2     2     3   ar
     3     3     4   ar
     4     4    17    1
     5    17    18    1
     6    18    19    1
     7    19    20    1
     8    20    21    1
     9    21    22    1
    10    21    23    1
    11     4     5   ar
    12     5     6   ar
    13     6     7   ar
    14     7     8   ar
    15     8     9   ar
    16     9    10   ar
    17    10    11   ar
    18    11    12   ar
    19    12    13    1
    20    12    14   ar
    21    14    15   ar
    22     7     2   ar
    23    15     9   ar
    24    23    18    1
    25    15     6   ar
    26     3    16    1
    27    22    24    1
@<TRIPOS>MOLECULE
*****
 24 27 0 0 0
SMALL
GASTEIGER

@<TRIPOS>ATOM
      1 O          -9.0592   -5.5101   19.5331 O.2     1  UNL1       -0.2638
      2 C         -10.3243   -4.7918   19.1676 C.ar    1  UNL1        0.2947
      3 N         -10.3373   -3.2946   19.0774 N.ar    1  UNL1       -0.3062
      4 C         -11.6024   -2.5763   18.7119 C.ar    1  UNL1        0.1358
      5 N         -12.8544   -3.3552   18.4366 N.ar    1  UNL1       -0.2278
      6 C         -12.8414   -4.8524   18.5268 C.ar    1  UNL1        0.1247
      7 C         -11.5763   -5.5707   18.8923 C.ar    1  UNL1        0.2184
      8 O         -11.8657   -7.0425   18.9037 O.2     1  UNL1       -0.4471
      9 C         -13.3097   -7.2338   18.5452 C.ar    1  UNL1        0.1471
     10 C         -14.1533   -8.4656   18.4008 C.ar    1  UNL1        0.0381
     11 C         -15.5999   -8.3438   18.0234 C.ar    1  UNL1        0.0098
     12 C         -16.2029   -6.9903   17.7905 C.ar    1  UNL1        0.0348
     13 BR        -17.6496   -6.8686   17.4132 Br      1  UNL1       -0.0490
     14 C         -15.3593   -5.7585   17.9350 C.ar    1  UNL1        0.0113
     15 C         -13.9127   -5.8802   18.3123 C.ar    1  UNL1        0.0559
     16 H          -9.5156   -2.7834   19.2580 H       1  UNL1        0.1702
     17 C         -11.6155   -1.0790   18.6216 C.3     1  UNL1        0.1370
     18 N         -12.6815   -0.3848   17.8269 N.3     1  UNL1       -0.2642
     19 C         -12.6384   -0.0986   16.3551 C.3     1  UNL1        0.0751
     20 C         -13.9081    0.6081   15.9830 C.3     1  UNL1        0.0480
     21 C         -14.7359    0.7587   17.2248 C.3     1  UNL1        0.1278
     22 O         -16.0849    1.4088   17.3118 O.3     1  UNL1       -0.3830
     23 C         -13.9778    0.1450   18.3644 C.3     1  UNL1        0.1020
     24 H         -16.4019    1.3744   18.2278 H       1  UNL1        0.2104
@<TRIPOS>BOND
     1     1     2    2
     2     2     3   ar
     3     3     4   ar
     4     4    17    1
     5    17    18    1
     6    18    19    1
     7    19    20    1
     8    20    21    1
     9    21    22    1
    10    21    23    1
    11     4     5   ar
    12     5     6   ar
    13     6     7   ar
    14     7     8   ar
    15     8     9   ar
    16     9    10   ar
    17    10    11   ar
    18    11    12   ar
    19    12    13    1
    20    12    14   ar
    21    14    15   ar
    22     7     2   ar
    23    15     9   ar
    24    23    18    1
    25    15     6   ar
    26     3    16    1
    27    22    24    1
