@<TRIPOS>MOLECULE
*****
 25 28 0 0 0
SMALL
GASTEIGER

@<TRIPOS>ATOM
      1 O          -8.0025  -15.4918   21.7463 O.2     1  UNL1       -0.2699
      2 C          -8.3868  -16.8675   22.2041 C.2     1  UNL1        0.2487
      3 N          -8.8933  -17.0793   23.6001 N.am    1  UNL1       -0.2763
      4 C          -8.2645  -18.0317   21.2660 C.ar    1  UNL1        0.0496
      5 C          -6.9359  -18.6992   21.0682 C.ar    1  UNL1        0.0042
      6 C          -6.8137  -19.8632   20.1302 C.ar    1  UNL1        0.0001
      7 C          -8.0201  -20.3598   19.3899 C.ar    1  UNL1       -0.0003
      8 C          -9.3487  -19.6923   19.5877 C.ar    1  UNL1       -0.0041
      9 C          -9.4709  -18.5282   20.5257 C.ar    1  UNL1       -0.0181
     10 C         -10.7996  -17.8606   20.7236 C.3     1  UNL1        0.0225
     11 C         -11.2565  -16.5933   20.0640 C.3     1  UNL1        0.0044
     12 C         -12.6438  -16.2927   20.5485 C.3     1  UNL1        0.0003
     13 C         -13.0445  -17.3742   21.5076 C.3     1  UNL1        0.0003
     14 C         -11.9046  -18.3433   21.6158 C.3     1  UNL1        0.0044
     15 C          -9.2775  -18.4551   24.0579 C.3     1  UNL1        0.0927
     16 C          -8.8156  -19.7471   23.4518 C.3     1  UNL1        0.0383
     17 C          -9.4437  -20.8709   24.2215 C.3     1  UNL1        0.0704
     18 N         -10.2939  -20.2734   25.3034 N.3     1  UNL1       -0.2960
     19 C         -10.1912  -18.7804   25.2022 C.3     1  UNL1        0.0887
     20 H          -9.9600  -20.5823   26.2163 H       1  UNL1        0.1233
     21 C          -9.0155  -15.9152   24.5381 C.3     1  UNL1        0.0936
     22 C          -8.0412  -15.7565   25.6675 C.3     1  UNL1        0.0199
     23 C          -8.1337  -15.8102   27.1637 C.3     1  UNL1        0.0017
     24 C          -6.6632  -15.5321   27.2646 C.3     1  UNL1        0.0001
     25 C          -6.5706  -15.4785   25.7685 C.3     1  UNL1        0.0017
@<TRIPOS>BOND
     1     1     2    2
     2     2     4    1
     3     4     5   ar
     4     5     6   ar
     5     6     7   ar
     6     7     8   ar
     7     8     9   ar
     8     9    10    1
     9    10    11    1
    10    11    12    1
    11    12    13    1
    12    13    14    1
    13     2     3   am
    14     3    21    1
    15    21    22    1
    16    22    23    1
    17    23    24    1
    18    24    25    1
    19    15     3    1
    20    15    16    1
    21    16    17    1
    22    17    18    1
    23    18    19    1
    24     9     4   ar
    25    14    10    1
    26    25    22    1
    27    19    15    1
    28    18    20    1
@<TRIPOS>MOLECULE
*****
 25 28 0 0 0
SMALL
GASTEIGER

@<TRIPOS>ATOM
      1 O          -7.8154  -15.4304   21.5899 O.2     1  UNL1       -0.2699
      2 C          -8.7034  -16.5251   22.1028 C.2     1  UNL1        0.2487
      3 N          -9.1087  -16.5473   23.5468 N.am    1  UNL1       -0.2763
      4 C          -9.1861  -17.5976   21.1717 C.ar    1  UNL1        0.0496
      5 C         -10.5981  -17.5722   20.6663 C.ar    1  UNL1        0.0042
      6 C         -11.0807  -18.6447   19.7352 C.ar    1  UNL1        0.0001
      7 C         -10.1513  -19.7425   19.3096 C.ar    1  UNL1       -0.0003
      8 C          -8.7393  -19.7678   19.8151 C.ar    1  UNL1       -0.0041
      9 C          -8.2567  -18.6954   20.7461 C.ar    1  UNL1       -0.0181
     10 C          -6.8446  -18.7206   21.2516 C.3     1  UNL1        0.0225
     11 C          -5.6224  -19.0290   20.4385 C.3     1  UNL1        0.0044
     12 C          -4.4293  -18.9409   21.3434 C.3     1  UNL1        0.0003
     13 C          -4.9141  -18.5782   22.7158 C.3     1  UNL1        0.0003
     14 C          -6.4069  -18.4421   22.6591 C.3     1  UNL1        0.0044
     15 C          -9.9968  -17.6421   24.0598 C.3     1  UNL1        0.0927
     16 C         -11.4783  -17.7469   23.8495 C.3     1  UNL1        0.0383
     17 C         -11.9563  -18.9938   24.5328 C.3     1  UNL1        0.0704
     18 N         -10.7702  -19.6595   25.1654 N.3     1  UNL1       -0.2960
     19 C          -9.5592  -18.8241   24.8730 C.3     1  UNL1        0.0887
     20 H         -10.6487  -20.5939   24.7749 H       1  UNL1        0.1233
     21 C          -8.6261  -15.4749   24.4779 C.3     1  UNL1        0.0936
     22 C          -7.2439  -15.5497   25.0558 C.3     1  UNL1        0.0199
     23 C          -6.6783  -15.7656   26.4283 C.3     1  UNL1        0.0017
     24 C          -5.2892  -15.6554   25.8731 C.3     1  UNL1        0.0001
     25 C          -5.8548  -15.4396   24.5007 C.3     1  UNL1        0.0017
@<TRIPOS>BOND
     1     1     2    2
     2     2     4    1
     3     4     5   ar
     4     5     6   ar
     5     6     7   ar
     6     7     8   ar
     7     8     9   ar
     8     9    10    1
     9    10    11    1
    10    11    12    1
    11    12    13    1
    12    13    14    1
    13     2     3   am
    14     3    21    1
    15    21    22    1
    16    22    23    1
    17    23    24    1
    18    24    25    1
    19    15     3    1
    20    15    16    1
    21    16    17    1
    22    17    18    1
    23    18    19    1
    24     9     4   ar
    25    14    10    1
    26    25    22    1
    27    19    15    1
    28    18    20    1
@<TRIPOS>MOLECULE
*****
 25 28 0 0 0
SMALL
GASTEIGER

@<TRIPOS>ATOM
      1 O          -8.5662  -20.6484   23.8970 O.2     1  UNL1       -0.2699
      2 C          -9.1911  -19.5591   23.0767 C.2     1  UNL1        0.2487
      3 N          -9.8228  -18.3790   23.7536 N.am    1  UNL1       -0.2763
      4 C          -9.1842  -19.6499   21.5794 C.ar    1  UNL1        0.0496
      5 C         -10.4581  -19.9317   20.8393 C.ar    1  UNL1        0.0042
      6 C         -10.4512  -20.0225   19.3421 C.ar    1  UNL1        0.0001
      7 C          -9.1704  -19.8315   18.5850 C.ar    1  UNL1       -0.0003
      8 C          -7.8966  -19.5498   19.3251 C.ar    1  UNL1       -0.0041
      9 C          -7.9035  -19.4590   20.8223 C.ar    1  UNL1       -0.0181
     10 C          -6.6295  -19.1772   21.5625 C.3     1  UNL1        0.0225
     11 C          -6.3444  -17.9635   22.3966 C.3     1  UNL1        0.0044
     12 C          -4.9558  -18.0959   22.9481 C.3     1  UNL1        0.0003
     13 C          -4.3827  -19.3915   22.4549 C.3     1  UNL1        0.0003
     14 C          -5.4171  -20.0597   21.5986 C.3     1  UNL1        0.0044
     15 C         -10.4477  -17.2896   22.9332 C.3     1  UNL1        0.0927
     16 C         -11.9136  -16.9848   22.8424 C.3     1  UNL1        0.0383
     17 C         -12.0882  -15.8207   21.9127 C.3     1  UNL1        0.0704
     18 N         -10.7302  -15.4060   21.4289 N.3     1  UNL1       -0.2960
     19 C          -9.7163  -16.3139   22.0596 C.3     1  UNL1        0.0887
     20 H         -10.5462  -14.4401   21.7001 H       1  UNL1        0.1233
     21 C          -9.8297  -18.2881   25.2508 C.3     1  UNL1        0.0936
     22 C          -9.0812  -17.1851   25.9387 C.3     1  UNL1        0.0199
     23 C          -8.5034  -15.8683   25.5116 C.3     1  UNL1        0.0017
     24 C          -8.0227  -15.6252   26.9115 C.3     1  UNL1        0.0001
     25 C          -8.6005  -16.9419   27.3386 C.3     1  UNL1        0.0017
@<TRIPOS>BOND
     1     1     2    2
     2     2     4    1
     3     4     5   ar
     4     5     6   ar
     5     6     7   ar
     6     7     8   ar
     7     8     9   ar
     8     9    10    1
     9    10    11    1
    10    11    12    1
    11    12    13    1
    12    13    14    1
    13     2     3   am
    14     3    21    1
    15    21    22    1
    16    22    23    1
    17    23    24    1
    18    24    25    1
    19    15     3    1
    20    15    16    1
    21    16    17    1
    22    17    18    1
    23    18    19    1
    24     9     4   ar
    25    14    10    1
    26    25    22    1
    27    19    15    1
    28    18    20    1
@<TRIPOS>MOLECULE
*****
 25 28 0 0 0
SMALL
GASTEIGER

@<TRIPOS>ATOM
      1 O          -8.7082  -20.7364   23.1901 O.2     1  UNL1       -0.2699
      2 C          -8.0919  -19.3923   22.9386 C.2     1  UNL1        0.2487
      3 N          -8.6744  -18.1681   23.5804 N.am    1  UNL1       -0.2763
      4 C          -6.8928  -19.2723   22.0452 C.ar    1  UNL1        0.0496
      5 C          -5.5220  -19.1512   22.6420 C.ar    1  UNL1        0.0042
      6 C          -4.3231  -19.0312   21.7486 C.ar    1  UNL1        0.0001
      7 C          -4.4950  -19.0323   20.2585 C.ar    1  UNL1       -0.0003
      8 C          -5.8658  -19.1534   19.6617 C.ar    1  UNL1       -0.0041
      9 C          -7.0647  -19.2734   20.5551 C.ar    1  UNL1       -0.0181
     10 C          -8.4356  -19.3945   19.9584 C.3     1  UNL1        0.0225
     11 C          -8.8216  -20.2756   18.8074 C.3     1  UNL1        0.0044
     12 C         -10.2857  -20.0814   18.5456 C.3     1  UNL1        0.0003
     13 C         -10.8047  -19.0802   19.5347 C.3     1  UNL1        0.0003
     14 C          -9.6613  -18.6557   20.4079 C.3     1  UNL1        0.0044
     15 C          -8.0580  -16.8239   23.3289 C.3     1  UNL1        0.0927
     16 C          -7.0055  -16.1651   24.1705 C.3     1  UNL1        0.0383
     17 C          -6.6829  -14.8366   23.5533 C.3     1  UNL1        0.0704
     18 N          -7.5360  -14.6743   22.3301 N.3     1  UNL1       -0.2960
     19 C          -8.3858  -15.9025   22.1915 C.3     1  UNL1        0.0887
     20 H          -6.9436  -14.5684   21.5066 H       1  UNL1        0.1233
     21 C          -9.8734  -18.2880   24.4738 C.3     1  UNL1        0.0936
     22 C         -11.2455  -18.0272   23.9266 C.3     1  UNL1        0.0199
     23 C         -11.8070  -17.1560   22.8423 C.3     1  UNL1        0.0017
     24 C         -13.1859  -17.6583   23.1529 C.3     1  UNL1        0.0001
     25 C         -12.6243  -18.5294   24.2371 C.3     1  UNL1        0.0017
@<TRIPOS>BOND
     1     1     2    2
     2     2     4    1
     3     4     5   ar
     4     5     6   ar
     5     6     7   ar
     6     7     8   ar
     7     8     9   ar
     8     9    10    1
     9    10    11    1
    10    11    12    1
    11    12    13    1
    12    13    14    1
    13     2     3   am
    14     3    21    1
    15    21    22    1
    16    22    23    1
    17    23    24    1
    18    24    25    1
    19    15     3    1
    20    15    16    1
    21    16    17    1
    22    17    18    1
    23    18    19    1
    24     9     4   ar
    25    14    10    1
    26    25    22    1
    27    19    15    1
    28    18    20    1
@<TRIPOS>MOLECULE
*****
 25 28 0 0 0
SMALL
GASTEIGER

@<TRIPOS>ATOM
      1 O          -9.5602  -20.1404   24.7502 O.2     1  UNL1       -0.2699
      2 C          -9.0109  -19.0382   23.8939 C.2     1  UNL1        0.2487
      3 N          -8.8031  -17.6706   24.4739 N.am    1  UNL1       -0.2763
      4 C          -8.6696  -19.3035   22.4575 C.ar    1  UNL1        0.0496
      5 C          -7.3144  -19.8340   22.0944 C.ar    1  UNL1        0.0042
      6 C          -6.9730  -20.0993   20.6580 C.ar    1  UNL1        0.0001
      7 C          -7.9869  -19.8340   19.5849 C.ar    1  UNL1       -0.0003
      8 C          -9.3421  -19.3034   19.9480 C.ar    1  UNL1       -0.0041
      9 C          -9.6834  -19.0382   21.3843 C.ar    1  UNL1       -0.0181
     10 C         -11.0387  -18.5076   21.7476 C.3     1  UNL1        0.0225
     11 C         -11.7767  -18.7751   23.0257 C.3     1  UNL1        0.0044
     12 C         -13.0879  -18.0492   22.9645 C.3     1  UNL1        0.0003
     13 C         -13.1603  -17.3330   21.6484 C.3     1  UNL1        0.0003
     14 C         -11.8938  -17.6164   20.8963 C.3     1  UNL1        0.0044
     15 C          -8.2538  -16.5682   23.6176 C.3     1  UNL1        0.0927
     16 C          -8.9864  -15.8570   22.5188 C.3     1  UNL1        0.0383
     17 C          -8.0608  -14.8329   21.9318 C.3     1  UNL1        0.0704
     18 N          -6.7561  -14.9112   22.6679 N.3     1  UNL1       -0.2960
     19 C          -6.8754  -15.9837   23.7097 C.3     1  UNL1        0.0887
     20 H          -6.5561  -14.0160   23.1140 H       1  UNL1        0.1233
     21 C          -9.1444  -17.4052   25.9103 C.3     1  UNL1        0.0936
     22 C          -8.3263  -16.4339   26.7085 C.3     1  UNL1        0.0199
     23 C          -8.5512  -15.0548   27.2541 C.3     1  UNL1        0.0017
     24 C          -7.1693  -15.0603   27.8374 C.3     1  UNL1        0.0001
     25 C          -6.9444  -16.4393   27.2919 C.3     1  UNL1        0.0017
@<TRIPOS>BOND
     1     1     2    2
     2     2     4    1
     3     4     5   ar
     4     5     6   ar
     5     6     7   ar
     6     7     8   ar
     7     8     9   ar
     8     9    10    1
     9    10    11    1
    10    11    12    1
    11    12    13    1
    12    13    14    1
    13     2     3   am
    14     3    21    1
    15    21    22    1
    16    22    23    1
    17    23    24    1
    18    24    25    1
    19    15     3    1
    20    15    16    1
    21    16    17    1
    22    17    18    1
    23    18    19    1
    24     9     4   ar
    25    14    10    1
    26    25    22    1
    27    19    15    1
    28    18    20    1
@<TRIPOS>MOLECULE
*****
 25 28 0 0 0
SMALL
GASTEIGER

@<TRIPOS>ATOM
      1 O          -8.2666  -15.4509   21.3504 O.2     1  UNL1       -0.2699
      2 C          -8.9502  -16.5375   22.1263 C.2     1  UNL1        0.2487
      3 N          -8.1692  -17.3681   23.1011 N.am    1  UNL1       -0.2763
      4 C         -10.4147  -16.7937   21.9274 C.ar    1  UNL1        0.0496
      5 C         -11.4273  -15.9729   22.6697 C.ar    1  UNL1        0.0042
      6 C         -12.8917  -16.2291   22.4708 C.ar    1  UNL1        0.0001
      7 C         -13.3437  -17.3060   21.5295 C.ar    1  UNL1       -0.0003
      8 C         -12.3312  -18.1267   20.7871 C.ar    1  UNL1       -0.0041
      9 C         -10.8667  -17.8706   20.9861 C.ar    1  UNL1       -0.0181
     10 C          -9.8541  -18.6913   20.2437 C.3     1  UNL1        0.0225
     11 C          -8.3679  -18.6492   20.4427 C.3     1  UNL1        0.0044
     12 C          -7.7452  -19.6301   19.4940 C.3     1  UNL1        0.0003
     13 C          -8.8466  -20.2785   18.7086 C.3     1  UNL1        0.0003
     14 C         -10.1499  -19.6983   19.1719 C.3     1  UNL1        0.0044
     15 C          -8.8528  -18.4547   23.8770 C.3     1  UNL1        0.0927
     16 C          -8.9085  -19.9056   23.5005 C.3     1  UNL1        0.0383
     17 C          -9.6908  -20.6288   24.5564 C.3     1  UNL1        0.0704
     18 N         -10.1186  -19.6249   25.5856 N.3     1  UNL1       -0.2960
     19 C          -9.6006  -18.2812   25.1657 C.3     1  UNL1        0.0887
     20 H          -9.7322  -19.8759   26.4956 H       1  UNL1        0.1233
     21 C          -6.7047  -17.1120   23.3001 C.3     1  UNL1        0.0936
     22 C          -6.2421  -16.2442   24.4327 C.3     1  UNL1        0.0199
     23 C          -6.9240  -15.4221   25.4860 C.3     1  UNL1        0.0017
     24 C          -5.5880  -15.0169   26.0346 C.3     1  UNL1        0.0001
     25 C          -4.9062  -15.8390   24.9814 C.3     1  UNL1        0.0017
@<TRIPOS>BOND
     1     1     2    2
     2     2     4    1
     3     4     5   ar
     4     5     6   ar
     5     6     7   ar
     6     7     8   ar
     7     8     9   ar
     8     9    10    1
     9    10    11    1
    10    11    12    1
    11    12    13    1
    12    13    14    1
    13     2     3   am
    14     3    21    1
    15    21    22    1
    16    22    23    1
    17    23    24    1
    18    24    25    1
    19    15     3    1
    20    15    16    1
    21    16    17    1
    22    17    18    1
    23    18    19    1
    24     9     4   ar
    25    14    10    1
    26    25    22    1
    27    19    15    1
    28    18    20    1
@<TRIPOS>MOLECULE
*****
 25 28 0 0 0
SMALL
GASTEIGER

@<TRIPOS>ATOM
      1 O          -8.6893  -18.5909   24.5992 O.2     1  UNL1       -0.2699
      2 C          -8.9128  -17.8152   23.3350 C.2     1  UNL1        0.2487
      3 N          -8.8535  -16.3165   23.3542 N.am    1  UNL1       -0.2763
      4 C          -9.1958  -18.5381   22.0515 C.ar    1  UNL1        0.0496
      5 C          -8.0797  -18.8280   21.0922 C.ar    1  UNL1        0.0042
      6 C          -8.3627  -19.5509   19.8087 C.ar    1  UNL1        0.0001
      7 C          -9.7618  -19.9840   19.4846 C.ar    1  UNL1       -0.0003
      8 C         -10.8779  -19.6941   20.4439 C.ar    1  UNL1       -0.0041
      9 C         -10.5949  -18.9712   21.7274 C.ar    1  UNL1       -0.0181
     10 C         -11.7110  -18.6813   22.6868 C.3     1  UNL1        0.0225
     11 C         -12.9148  -17.8310   22.4080 C.3     1  UNL1        0.0044
     12 C         -13.7669  -17.8150   23.6423 C.3     1  UNL1        0.0003
     13 C         -13.0898  -18.6556   24.6840 C.3     1  UNL1        0.0003
     14 C         -11.8192  -19.1910   24.0934 C.3     1  UNL1        0.0044
     15 C          -9.0771  -15.5407   22.0900 C.3     1  UNL1        0.0927
     16 C          -8.1013  -14.5987   21.4493 C.3     1  UNL1        0.0383
     17 C          -8.7369  -14.0467   20.2078 C.3     1  UNL1        0.0704
     18 N         -10.1055  -14.6475   20.0812 N.3     1  UNL1       -0.2960
     19 C         -10.3157  -15.5708   21.2445 C.3     1  UNL1        0.0887
     20 H         -10.1749  -15.1697   19.2078 H       1  UNL1        0.1233
     21 C          -8.5705  -15.5935   24.6377 C.3     1  UNL1        0.0936
     22 C          -7.1666  -15.5136   25.1597 C.3     1  UNL1        0.0199
     23 C          -6.5407  -15.5050   26.5230 C.3     1  UNL1        0.0017
     24 C          -5.1811  -15.4007   25.8980 C.3     1  UNL1        0.0001
     25 C          -5.8069  -15.4093   24.5349 C.3     1  UNL1        0.0017
@<TRIPOS>BOND
     1     1     2    2
     2     2     4    1
     3     4     5   ar
     4     5     6   ar
     5     6     7   ar
     6     7     8   ar
     7     8     9   ar
     8     9    10    1
     9    10    11    1
    10    11    12    1
    11    12    13    1
    12    13    14    1
    13     2     3   am
    14     3    21    1
    15    21    22    1
    16    22    23    1
    17    23    24    1
    18    24    25    1
    19    15     3    1
    20    15    16    1
    21    16    17    1
    22    17    18    1
    23    18    19    1
    24     9     4   ar
    25    14    10    1
    26    25    22    1
    27    19    15    1
    28    18    20    1
@<TRIPOS>MOLECULE
*****
 25 28 0 0 0
SMALL
GASTEIGER

@<TRIPOS>ATOM
      1 O           4.1302   -0.9702   16.4054 O.2     1  UNL1       -0.2699
      2 C           5.0599   -0.3514   17.4068 C.2     1  UNL1        0.2487
      3 N           5.9898   -1.2184   18.2027 N.am    1  UNL1       -0.2763
      4 C           5.0596    1.1345   17.6122 C.ar    1  UNL1        0.0496
      5 C           6.0565    1.9917   16.8901 C.ar    1  UNL1        0.0042
      6 C           6.0562    3.4775   17.0955 C.ar    1  UNL1        0.0001
      7 C           5.0591    4.1062   18.0231 C.ar    1  UNL1       -0.0003
      8 C           4.0622    3.2491   18.7452 C.ar    1  UNL1       -0.0041
      9 C           4.0625    1.7633   18.5398 C.ar    1  UNL1       -0.0181
     10 C           3.0655    0.9061   19.2619 C.3     1  UNL1        0.0225
     11 C           3.2162    0.3570   20.6496 C.3     1  UNL1        0.0044
     12 C           1.9867   -0.4409   20.9685 C.3     1  UNL1        0.0003
     13 C           1.0761   -0.3850   19.7777 C.3     1  UNL1        0.0003
     14 C           1.7429    0.4474   18.7231 C.3     1  UNL1        0.0044
     15 C           6.9195   -0.5994   19.2041 C.3     1  UNL1        0.0927
     16 C           6.6283   -0.3791   20.6590 C.3     1  UNL1        0.0383
     17 C           7.8324    0.2643   21.2804 C.3     1  UNL1        0.0704
     18 N           8.8678    0.4416   20.2096 N.3     1  UNL1       -0.2960
     19 C           8.3035   -0.0922   18.9264 C.3     1  UNL1        0.0887
     20 H           9.7130   -0.0731   20.4567 H       1  UNL1        0.1233
     21 C           5.9901   -2.7042   17.9974 C.3     1  UNL1        0.0936
     22 C           4.9000   -3.5441   18.5944 C.3     1  UNL1        0.0199
     23 C           4.6751   -5.0157   18.7785 C.3     1  UNL1        0.0017
     24 C           3.3584   -4.7318   19.4386 C.3     1  UNL1        0.0001
     25 C           3.5833   -3.2603   19.2545 C.3     1  UNL1        0.0017
@<TRIPOS>BOND
     1     1     2    2
     2     2     4    1
     3     4     5   ar
     4     5     6   ar
     5     6     7   ar
     6     7     8   ar
     7     8     9   ar
     8     9    10    1
     9    10    11    1
    10    11    12    1
    11    12    13    1
    12    13    14    1
    13     2     3   am
    14     3    21    1
    15    21    22    1
    16    22    23    1
    17    23    24    1
    18    24    25    1
    19    15     3    1
    20    15    16    1
    21    16    17    1
    22    17    18    1
    23    18    19    1
    24     9     4   ar
    25    14    10    1
    26    25    22    1
    27    19    15    1
    28    18    20    1
@<TRIPOS>MOLECULE
*****
 25 28 0 0 0
SMALL
GASTEIGER

@<TRIPOS>ATOM
      1 O          -9.1820  -19.3009   25.1893 O.2     1  UNL1       -0.2699
      2 C          -9.6181  -19.0565   23.7751 C.2     1  UNL1        0.2487
      3 N          -8.8660  -19.6843   22.6392 N.am    1  UNL1       -0.2763
      4 C         -10.8064  -18.1844   23.4968 C.ar    1  UNL1        0.0496
      5 C         -12.1648  -18.7984   23.3306 C.ar    1  UNL1        0.0042
      6 C         -13.3530  -17.9263   23.0523 C.ar    1  UNL1        0.0001
      7 C         -13.1828  -16.4402   22.9401 C.ar    1  UNL1       -0.0003
      8 C         -11.8244  -15.8262   23.1062 C.ar    1  UNL1       -0.0041
      9 C         -10.6362  -16.6983   23.3846 C.ar    1  UNL1       -0.0181
     10 C          -9.2776  -16.0844   23.5507 C.3     1  UNL1        0.0225
     11 C          -8.7025  -15.5486   24.8283 C.3     1  UNL1        0.0044
     12 C          -7.3252  -15.0316   24.5356 C.3     1  UNL1        0.0003
     13 C          -7.0491  -15.2477   23.0771 C.3     1  UNL1        0.0003
     14 C          -8.2558  -15.8984   22.4685 C.3     1  UNL1        0.0044
     15 C          -9.3021  -19.4398   21.2249 C.3     1  UNL1        0.0927
     16 C         -10.6086  -19.8606   20.6200 C.3     1  UNL1        0.0383
     17 C         -10.6223  -19.4126   19.1886 C.3     1  UNL1        0.0704
     18 N          -9.3242  -18.7149   18.9088 N.3     1  UNL1       -0.2960
     19 C          -8.5083  -18.7317   20.1674 C.3     1  UNL1        0.0887
     20 H          -9.5031  -17.7516   18.6251 H       1  UNL1        0.1233
     21 C          -7.6777  -20.5563   22.9175 C.3     1  UNL1        0.0936
     22 C          -6.4251  -20.3981   22.1076 C.3     1  UNL1        0.0199
     23 C          -5.2013  -19.5361   22.2043 C.3     1  UNL1        0.0017
     24 C          -4.6537  -20.1743   20.9622 C.3     1  UNL1        0.0001
     25 C          -5.8774  -21.0362   20.8655 C.3     1  UNL1        0.0017
@<TRIPOS>BOND
     1     1     2    2
     2     2     4    1
     3     4     5   ar
     4     5     6   ar
     5     6     7   ar
     6     7     8   ar
     7     8     9   ar
     8     9    10    1
     9    10    11    1
    10    11    12    1
    11    12    13    1
    12    13    14    1
    13     2     3   am
    14     3    21    1
    15    21    22    1
    16    22    23    1
    17    23    24    1
    18    24    25    1
    19    15     3    1
    20    15    16    1
    21    16    17    1
    22    17    18    1
    23    18    19    1
    24     9     4   ar
    25    14    10    1
    26    25    22    1
    27    19    15    1
    28    18    20    1
