@<TRIPOS>MOLECULE
*****
 31 35 0 0 0
SMALL
GASTEIGER

@<TRIPOS>ATOM
      1 C          -1.1619    3.0062   26.3082 C.ar    1  UNL1        0.0846
      2 C          -2.2404    3.9968   26.6331 C.ar    1  UNL1        0.1180
      3 N          -2.7524    4.5644   25.3425 N.ar    1  UNL1       -0.2233
      4 C          -1.9904    3.9247   24.2200 C.ar    1  UNL1        0.1672
      5 C          -2.0646    4.0946   22.7316 C.ar    1  UNL1        0.1361
      6 N          -1.1558    3.3015   21.8399 N.ar    1  UNL1       -0.2392
      7 C          -0.1728    2.3385   22.4368 C.ar    1  UNL1        0.0989
      8 C          -0.0986    2.1685   23.9252 C.ar    1  UNL1        0.1006
      9 N          -1.0074    2.9616   24.8169 N.ar    1  UNL1       -0.2861
     10 C           1.1962    0.5919   29.2850 C.ar    1  UNL1        0.0684
     11 C          -0.1811    0.1521   28.8855 C.ar    1  UNL1        0.0103
     12 C          -0.9671    0.9569   27.8932 C.ar    1  UNL1        0.0022
     13 C          -0.3759    2.2014   27.3005 C.ar    1  UNL1        0.0177
     14 C           1.0015    2.6413   27.7000 C.ar    1  UNL1        0.0022
     15 C           1.7875    1.8365   28.6922 C.ar    1  UNL1        0.0103
     16 N           2.7681   -1.0176   31.2695 N.1     1  UNL1       -0.1908
     17 C           1.9822   -0.2128   30.2772 C.1     1  UNL1        0.1004
     18 C           0.7360    1.5453   21.5451 C.ar    1  UNL1        0.0191
     19 C           2.1970    1.8783   21.4763 C.ar    1  UNL1        0.0017
     20 C           3.1058    1.0851   20.5845 C.ar    1  UNL1        0.0046
     21 C           2.5536   -0.0409   19.7617 C.ar    1  UNL1        0.0536
     22 C           1.0925   -0.3738   19.8305 C.ar    1  UNL1        0.0046
     23 C           0.1838    0.4193   20.7222 C.ar    1  UNL1        0.0017
     24 C           3.4623   -0.8340   18.8700 C.2     1  UNL1        0.2492
     25 O           3.6550   -0.4240   17.4400 O.2     1  UNL1       -0.2699
     26 N           4.1783   -2.0371   19.4083 N.am    1  UNL1       -0.2709
     27 C           3.9856   -2.4471   20.8382 C.3     1  UNL1        0.1258
     28 C           4.7017   -3.6503   21.3765 C.3     1  UNL1        0.1637
     29 O           5.6105   -4.4434   20.4848 O.3     1  UNL1       -0.3501
     30 C           5.8032   -4.0334   19.0549 C.3     1  UNL1        0.1637
     31 C           5.0871   -2.8303   18.5166 C.3     1  UNL1        0.1258
@<TRIPOS>BOND
     1    16    17    3
     2    17    10    1
     3    10    11   ar
     4    11    12   ar
     5    12    13   ar
     6    13     1    1
     7     1     2   ar
     8     2     3   ar
     9     3     4   ar
    10     4     5   ar
    11     5     6   ar
    12     6     7   ar
    13     7    18    1
    14    18    19   ar
    15    19    20   ar
    16    20    21   ar
    17    21    24    1
    18    24    25    2
    19    24    26   am
    20    26    27    1
    21    27    28    1
    22    28    29    1
    23    29    30    1
    24    30    31    1
    25    21    22   ar
    26    22    23   ar
    27     7     8   ar
    28     8     9   ar
    29    13    14   ar
    30    14    15   ar
    31    15    10   ar
    32     9     1   ar
    33     9     4   ar
    34    23    18   ar
    35    31    26    1
@<TRIPOS>MOLECULE
*****
 31 35 0 0 0
SMALL
GASTEIGER

@<TRIPOS>ATOM
      1 C           2.3539    0.0815   19.6820 C.ar    1  UNL1        0.0846
      2 C           1.9042    0.5704   18.3371 C.ar    1  UNL1        0.1180
      3 N           0.8102    1.5741   18.5510 N.ar    1  UNL1       -0.2233
      4 C           0.5839    1.7056   20.0280 C.ar    1  UNL1        0.1672
      5 C          -0.3677    2.5461   20.8266 C.ar    1  UNL1        0.1361
      6 N          -0.3652    2.4641   22.3244 N.ar    1  UNL1       -0.2392
      7 C           0.5889    1.5416   23.0234 C.ar    1  UNL1        0.0989
      8 C           1.5405    0.7010   22.2247 C.ar    1  UNL1        0.1006
      9 N           1.5380    0.7831   20.7270 N.ar    1  UNL1       -0.2861
     10 C           5.5841   -2.9567   20.4473 C.ar    1  UNL1        0.0684
     11 C           5.8699   -1.4957   20.6308 C.ar    1  UNL1        0.0103
     12 C           4.7932   -0.4830   20.3757 C.ar    1  UNL1        0.0022
     13 C           3.4307   -0.9312   19.9371 C.ar    1  UNL1        0.0177
     14 C           3.1448   -2.3923   19.7536 C.ar    1  UNL1        0.0022
     15 C           4.2215   -3.4050   20.0087 C.ar    1  UNL1        0.0103
     16 N           7.7376   -4.9821   20.9575 N.1     1  UNL1       -0.1908
     17 C           6.6608   -3.9694   20.7025 C.1     1  UNL1        0.1004
     18 C           0.5914    1.4596   24.5212 C.ar    1  UNL1        0.0191
     19 C           1.8421    1.0641   25.2486 C.ar    1  UNL1        0.0017
     20 C           1.8446    0.9821   26.7464 C.ar    1  UNL1        0.0046
     21 C           0.5963    1.2956   27.5167 C.ar    1  UNL1        0.0536
     22 C          -0.6545    1.6911   26.7892 C.ar    1  UNL1        0.0046
     23 C          -0.6570    1.7731   25.2915 C.ar    1  UNL1        0.0017
     24 C           0.5987    1.2137   29.0145 C.2     1  UNL1        0.2492
     25 O           0.6080   -0.1244   29.6924 O.2     1  UNL1       -0.2699
     26 N           0.5918    2.4698   29.8343 N.am    1  UNL1       -0.2709
     27 C           0.5824    3.8078   29.1564 C.3     1  UNL1        0.1258
     28 C           0.5755    5.0639   29.9763 C.3     1  UNL1        0.1637
     29 O           0.5780    4.9820   31.4740 O.3     1  UNL1       -0.3501
     30 C           0.5873    3.6439   32.1519 C.3     1  UNL1        0.1637
     31 C           0.5942    2.3878   31.3321 C.3     1  UNL1        0.1258
@<TRIPOS>BOND
     1    16    17    3
     2    17    10    1
     3    10    11   ar
     4    11    12   ar
     5    12    13   ar
     6    13     1    1
     7     1     2   ar
     8     2     3   ar
     9     3     4   ar
    10     4     5   ar
    11     5     6   ar
    12     6     7   ar
    13     7    18    1
    14    18    19   ar
    15    19    20   ar
    16    20    21   ar
    17    21    24    1
    18    24    25    2
    19    24    26   am
    20    26    27    1
    21    27    28    1
    22    28    29    1
    23    29    30    1
    24    30    31    1
    25    21    22   ar
    26    22    23   ar
    27     7     8   ar
    28     8     9   ar
    29    13    14   ar
    30    14    15   ar
    31    15    10   ar
    32     9     1   ar
    33     9     4   ar
    34    23    18   ar
    35    31    26    1
@<TRIPOS>MOLECULE
*****
 31 35 0 0 0
SMALL
GASTEIGER

@<TRIPOS>ATOM
      1 C           0.5308    2.0551   19.3190 C.ar    1  UNL1        0.0846
      2 C           0.0061    2.8632   18.1694 C.ar    1  UNL1        0.1180
      3 N          -0.9195    3.9069   18.7207 N.ar    1  UNL1       -0.2233
      4 C          -0.9669    3.7439   20.2111 C.ar    1  UNL1        0.1672
      5 C          -1.7104    4.4897   21.2792 C.ar    1  UNL1        0.1361
      6 N          -1.5576    4.0910   22.7171 N.ar    1  UNL1       -0.2392
      7 C          -0.6612    2.9464   23.0869 C.ar    1  UNL1        0.0989
      8 C           0.0823    2.2006   22.0188 C.ar    1  UNL1        0.1006
      9 N          -0.0706    2.5994   20.5809 N.ar    1  UNL1       -0.2861
     10 C           3.4042   -1.3962   19.0329 C.ar    1  UNL1        0.0684
     11 C           3.5695   -0.2062   18.1348 C.ar    1  UNL1        0.0103
     12 C           2.6117    0.9442   18.2302 C.ar    1  UNL1        0.0022
     13 C           1.4886    0.9047   19.2236 C.ar    1  UNL1        0.0177
     14 C           1.3232   -0.2854   20.1217 C.ar    1  UNL1        0.0022
     15 C           2.2811   -1.4358   20.0263 C.ar    1  UNL1        0.0103
     16 N           5.3198   -3.6971   18.8422 N.1     1  UNL1       -0.1908
     17 C           4.3620   -2.5467   18.9375 C.1     1  UNL1        0.1004
     18 C          -0.5085    2.5477   24.5249 C.ar    1  UNL1        0.0191
     19 C           0.6884    1.7555   24.9604 C.ar    1  UNL1        0.0017
     20 C           0.8412    1.3568   26.3984 C.ar    1  UNL1        0.0046
     21 C          -0.2030    1.7504   27.4009 C.ar    1  UNL1        0.0536
     22 C          -1.3999    2.5427   26.9653 C.ar    1  UNL1        0.0046
     23 C          -1.5526    2.9414   25.5273 C.ar    1  UNL1        0.0017
     24 C          -0.0502    1.3517   28.8388 C.2     1  UNL1        0.2492
     25 O          -0.4642   -0.0192   29.2850 O.2     1  UNL1       -0.2699
     26 N           0.5165    2.3240   29.8305 N.am    1  UNL1       -0.2709
     27 C           0.9304    3.6950   29.3842 C.3     1  UNL1        0.1258
     28 C           1.4972    4.6673   30.3760 C.3     1  UNL1        0.1637
     29 O           1.6499    4.2686   31.8139 O.3     1  UNL1       -0.3501
     30 C           1.2359    2.8977   32.2602 C.3     1  UNL1        0.1637
     31 C           0.6692    1.9254   31.2685 C.3     1  UNL1        0.1258
@<TRIPOS>BOND
     1    16    17    3
     2    17    10    1
     3    10    11   ar
     4    11    12   ar
     5    12    13   ar
     6    13     1    1
     7     1     2   ar
     8     2     3   ar
     9     3     4   ar
    10     4     5   ar
    11     5     6   ar
    12     6     7   ar
    13     7    18    1
    14    18    19   ar
    15    19    20   ar
    16    20    21   ar
    17    21    24    1
    18    24    25    2
    19    24    26   am
    20    26    27    1
    21    27    28    1
    22    28    29    1
    23    29    30    1
    24    30    31    1
    25    21    22   ar
    26    22    23   ar
    27     7     8   ar
    28     8     9   ar
    29    13    14   ar
    30    14    15   ar
    31    15    10   ar
    32     9     1   ar
    33     9     4   ar
    34    23    18   ar
    35    31    26    1
@<TRIPOS>MOLECULE
*****
 31 35 0 0 0
SMALL
GASTEIGER

@<TRIPOS>ATOM
      1 C           4.0596   -1.1536   18.9804 C.ar    1  UNL1        0.0846
      2 C           4.5061   -1.5894   17.6163 C.ar    1  UNL1        0.1180
      3 N           5.7647   -2.3900   17.7744 N.ar    1  UNL1       -0.2233
      4 C           6.0960   -2.4490   19.2362 C.ar    1  UNL1        0.1672
      5 C           7.2211   -3.0998   19.9849 C.ar    1  UNL1        0.1361
      6 N           7.2924   -2.9864   21.4788 N.ar    1  UNL1       -0.2392
      7 C           6.2386   -2.2222   22.2242 C.ar    1  UNL1        0.0989
      8 C           5.1134   -1.5714   21.4755 C.ar    1  UNL1        0.1006
      9 N           5.0422   -1.6848   19.9815 N.ar    1  UNL1       -0.2861
     10 C           0.4124    1.3143   19.9066 C.ar    1  UNL1        0.0684
     11 C           1.4994    1.8782   19.0404 C.ar    1  UNL1        0.0103
     12 C           2.7151    1.0556   18.7316 C.ar    1  UNL1        0.0022
     13 C           2.8438   -0.3310   19.2891 C.ar    1  UNL1        0.0177
     14 C           1.7568   -0.8949   20.1554 C.ar    1  UNL1        0.0022
     15 C           0.5411   -0.0723   20.4641 C.ar    1  UNL1        0.0103
     16 N          -2.0191    2.9594   20.5242 N.1     1  UNL1       -0.1908
     17 C          -0.8033    2.1369   20.2154 C.1     1  UNL1        0.1004
     18 C           6.3099   -2.1088   23.7182 C.ar    1  UNL1        0.0191
     19 C           7.6426   -2.0922   24.4063 C.ar    1  UNL1        0.0017
     20 C           7.7139   -1.9788   25.9004 C.ar    1  UNL1        0.0046
     21 C           6.4525   -1.8821   26.7063 C.ar    1  UNL1        0.0536
     22 C           5.1197   -1.8988   26.0181 C.ar    1  UNL1        0.0046
     23 C           5.0485   -2.0121   24.5241 C.ar    1  UNL1        0.0017
     24 C           6.5238   -1.7688   28.2002 C.2     1  UNL1        0.2492
     25 O           6.4967   -0.4181   28.8521 O.2     1  UNL1       -0.2699
     26 N           6.6222   -3.0061   29.0424 N.am    1  UNL1       -0.2709
     27 C           6.6493   -4.3568   28.3906 C.3     1  UNL1        0.1258
     28 C           6.7477   -5.5942   29.2328 C.3     1  UNL1        0.1637
     29 O           6.8190   -5.4808   30.7268 O.3     1  UNL1       -0.3501
     30 C           6.7919   -4.1301   31.3786 C.3     1  UNL1        0.1637
     31 C           6.6935   -2.8928   30.5365 C.3     1  UNL1        0.1258
@<TRIPOS>BOND
     1    16    17    3
     2    17    10    1
     3    10    11   ar
     4    11    12   ar
     5    12    13   ar
     6    13     1    1
     7     1     2   ar
     8     2     3   ar
     9     3     4   ar
    10     4     5   ar
    11     5     6   ar
    12     6     7   ar
    13     7    18    1
    14    18    19   ar
    15    19    20   ar
    16    20    21   ar
    17    21    24    1
    18    24    25    2
    19    24    26   am
    20    26    27    1
    21    27    28    1
    22    28    29    1
    23    29    30    1
    24    30    31    1
    25    21    22   ar
    26    22    23   ar
    27     7     8   ar
    28     8     9   ar
    29    13    14   ar
    30    14    15   ar
    31    15    10   ar
    32     9     1   ar
    33     9     4   ar
    34    23    18   ar
    35    31    26    1
@<TRIPOS>MOLECULE
*****
 31 35 0 0 0
SMALL
GASTEIGER

@<TRIPOS>ATOM
      1 C           0.5739    1.2891   21.4553 C.ar    1  UNL1        0.0846
      2 C          -0.1905    1.9948   20.3748 C.ar    1  UNL1        0.1180
      3 N          -1.0688    3.0228   21.0243 N.ar    1  UNL1       -0.2233
      4 C          -0.8471    2.9524   22.5061 C.ar    1  UNL1        0.1672
      5 C          -1.4386    3.7256   23.6473 C.ar    1  UNL1        0.1361
      6 N          -1.0148    3.4271   25.0549 N.ar    1  UNL1       -0.2392
      7 C           0.0005    2.3556   25.3213 C.ar    1  UNL1        0.0989
      8 C           0.5920    1.5825   24.1801 C.ar    1  UNL1        0.1006
      9 N           0.1681    1.8809   22.7725 N.ar    1  UNL1       -0.2861
     10 C           3.5606   -2.0224   20.8513 C.ar    1  UNL1        0.0684
     11 C           2.5976   -1.6719   19.7559 C.ar    1  UNL1        0.0103
     12 C           1.6021   -0.5681   19.9573 C.ar    1  UNL1        0.0022
     13 C           1.5695    0.1853   21.2539 C.ar    1  UNL1        0.0177
     14 C           2.5325   -0.1653   22.3493 C.ar    1  UNL1        0.0022
     15 C           3.5280   -1.2691   22.1480 C.ar    1  UNL1        0.0103
     16 N           5.5517   -4.2299   20.4486 N.1     1  UNL1       -0.1908
     17 C           4.5561   -3.1262   20.6499 C.1     1  UNL1        0.1004
     18 C           0.4243    2.0572   26.7289 C.ar    1  UNL1        0.0191
     19 C          -0.1977    0.9128   27.4728 C.ar    1  UNL1        0.0017
     20 C           0.2261    0.6144   28.8805 C.ar    1  UNL1        0.0046
     21 C           1.2719    1.4605   29.5442 C.ar    1  UNL1        0.0536
     22 C           1.8939    2.6049   28.8002 C.ar    1  UNL1        0.0046
     23 C           1.4701    2.9033   27.3926 C.ar    1  UNL1        0.0017
     24 C           1.6957    1.1621   30.9518 C.2     1  UNL1        0.2492
     25 O           0.9092    1.7125   32.1044 O.2     1  UNL1       -0.2699
     26 N           2.9059    0.3135   31.2067 N.am    1  UNL1       -0.2709
     27 C           3.6924   -0.2369   30.0540 C.3     1  UNL1        0.1258
     28 C           4.9027   -1.0856   30.3090 C.3     1  UNL1        0.1637
     29 O           5.3265   -1.3839   31.7166 O.3     1  UNL1       -0.3501
     30 C           4.5400   -0.8336   32.8692 C.3     1  UNL1        0.1637
     31 C           3.3298    0.0151   32.6143 C.3     1  UNL1        0.1258
@<TRIPOS>BOND
     1    16    17    3
     2    17    10    1
     3    10    11   ar
     4    11    12   ar
     5    12    13   ar
     6    13     1    1
     7     1     2   ar
     8     2     3   ar
     9     3     4   ar
    10     4     5   ar
    11     5     6   ar
    12     6     7   ar
    13     7    18    1
    14    18    19   ar
    15    19    20   ar
    16    20    21   ar
    17    21    24    1
    18    24    25    2
    19    24    26   am
    20    26    27    1
    21    27    28    1
    22    28    29    1
    23    29    30    1
    24    30    31    1
    25    21    22   ar
    26    22    23   ar
    27     7     8   ar
    28     8     9   ar
    29    13    14   ar
    30    14    15   ar
    31    15    10   ar
    32     9     1   ar
    33     9     4   ar
    34    23    18   ar
    35    31    26    1
@<TRIPOS>MOLECULE
*****
 31 35 0 0 0
SMALL
GASTEIGER

@<TRIPOS>ATOM
      1 C           4.3596   -2.3506   20.2877 C.ar    1  UNL1        0.0846
      2 C           4.9757   -3.4465   19.4696 C.ar    1  UNL1        0.1180
      3 N           5.8170   -4.2890   20.3819 N.ar    1  UNL1       -0.2233
      4 C           5.7209   -3.7137   21.7639 C.ar    1  UNL1        0.1672
      5 C           6.3373   -4.1260   23.0677 C.ar    1  UNL1        0.1361
      6 N           6.0529   -3.3403   24.3134 N.ar    1  UNL1       -0.2392
      7 C           5.1521   -2.1423   24.2552 C.ar    1  UNL1        0.0989
      8 C           4.5358   -1.7300   22.9513 C.ar    1  UNL1        0.1006
      9 N           4.8202   -2.5157   21.7057 N.ar    1  UNL1       -0.2861
     10 C           1.6118    0.8677   18.7572 C.ar    1  UNL1        0.0684
     11 C           3.0224    0.7840   18.2540 C.ar    1  UNL1        0.0103
     12 C           3.9383   -0.2888   18.7642 C.ar    1  UNL1        0.0022
     13 C           3.4437   -1.2778   19.7775 C.ar    1  UNL1        0.0177
     14 C           2.0330   -1.1942   20.2808 C.ar    1  UNL1        0.0022
     15 C           1.1171   -0.1214   19.7706 C.ar    1  UNL1        0.0103
     16 N          -0.2199    3.0133   17.7368 N.1     1  UNL1       -0.1908
     17 C           0.6959    1.9405   18.2470 C.1     1  UNL1        0.1004
     18 C           4.8677   -1.3566   25.5009 C.ar    1  UNL1        0.0191
     19 C           4.5727    0.1113   25.4108 C.ar    1  UNL1        0.0017
     20 C           4.2883    0.8971   26.6566 C.ar    1  UNL1        0.0046
     21 C           4.2989    0.2148   27.9924 C.ar    1  UNL1        0.0536
     22 C           4.5939   -1.2532   28.0825 C.ar    1  UNL1        0.0046
     23 C           4.8782   -2.0389   26.8367 C.ar    1  UNL1        0.0017
     24 C           4.0145    1.0004   29.2381 C.2     1  UNL1        0.2492
     25 O           5.1391    1.6517   29.9872 O.2     1  UNL1       -0.2699
     26 N           2.6055    1.1348   29.7347 N.am    1  UNL1       -0.2709
     27 C           1.4809    0.4836   28.9856 C.3     1  UNL1        0.1258
     28 C           0.0719    0.6180   29.4822 C.3     1  UNL1        0.1637
     29 O          -0.2125    1.4037   30.7279 O.3     1  UNL1       -0.3501
     30 C           0.9121    2.0549   31.4771 C.3     1  UNL1        0.1637
     31 C           2.3211    1.9205   30.9805 C.3     1  UNL1        0.1258
@<TRIPOS>BOND
     1    16    17    3
     2    17    10    1
     3    10    11   ar
     4    11    12   ar
     5    12    13   ar
     6    13     1    1
     7     1     2   ar
     8     2     3   ar
     9     3     4   ar
    10     4     5   ar
    11     5     6   ar
    12     6     7   ar
    13     7    18    1
    14    18    19   ar
    15    19    20   ar
    16    20    21   ar
    17    21    24    1
    18    24    25    2
    19    24    26   am
    20    26    27    1
    21    27    28    1
    22    28    29    1
    23    29    30    1
    24    30    31    1
    25    21    22   ar
    26    22    23   ar
    27     7     8   ar
    28     8     9   ar
    29    13    14   ar
    30    14    15   ar
    31    15    10   ar
    32     9     1   ar
    33     9     4   ar
    34    23    18   ar
    35    31    26    1
@<TRIPOS>MOLECULE
*****
 31 35 0 0 0
SMALL
GASTEIGER

@<TRIPOS>ATOM
      1 C           3.7474    0.7177   33.6513 C.ar    1  UNL1        0.0846
      2 C           3.9283    1.1759   35.0682 C.ar    1  UNL1        0.1180
      3 N           3.0242    2.3513   35.2941 N.ar    1  UNL1       -0.2233
      4 C           2.2846    2.6195   34.0170 C.ar    1  UNL1        0.1672
      5 C           1.2619    3.6527   33.6474 C.ar    1  UNL1        0.1361
      6 N           0.6863    3.6763   32.2625 N.ar    1  UNL1       -0.2392
      7 C           1.1333    2.6666   31.2472 C.ar    1  UNL1        0.0989
      8 C           2.1559    1.6335   31.6168 C.ar    1  UNL1        0.1006
      9 N           2.7316    1.6099   33.0017 N.ar    1  UNL1       -0.2861
     10 C           5.8783   -2.7286   31.6935 C.ar    1  UNL1        0.0684
     11 C           6.0151   -1.3449   31.1307 C.ar    1  UNL1        0.0103
     12 C           5.3048   -0.1962   31.7834 C.ar    1  UNL1        0.0022
     13 C           4.4577   -0.4310   32.9987 C.ar    1  UNL1        0.0177
     14 C           4.3209   -1.8148   33.5615 C.ar    1  UNL1        0.0022
     15 C           5.0312   -2.9635   32.9089 C.ar    1  UNL1        0.0103
     16 N           7.2988   -5.0259   30.3882 N.1     1  UNL1       -0.1908
     17 C           6.5886   -3.8773   31.0409 C.1     1  UNL1        0.1004
     18 C           0.5575    2.6902   29.8622 C.ar    1  UNL1        0.0191
     19 C          -0.0563    1.4498   29.2840 C.ar    1  UNL1        0.0017
     20 C          -0.6321    1.4734   27.8990 C.ar    1  UNL1        0.0046
     21 C          -0.5939    2.7375   27.0924 C.ar    1  UNL1        0.0536
     22 C           0.0199    3.9780   27.6707 C.ar    1  UNL1        0.0046
     23 C           0.5956    3.9543   29.0556 C.ar    1  UNL1        0.0017
     24 C          -1.1696    2.7611   25.7075 C.2     1  UNL1        0.2492
     25 O          -0.3682    2.2369   24.5530 O.2     1  UNL1       -0.2699
     26 N          -2.5468    3.3090   25.4771 N.am    1  UNL1       -0.2709
     27 C          -3.3483    3.8332   26.6315 C.3     1  UNL1        0.1258
     28 C          -4.7256    4.3811   26.4011 C.3     1  UNL1        0.1637
     29 O          -5.3013    4.4048   25.0162 O.3     1  UNL1       -0.3501
     30 C          -4.4998    3.8805   23.8617 C.3     1  UNL1        0.1637
     31 C          -3.1226    3.3326   24.0921 C.3     1  UNL1        0.1258
@<TRIPOS>BOND
     1    16    17    3
     2    17    10    1
     3    10    11   ar
     4    11    12   ar
     5    12    13   ar
     6    13     1    1
     7     1     2   ar
     8     2     3   ar
     9     3     4   ar
    10     4     5   ar
    11     5     6   ar
    12     6     7   ar
    13     7    18    1
    14    18    19   ar
    15    19    20   ar
    16    20    21   ar
    17    21    24    1
    18    24    25    2
    19    24    26   am
    20    26    27    1
    21    27    28    1
    22    28    29    1
    23    29    30    1
    24    30    31    1
    25    21    22   ar
    26    22    23   ar
    27     7     8   ar
    28     8     9   ar
    29    13    14   ar
    30    14    15   ar
    31    15    10   ar
    32     9     1   ar
    33     9     4   ar
    34    23    18   ar
    35    31    26    1
@<TRIPOS>MOLECULE
*****
 31 35 0 0 0
SMALL
GASTEIGER

@<TRIPOS>ATOM
      1 C          -0.7005    2.5936   20.8297 C.ar    1  UNL1        0.0846
      2 C          -1.6742    3.3820   20.0050 C.ar    1  UNL1        0.1180
      3 N          -2.5459    4.1659   20.9408 N.ar    1  UNL1       -0.2233
      4 C          -2.1109    3.8620   22.3438 C.ar    1  UNL1        0.1672
      5 C          -2.6060    4.3445   23.6749 C.ar    1  UNL1        0.1361
      6 N          -1.9606    3.8553   24.9374 N.ar    1  UNL1       -0.2392
      7 C          -0.8200    2.8835   24.8688 C.ar    1  UNL1        0.0989
      8 C          -0.3249    2.4009   23.5376 C.ar    1  UNL1        0.1006
      9 N          -0.9704    2.8902   22.2751 N.ar    1  UNL1       -0.2861
     10 C           2.4734   -0.1755   19.2457 C.ar    1  UNL1        0.0684
     11 C           1.3885   -0.7083   20.1341 C.ar    1  UNL1        0.0103
     12 C           0.3306    0.2148   20.6621 C.ar    1  UNL1        0.0022
     13 C           0.3574    1.6705   20.3017 C.ar    1  UNL1        0.0177
     14 C           1.4423    2.2033   19.4132 C.ar    1  UNL1        0.0022
     15 C           2.5003    1.2803   18.8852 C.ar    1  UNL1        0.0103
     16 N           4.5892   -2.0216   18.1898 N.1     1  UNL1       -0.1908
     17 C           3.5313   -1.0986   18.7177 C.1     1  UNL1        0.1004
     18 C          -0.1745    2.3943   26.1314 C.ar    1  UNL1        0.0191
     19 C          -1.0016    1.7141   27.1817 C.ar    1  UNL1        0.0017
     20 C          -0.3561    1.2249   28.4443 C.ar    1  UNL1        0.0046
     21 C           1.1164    1.4158   28.6565 C.ar    1  UNL1        0.0536
     22 C           1.9436    2.0960   27.6061 C.ar    1  UNL1        0.0046
     23 C           1.2981    2.5852   26.3435 C.ar    1  UNL1        0.0017
     24 C           1.7619    0.9266   29.9190 C.2     1  UNL1        0.2492
     25 O           2.4703   -0.3955   29.9356 O.2     1  UNL1       -0.2699
     26 N           1.6991    1.7595   31.1649 N.am    1  UNL1       -0.2709
     27 C           0.9907    3.0817   31.1482 C.3     1  UNL1        0.1258
     28 C           0.9279    3.9146   32.3942 C.3     1  UNL1        0.1637
     29 O           1.5734    3.4254   33.6567 O.3     1  UNL1       -0.3501
     30 C           2.2817    2.1033   33.6733 C.3     1  UNL1        0.1637
     31 C           2.3446    1.2704   32.4275 C.3     1  UNL1        0.1258
@<TRIPOS>BOND
     1    16    17    3
     2    17    10    1
     3    10    11   ar
     4    11    12   ar
     5    12    13   ar
     6    13     1    1
     7     1     2   ar
     8     2     3   ar
     9     3     4   ar
    10     4     5   ar
    11     5     6   ar
    12     6     7   ar
    13     7    18    1
    14    18    19   ar
    15    19    20   ar
    16    20    21   ar
    17    21    24    1
    18    24    25    2
    19    24    26   am
    20    26    27    1
    21    27    28    1
    22    28    29    1
    23    29    30    1
    24    30    31    1
    25    21    22   ar
    26    22    23   ar
    27     7     8   ar
    28     8     9   ar
    29    13    14   ar
    30    14    15   ar
    31    15    10   ar
    32     9     1   ar
    33     9     4   ar
    34    23    18   ar
    35    31    26    1
@<TRIPOS>MOLECULE
*****
 31 35 0 0 0
SMALL
GASTEIGER

@<TRIPOS>ATOM
      1 C           4.0286   -1.1053   18.9381 C.ar    1  UNL1        0.0846
      2 C           4.5195   -1.6554   17.6318 C.ar    1  UNL1        0.1180
      3 N           5.7045   -2.5307   17.9135 N.ar    1  UNL1       -0.2233
      4 C           5.9461   -2.5217   19.3939 C.ar    1  UNL1        0.1672
      5 C           6.9753   -3.2018   20.2471 C.ar    1  UNL1        0.1361
      6 N           6.9688   -3.0010   21.7335 N.ar    1  UNL1       -0.2392
      7 C           5.9330   -2.1200   22.3668 C.ar    1  UNL1        0.0989
      8 C           4.9037   -1.4399   21.5136 C.ar    1  UNL1        0.1006
      9 N           4.9103   -1.6407   20.0272 N.ar    1  UNL1       -0.2861
     10 C           0.5259    1.6648   19.4926 C.ar    1  UNL1        0.0684
     11 C           0.5041    0.2961   20.1059 C.ar    1  UNL1        0.0103
     12 C           1.6716   -0.6273   19.9210 C.ar    1  UNL1        0.0022
     13 C           2.8610   -0.1820   19.1230 C.ar    1  UNL1        0.0177
     14 C           2.8829    1.1868   18.5097 C.ar    1  UNL1        0.0022
     15 C           1.7153    2.1102   18.6946 C.ar    1  UNL1        0.0103
     16 N          -1.8092    3.5116   19.8623 N.1     1  UNL1       -0.1908
     17 C          -0.6417    2.5882   19.6775 C.1     1  UNL1        0.1004
     18 C           5.9265   -1.9192   23.8533 C.ar    1  UNL1        0.0191
     19 C           6.1324   -3.0892   24.7691 C.ar    1  UNL1        0.0017
     20 C           6.1259   -2.8884   26.2556 C.ar    1  UNL1        0.0046
     21 C           5.9135   -1.5175   26.8263 C.ar    1  UNL1        0.0536
     22 C           5.7076   -0.3475   25.9105 C.ar    1  UNL1        0.0046
     23 C           5.7141   -0.5484   24.4240 C.ar    1  UNL1        0.0017
     24 C           5.9070   -1.3167   28.3128 C.2     1  UNL1        0.2492
     25 O           7.1874   -1.4129   29.0882 O.2     1  UNL1       -0.2699
     26 N           4.6201   -1.0196   29.0238 N.am    1  UNL1       -0.2709
     27 C           3.3397   -0.9233   28.2483 C.3     1  UNL1        0.1258
     28 C           2.0528   -0.6262   28.9594 C.3     1  UNL1        0.1637
     29 O           2.0463   -0.4253   30.4458 O.3     1  UNL1       -0.3501
     30 C           3.3267   -0.5216   31.2213 C.3     1  UNL1        0.1637
     31 C           4.6136   -0.8187   30.5103 C.3     1  UNL1        0.1258
@<TRIPOS>BOND
     1    16    17    3
     2    17    10    1
     3    10    11   ar
     4    11    12   ar
     5    12    13   ar
     6    13     1    1
     7     1     2   ar
     8     2     3   ar
     9     3     4   ar
    10     4     5   ar
    11     5     6   ar
    12     6     7   ar
    13     7    18    1
    14    18    19   ar
    15    19    20   ar
    16    20    21   ar
    17    21    24    1
    18    24    25    2
    19    24    26   am
    20    26    27    1
    21    27    28    1
    22    28    29    1
    23    29    30    1
    24    30    31    1
    25    21    22   ar
    26    22    23   ar
    27     7     8   ar
    28     8     9   ar
    29    13    14   ar
    30    14    15   ar
    31    15    10   ar
    32     9     1   ar
    33     9     4   ar
    34    23    18   ar
    35    31    26    1
