@<TRIPOS>MOLECULE
*****
 33 35 0 0 0
SMALL
GASTEIGER

@<TRIPOS>ATOM
      1 C           2.9844   -0.5421   20.8009 C.ar    1  UNL1        0.0267
      2 C           1.5976   -0.0683   21.1206 C.ar    1  UNL1        0.0144
      3 C           0.8617    0.8071   20.1500 C.ar    1  UNL1        0.0505
      4 C           1.5126    1.2086   18.8596 C.ar    1  UNL1        0.0170
      5 C           2.8994    0.7349   18.5399 C.ar    1  UNL1        0.0306
      6 C           3.6353   -0.1405   19.5106 C.ar    1  UNL1        0.1379
      7 F           5.0222   -0.6143   19.1909 F       1  UNL1       -0.2044
      8 C           3.4502   -0.2288   22.6458 C.3     1  UNL1        0.0292
      9 C           3.7203   -1.4175   21.7716 C.3     1  UNL1        0.1134
     10 C           3.7349   -2.3020   20.5603 C.3     1  UNL1        0.0794
     11 C           4.3916   -3.6492   20.6233 C.3     1  UNL1        0.2649
     12 O           5.0337   -4.1117   21.8976 O.2     1  UNL1       -0.4449
     13 C           5.0191   -3.2272   23.1088 C.2     1  UNL1        0.2769
     14 N           5.6612   -3.6897   24.3831 N.pl3   1  UNL1       -0.3133
     15 N           4.3624   -1.8800   23.0459 N.2     1  UNL1       -0.2241
     16 H           6.0922   -4.5739   24.4245 H       1  UNL1        0.1466
     17 H           5.6517   -3.1091   25.1782 H       1  UNL1        0.1466
     18 C           4.4061   -4.5338   19.4119 C.3     1  UNL1        0.4342
     19 F           4.4208   -5.4182   18.2005 F       1  UNL1       -0.1664
     20 F           5.3960   -3.6178   18.7550 F       1  UNL1       -0.1664
     21 F           3.4163   -5.4496   20.0687 F       1  UNL1       -0.1664
     22 N          -0.5252    1.2809   20.4697 N.am    1  UNL1       -0.2791
     23 C          -0.7309    2.6231   21.1068 C.2     1  UNL1        0.2672
     24 O           0.4503    3.4916   21.4243 O.2     1  UNL1       -0.2682
     25 H          -1.3004    0.7109   20.2613 H       1  UNL1        0.1552
     26 C          -2.1177    3.0970   21.4265 C.ar    1  UNL1        0.1348
     27 C          -2.3966    3.7703   22.7375 C.ar    1  UNL1        0.0245
     28 C          -3.7835    4.2442   23.0572 C.ar    1  UNL1        0.0135
     29 C          -4.8914    4.0447   22.0659 C.ar    1  UNL1        0.0876
     30 C          -4.6124    3.3713   20.7548 C.ar    1  UNL1        0.1092
     31 N          -3.2256    2.8975   20.4351 N.ar    1  UNL1       -0.2385
     32 C          -6.2782    4.5185   22.3855 C.1     1  UNL1        0.1020
     33 N          -7.6650    4.9923   22.7053 N.1     1  UNL1       -0.1908
@<TRIPOS>BOND
     1     9     8    1
     2     9     1    1
     3     1     2   ar
     4     2     3   ar
     5     3    22    1
     6    22    23   am
     7    23    24    2
     8    23    26    1
     9    26    27   ar
    10    27    28   ar
    11    28    29   ar
    12    29    32    1
    13    32    33    3
    14    29    30   ar
    15    30    31   ar
    16     3     4   ar
    17     4     5   ar
    18     5     6   ar
    19     6     7    1
    20     9    10    1
    21    10    11    1
    22    11    18    1
    23    18    19    1
    24    18    20    1
    25    18    21    1
    26    11    12    1
    27    12    13    1
    28    13    14    1
    29    13    15    2
    30    15     9    1
    31     6     1   ar
    32    31    26   ar
    33    22    25    1
    34    14    16    1
    35    14    17    1
@<TRIPOS>MOLECULE
*****
 33 35 0 0 0
SMALL
GASTEIGER

@<TRIPOS>ATOM
      1 C           2.9320    0.6715   18.7419 C.ar    1  UNL1        0.0267
      2 C           1.5197    0.9752   19.1456 C.ar    1  UNL1        0.0144
      3 C           1.0404    2.3959   19.1863 C.ar    1  UNL1        0.0505
      4 C           1.9734    3.5130   18.8234 C.ar    1  UNL1        0.0170
      5 C           3.3857    3.2093   18.4197 C.ar    1  UNL1        0.0306
      6 C           3.8651    1.7885   18.3790 C.ar    1  UNL1        0.1379
      7 F           5.2775    1.4848   17.9752 F       1  UNL1       -0.2044
      8 C           3.3838   -0.4414   17.2332 C.3     1  UNL1        0.0292
      9 C           3.4114   -0.7493   18.7011 C.3     1  UNL1        0.1134
     10 C           3.2725   -0.5638   20.1830 C.3     1  UNL1        0.0794
     11 C           3.6034   -1.6920   21.1144 C.3     1  UNL1        0.2649
     12 O           4.0732   -3.0059   20.5638 O.2     1  UNL1       -0.4449
     13 C           4.2121   -3.1914   19.0819 C.2     1  UNL1        0.2769
     14 N           4.6819   -4.5053   18.5312 N.pl3   1  UNL1       -0.3133
     15 N           3.8812   -2.0632   18.1505 N.2     1  UNL1       -0.2241
     16 H           4.8991   -5.2458   19.1425 H       1  UNL1        0.1466
     17 H           4.7731   -4.6271   17.5586 H       1  UNL1        0.1466
     18 C           3.4645   -1.5064   22.5964 C.3     1  UNL1        0.4342
     19 F           3.3257   -1.3209   24.0784 F       1  UNL1       -0.1664
     20 F           4.0749   -2.8579   22.8228 F       1  UNL1       -0.1664
     21 F           2.8543   -0.1551   22.3700 F       1  UNL1       -0.1664
     22 N          -0.3720    2.6997   19.5901 N.am    1  UNL1       -0.2791
     23 C          -0.7105    2.9067   21.0366 C.2     1  UNL1        0.2672
     24 O           0.3634    2.8101   22.0795 O.2     1  UNL1       -0.2682
     25 H          -1.0768    2.7631   18.9056 H       1  UNL1        0.1552
     26 C          -2.1228    3.2105   21.4404 C.ar    1  UNL1        0.1348
     27 C          -2.4087    3.7800   22.7983 C.ar    1  UNL1        0.0245
     28 C          -3.8212    4.0837   23.2020 C.ar    1  UNL1        0.0135
     29 C          -4.9476    3.8180   22.2478 C.ar    1  UNL1        0.0876
     30 C          -4.6617    3.2485   20.8899 C.ar    1  UNL1        0.1092
     31 N          -3.2494    2.9448   20.4862 N.ar    1  UNL1       -0.2385
     32 C          -6.3599    4.1217   22.6516 C.1     1  UNL1        0.1020
     33 N          -7.7723    4.4255   23.0553 N.1     1  UNL1       -0.1908
@<TRIPOS>BOND
     1     9     8    1
     2     9     1    1
     3     1     2   ar
     4     2     3   ar
     5     3    22    1
     6    22    23   am
     7    23    24    2
     8    23    26    1
     9    26    27   ar
    10    27    28   ar
    11    28    29   ar
    12    29    32    1
    13    32    33    3
    14    29    30   ar
    15    30    31   ar
    16     3     4   ar
    17     4     5   ar
    18     5     6   ar
    19     6     7    1
    20     9    10    1
    21    10    11    1
    22    11    18    1
    23    18    19    1
    24    18    20    1
    25    18    21    1
    26    11    12    1
    27    12    13    1
    28    13    14    1
    29    13    15    2
    30    15     9    1
    31     6     1   ar
    32    31    26   ar
    33    22    25    1
    34    14    16    1
    35    14    17    1
@<TRIPOS>MOLECULE
*****
 33 35 0 0 0
SMALL
GASTEIGER

@<TRIPOS>ATOM
      1 C           3.5061   -0.2357   19.7666 C.ar    1  UNL1        0.0267
      2 C           2.5250    0.1367   20.8383 C.ar    1  UNL1        0.0144
      3 C           1.1911    0.7131   20.4665 C.ar    1  UNL1        0.0505
      4 C           0.8383    0.9171   19.0229 C.ar    1  UNL1        0.0170
      5 C           1.8194    0.5447   17.9512 C.ar    1  UNL1        0.0306
      6 C           3.1533   -0.0317   18.3230 C.ar    1  UNL1        0.1379
      7 F           4.1345   -0.4042   17.2513 F       1  UNL1       -0.2044
      8 C           5.1795    0.6490   20.1352 C.3     1  UNL1        0.0292
      9 C           4.8401   -0.8122   20.1384 C.3     1  UNL1        0.1134
     10 C           4.0375   -2.0731   20.0124 C.3     1  UNL1        0.0794
     11 C           4.6867   -3.4030   20.2572 C.3     1  UNL1        0.2649
     12 O           6.1386   -3.4719   20.6279 O.2     1  UNL1       -0.4449
     13 C           6.9412   -2.2111   20.7538 C.2     1  UNL1        0.2769
     14 N           8.3931   -2.2801   21.1245 N.pl3   1  UNL1       -0.3133
     15 N           6.2920   -0.8812   20.5091 N.2     1  UNL1       -0.2241
     16 H           8.8192   -3.1529   21.2852 H       1  UNL1        0.1466
     17 H           8.9198   -1.4525   21.2072 H       1  UNL1        0.1466
     18 C           3.8840   -4.6639   20.1312 C.3     1  UNL1        0.4342
     19 F           3.0813   -5.9248   20.0053 F       1  UNL1       -0.1664
     20 F           3.8351   -4.7820   21.6258 F       1  UNL1       -0.1664
     21 F           3.9330   -4.5458   18.6367 F       1  UNL1       -0.1664
     22 N           0.2099    1.0856   21.5383 N.am    1  UNL1       -0.2791
     23 C           0.1424    2.4995   22.0348 C.2     1  UNL1        0.2672
     24 O           1.0561    3.5408   21.4595 O.2     1  UNL1       -0.2682
     25 H          -0.3898    0.4021   21.9158 H       1  UNL1        0.1552
     26 C          -0.8387    2.8720   23.1065 C.ar    1  UNL1        0.1348
     27 C          -0.5376    2.5562   24.5416 C.ar    1  UNL1        0.0245
     28 C          -1.5188    2.9287   25.6133 C.ar    1  UNL1        0.0135
     29 C          -2.8011    3.6170   25.2499 C.ar    1  UNL1        0.0876
     30 C          -3.1022    3.9328   23.8148 C.ar    1  UNL1        0.1092
     31 N          -2.1210    3.5603   22.7431 N.ar    1  UNL1       -0.2385
     32 C          -3.7822    3.9895   26.3216 C.1     1  UNL1        0.1020
     33 N          -4.7634    4.3620   27.3934 N.1     1  UNL1       -0.1908
@<TRIPOS>BOND
     1     9     8    1
     2     9     1    1
     3     1     2   ar
     4     2     3   ar
     5     3    22    1
     6    22    23   am
     7    23    24    2
     8    23    26    1
     9    26    27   ar
    10    27    28   ar
    11    28    29   ar
    12    29    32    1
    13    32    33    3
    14    29    30   ar
    15    30    31   ar
    16     3     4   ar
    17     4     5   ar
    18     5     6   ar
    19     6     7    1
    20     9    10    1
    21    10    11    1
    22    11    18    1
    23    18    19    1
    24    18    20    1
    25    18    21    1
    26    11    12    1
    27    12    13    1
    28    13    14    1
    29    13    15    2
    30    15     9    1
    31     6     1   ar
    32    31    26   ar
    33    22    25    1
    34    14    16    1
    35    14    17    1
@<TRIPOS>MOLECULE
*****
 33 35 0 0 0
SMALL
GASTEIGER

@<TRIPOS>ATOM
      1 C           4.6827    1.8185   36.3485 C.ar    1  UNL1        0.0267
      2 C           4.6602    0.8168   35.2323 C.ar    1  UNL1        0.0144
      3 C           5.7601   -0.1958   35.1109 C.ar    1  UNL1        0.0505
      4 C           6.8826   -0.2066   36.1059 C.ar    1  UNL1        0.0170
      5 C           6.9052    0.7950   37.2221 C.ar    1  UNL1        0.0306
      6 C           5.8052    1.8076   37.3435 C.ar    1  UNL1        0.1379
      7 F           5.8277    2.8093   38.4598 F       1  UNL1       -0.2044
      8 C           4.4360    3.4967   35.4312 C.3     1  UNL1        0.0292
      9 C           3.5827    2.8311   36.4699 C.3     1  UNL1        0.1134
     10 C           3.1114    1.8139   37.4664 C.3     1  UNL1        0.0794
     11 C           1.8365    2.0404   38.2236 C.3     1  UNL1        0.2649
     12 O           1.0329    3.2842   37.9842 O.2     1  UNL1       -0.4449
     13 C           1.5042    4.3014   36.9877 C.2     1  UNL1        0.2769
     14 N           0.7006    5.5452   36.7483 N.pl3   1  UNL1       -0.3133
     15 N           2.7791    4.0749   36.2305 N.2     1  UNL1       -0.2241
     16 H          -0.1361    5.6939   37.2453 H       1  UNL1        0.1466
     17 H           1.0100    6.2129   36.0942 H       1  UNL1        0.1466
     18 C           1.3652    1.0231   39.2202 C.3     1  UNL1        0.4342
     19 F           0.8941    0.0058   40.2167 F       1  UNL1       -0.1664
     20 F           2.7367    0.4161   39.2489 F       1  UNL1       -0.1664
     21 F          -0.0061    1.6302   39.1914 F       1  UNL1       -0.1664
     22 N           5.7376   -1.1975   33.9946 N.am    1  UNL1       -0.2791
     23 C           6.6488   -1.0269   32.8153 C.2     1  UNL1        0.2672
     24 O           7.5824    0.1455   32.7524 O.2     1  UNL1       -0.2682
     25 H           5.1249   -1.9670   34.0360 H       1  UNL1        0.1552
     26 C           6.6263   -2.0285   31.6991 C.ar    1  UNL1        0.1348
     27 C           6.8800   -3.4786   31.9873 C.ar    1  UNL1        0.0245
     28 C           6.8575   -4.4803   30.8709 C.ar    1  UNL1        0.0135
     29 C           6.5814   -4.0319   29.4664 C.ar    1  UNL1        0.0876
     30 C           6.3277   -2.5819   29.1782 C.ar    1  UNL1        0.1092
     31 N           6.3501   -1.5802   30.2945 N.ar    1  UNL1       -0.2385
     32 C           6.5589   -5.0336   28.3502 C.1     1  UNL1        0.1020
     33 N           6.5364   -6.0353   27.2338 N.1     1  UNL1       -0.1908
@<TRIPOS>BOND
     1     9     8    1
     2     9     1    1
     3     1     2   ar
     4     2     3   ar
     5     3    22    1
     6    22    23   am
     7    23    24    2
     8    23    26    1
     9    26    27   ar
    10    27    28   ar
    11    28    29   ar
    12    29    32    1
    13    32    33    3
    14    29    30   ar
    15    30    31   ar
    16     3     4   ar
    17     4     5   ar
    18     5     6   ar
    19     6     7    1
    20     9    10    1
    21    10    11    1
    22    11    18    1
    23    18    19    1
    24    18    20    1
    25    18    21    1
    26    11    12    1
    27    12    13    1
    28    13    14    1
    29    13    15    2
    30    15     9    1
    31     6     1   ar
    32    31    26   ar
    33    22    25    1
    34    14    16    1
    35    14    17    1
@<TRIPOS>MOLECULE
*****
 33 35 0 0 0
SMALL
GASTEIGER

@<TRIPOS>ATOM
      1 C           4.0332    1.5418   35.4303 C.ar    1  UNL1        0.0267
      2 C           4.5185    0.3031   34.7374 C.ar    1  UNL1        0.0144
      3 C           3.9703   -0.0667   33.3911 C.ar    1  UNL1        0.0505
      4 C           2.9367    0.8021   32.7377 C.ar    1  UNL1        0.0170
      5 C           2.4514    2.0407   33.4306 C.ar    1  UNL1        0.0306
      6 C           2.9996    2.4106   34.7769 C.ar    1  UNL1        0.1379
      7 F           2.5143    3.6493   35.4699 F       1  UNL1       -0.2044
      8 C           5.8140    2.0795   35.9384 C.3     1  UNL1        0.0292
      9 C           4.5814    1.9117   36.7767 C.3     1  UNL1        0.1134
     10 C           3.1585    1.6154   37.1473 C.3     1  UNL1        0.0794
     11 C           2.7119    1.7473   38.5732 C.3     1  UNL1        0.2649
     12 O           3.6882    2.1755   39.6284 O.2     1  UNL1       -0.4449
     13 C           5.1111    2.4718   39.2578 C.2     1  UNL1        0.2769
     14 N           6.0875    2.9000   40.3130 N.pl3   1  UNL1       -0.3133
     15 N           5.5578    2.3399   37.8319 N.2     1  UNL1       -0.2241
     16 H           5.7943    2.9865   41.2489 H       1  UNL1        0.1466
     17 H           7.0214    3.0945   40.0697 H       1  UNL1        0.1466
     18 C           1.2889    1.4509   38.9438 C.3     1  UNL1        0.4342
     19 F          -0.1341    1.1545   39.3145 F       1  UNL1       -0.1664
     20 F           1.6817    0.0579   39.3381 F       1  UNL1       -0.1664
     21 F           0.8961    2.8438   38.5496 F       1  UNL1       -0.1664
     22 N           4.4556   -1.3054   32.6981 N.am    1  UNL1       -0.2791
     23 C           5.7068   -1.2612   31.8719 C.2     1  UNL1        0.2672
     24 O           6.4726    0.0217   31.7386 O.2     1  UNL1       -0.2682
     25 H           3.9530   -2.1474   32.7856 H       1  UNL1        0.1552
     26 C           6.1921   -2.4998   31.1789 C.ar    1  UNL1        0.1348
     27 C           6.5805   -3.7054   31.9824 C.ar    1  UNL1        0.0245
     28 C           7.0659   -4.9441   31.2894 C.ar    1  UNL1        0.0135
     29 C           7.1628   -4.9771   29.7929 C.ar    1  UNL1        0.0876
     30 C           6.7744   -3.7715   28.9894 C.ar    1  UNL1        0.1092
     31 N           6.2890   -2.5328   29.6824 N.ar    1  UNL1       -0.2385
     32 C           7.6481   -6.2157   29.0999 C.1     1  UNL1        0.1020
     33 N           8.1335   -7.4544   28.4069 N.1     1  UNL1       -0.1908
@<TRIPOS>BOND
     1     9     8    1
     2     9     1    1
     3     1     2   ar
     4     2     3   ar
     5     3    22    1
     6    22    23   am
     7    23    24    2
     8    23    26    1
     9    26    27   ar
    10    27    28   ar
    11    28    29   ar
    12    29    32    1
    13    32    33    3
    14    29    30   ar
    15    30    31   ar
    16     3     4   ar
    17     4     5   ar
    18     5     6   ar
    19     6     7    1
    20     9    10    1
    21    10    11    1
    22    11    18    1
    23    18    19    1
    24    18    20    1
    25    18    21    1
    26    11    12    1
    27    12    13    1
    28    13    14    1
    29    13    15    2
    30    15     9    1
    31     6     1   ar
    32    31    26   ar
    33    22    25    1
    34    14    16    1
    35    14    17    1
@<TRIPOS>MOLECULE
*****
 33 35 0 0 0
SMALL
GASTEIGER

@<TRIPOS>ATOM
      1 C           4.4731   -1.7010   22.6894 C.ar    1  UNL1        0.0267
      2 C           3.2018   -1.1471   23.2612 C.ar    1  UNL1        0.0144
      3 C           3.2533   -0.1837   24.4098 C.ar    1  UNL1        0.0505
      4 C           4.5761    0.2257   24.9866 C.ar    1  UNL1        0.0170
      5 C           5.8473   -0.3282   24.4148 C.ar    1  UNL1        0.0306
      6 C           5.7959   -1.2915   23.2662 C.ar    1  UNL1        0.1379
      7 F           7.0672   -1.8455   22.6944 F       1  UNL1       -0.2044
      8 C           4.7394   -3.6107   22.6605 C.3     1  UNL1        0.0292
      9 C           4.4217   -2.6644   21.5408 C.3     1  UNL1        0.1134
     10 C           4.1219   -1.3836   20.8201 C.3     1  UNL1        0.0794
     11 C           3.8809   -1.3947   19.3396 C.3     1  UNL1        0.2649
     12 O           3.9398   -2.6868   18.5799 O.2     1  UNL1       -0.4449
     13 C           4.2397   -3.9676   19.3006 C.2     1  UNL1        0.2769
     14 N           4.2986   -5.2597   18.5409 N.pl3   1  UNL1       -0.3133
     15 N           4.4806   -3.9565   20.7811 N.2     1  UNL1       -0.2241
     16 H           4.1405   -5.2671   17.5692 H       1  UNL1        0.1466
     17 H           4.4954   -6.1004   19.0140 H       1  UNL1        0.1466
     18 C           3.5811   -0.1138   18.6188 C.3     1  UNL1        0.4342
     19 F           3.2813    1.1671   17.8982 F       1  UNL1       -0.1664
     20 F           3.6904    0.6391   19.9117 F       1  UNL1       -0.1664
     21 F           3.4718   -0.8667   17.3262 F       1  UNL1       -0.1664
     22 N           1.9820    0.3703   24.9816 N.am    1  UNL1       -0.2791
     23 C           1.4271    1.6635   24.4625 C.2     1  UNL1        0.2672
     24 O           2.1435    2.4028   23.3714 O.2     1  UNL1       -0.2682
     25 H           1.5118   -0.1150   25.6977 H       1  UNL1        0.1552
     26 C           0.1559    2.2175   25.0342 C.ar    1  UNL1        0.1348
     27 C          -0.1820    1.9840   26.4769 C.ar    1  UNL1        0.0245
     28 C          -1.4533    2.5380   27.0487 C.ar    1  UNL1        0.0135
     29 C          -2.3867    3.3255   26.1778 C.ar    1  UNL1        0.0876
     30 C          -2.0489    3.5591   24.7351 C.ar    1  UNL1        0.1092
     31 N          -0.7776    3.0051   24.1633 N.ar    1  UNL1       -0.2385
     32 C          -3.6580    3.8795   26.7496 C.1     1  UNL1        0.1020
     33 N          -4.9293    4.4336   27.3214 N.1     1  UNL1       -0.1908
@<TRIPOS>BOND
     1     9     8    1
     2     9     1    1
     3     1     2   ar
     4     2     3   ar
     5     3    22    1
     6    22    23   am
     7    23    24    2
     8    23    26    1
     9    26    27   ar
    10    27    28   ar
    11    28    29   ar
    12    29    32    1
    13    32    33    3
    14    29    30   ar
    15    30    31   ar
    16     3     4   ar
    17     4     5   ar
    18     5     6   ar
    19     6     7    1
    20     9    10    1
    21    10    11    1
    22    11    18    1
    23    18    19    1
    24    18    20    1
    25    18    21    1
    26    11    12    1
    27    12    13    1
    28    13    14    1
    29    13    15    2
    30    15     9    1
    31     6     1   ar
    32    31    26   ar
    33    22    25    1
    34    14    16    1
    35    14    17    1
@<TRIPOS>MOLECULE
*****
 33 35 0 0 0
SMALL
GASTEIGER

@<TRIPOS>ATOM
      1 C           3.1552   -0.2491   20.1181 C.ar    1  UNL1        0.0267
      2 C           2.8078   -0.1438   21.5735 C.ar    1  UNL1        0.0144
      3 C           1.4762    0.4080   21.9886 C.ar    1  UNL1        0.0505
      4 C           0.4922    0.8547   20.9484 C.ar    1  UNL1        0.0170
      5 C           0.8396    0.7494   19.4930 C.ar    1  UNL1        0.0306
      6 C           2.1712    0.1975   19.0779 C.ar    1  UNL1        0.1379
      7 F           2.5187    0.0922   17.6225 F       1  UNL1       -0.2044
      8 C           4.7687    0.6683   19.5949 C.3     1  UNL1        0.0292
      9 C           4.4868   -0.8010   19.7029 C.3     1  UNL1        0.1134
     10 C           3.7425   -2.0786   19.9552 C.3     1  UNL1        0.0794
     11 C           4.4277   -3.3979   19.7547 C.3     1  UNL1        0.2649
     12 O           5.8572   -3.4395   19.3020 O.2     1  UNL1       -0.4449
     13 C           6.6014   -2.1619   19.0498 C.2     1  UNL1        0.2769
     14 N           8.0309   -2.2034   18.5971 N.pl3   1  UNL1       -0.3133
     15 N           5.9163   -0.8426   19.2502 N.2     1  UNL1       -0.2241
     16 H           8.4806   -3.0693   18.4655 H       1  UNL1        0.1466
     17 H           8.5194   -1.3649   18.4315 H       1  UNL1        0.1466
     18 C           3.6833   -4.6756   20.0070 C.3     1  UNL1        0.4342
     19 F           2.9389   -5.9532   20.2591 F       1  UNL1       -0.1664
     20 F           3.2119   -4.6819   18.5829 F       1  UNL1       -0.1664
     21 F           4.1548   -4.6691   21.4309 F       1  UNL1       -0.1664
     22 N           1.1287    0.5133   23.4441 N.am    1  UNL1       -0.2791
     23 C           1.8675    1.4780   24.3236 C.2     1  UNL1        0.2672
     24 O           2.9537    2.3374   23.7478 O.2     1  UNL1       -0.2682
     25 H           0.4158   -0.0507   23.8220 H       1  UNL1        0.1552
     26 C           1.5200    1.5833   25.7790 C.ar    1  UNL1        0.1348
     27 C           0.1172    1.3138   26.2366 C.ar    1  UNL1        0.0245
     28 C          -0.2303    1.4192   27.6920 C.ar    1  UNL1        0.0135
     29 C           0.8251    1.7940   28.6898 C.ar    1  UNL1        0.0876
     30 C           2.2279    2.0635   28.2322 C.ar    1  UNL1        0.1092
     31 N           2.5754    1.9582   26.7769 N.ar    1  UNL1       -0.2385
     32 C           0.4776    1.8993   30.1452 C.1     1  UNL1        0.1020
     33 N           0.1302    2.0046   31.6006 N.1     1  UNL1       -0.1908
@<TRIPOS>BOND
     1     9     8    1
     2     9     1    1
     3     1     2   ar
     4     2     3   ar
     5     3    22    1
     6    22    23   am
     7    23    24    2
     8    23    26    1
     9    26    27   ar
    10    27    28   ar
    11    28    29   ar
    12    29    32    1
    13    32    33    3
    14    29    30   ar
    15    30    31   ar
    16     3     4   ar
    17     4     5   ar
    18     5     6   ar
    19     6     7    1
    20     9    10    1
    21    10    11    1
    22    11    18    1
    23    18    19    1
    24    18    20    1
    25    18    21    1
    26    11    12    1
    27    12    13    1
    28    13    14    1
    29    13    15    2
    30    15     9    1
    31     6     1   ar
    32    31    26   ar
    33    22    25    1
    34    14    16    1
    35    14    17    1
@<TRIPOS>MOLECULE
*****
 33 35 0 0 0
SMALL
GASTEIGER

@<TRIPOS>ATOM
      1 C           4.2923    1.3548   35.7575 C.ar    1  UNL1        0.0267
      2 C           3.5006    1.8420   34.5803 C.ar    1  UNL1        0.0144
      3 C           3.3138    0.9568   33.3839 C.ar    1  UNL1        0.0505
      4 C           3.9188   -0.4157   33.3647 C.ar    1  UNL1        0.0170
      5 C           4.7105   -0.9029   34.5419 C.ar    1  UNL1        0.0306
      6 C           4.8972   -0.0176   35.7383 C.ar    1  UNL1        0.1379
      7 F           5.6889   -0.5048   36.9156 F       1  UNL1       -0.2044
      8 C           5.7319    2.5613   36.1941 C.3     1  UNL1        0.0292
      9 C           4.4791    2.2401   36.9540 C.3     1  UNL1        0.1134
     10 C           3.1614    1.6116   37.2982 C.3     1  UNL1        0.0794
     11 C           2.4656    1.9798   38.5750 C.3     1  UNL1        0.2649
     12 O           3.0875    2.9766   39.5076 O.2     1  UNL1       -0.4449
     13 C           4.4052    3.6052   39.1633 C.2     1  UNL1        0.2769
     14 N           5.0271    4.6020   40.0959 N.pl3   1  UNL1       -0.3133
     15 N           5.1010    3.2370   37.8865 N.2     1  UNL1       -0.2241
     16 H           4.5705    4.8437   40.9339 H       1  UNL1        0.1466
     17 H           5.8920    5.0145   39.8699 H       1  UNL1        0.1466
     18 C           1.1478    1.3511   38.9193 C.3     1  UNL1        0.4342
     19 F          -0.1699    0.7227   39.2635 F       1  UNL1       -0.1664
     20 F           0.4977    2.7029   38.8985 F       1  UNL1       -0.1664
     21 F           1.7980   -0.0004   38.9400 F       1  UNL1       -0.1664
     22 N           2.5221    1.4439   32.2066 N.am    1  UNL1       -0.2791
     23 C           2.1280    0.4876   31.1203 C.2     1  UNL1        0.2672
     24 O           2.5256   -0.9560   31.2113 O.2     1  UNL1       -0.2682
     25 H           2.2612    2.3914   32.1470 H       1  UNL1        0.1552
     26 C           1.3363    0.9747   29.9431 C.ar    1  UNL1        0.1348
     27 C           1.7734    2.2034   29.2020 C.ar    1  UNL1        0.0245
     28 C           0.9816    2.6905   28.0247 C.ar    1  UNL1        0.0135
     29 C          -0.2471    1.9489   27.5886 C.ar    1  UNL1        0.0876
     30 C          -0.6841    0.7202   28.3297 C.ar    1  UNL1        0.1092
     31 N           0.1076    0.2331   29.5069 N.ar    1  UNL1       -0.2385
     32 C          -1.0388    2.4360   26.4113 C.1     1  UNL1        0.1020
     33 N          -1.8305    2.9231   25.2340 N.1     1  UNL1       -0.1908
@<TRIPOS>BOND
     1     9     8    1
     2     9     1    1
     3     1     2   ar
     4     2     3   ar
     5     3    22    1
     6    22    23   am
     7    23    24    2
     8    23    26    1
     9    26    27   ar
    10    27    28   ar
    11    28    29   ar
    12    29    32    1
    13    32    33    3
    14    29    30   ar
    15    30    31   ar
    16     3     4   ar
    17     4     5   ar
    18     5     6   ar
    19     6     7    1
    20     9    10    1
    21    10    11    1
    22    11    18    1
    23    18    19    1
    24    18    20    1
    25    18    21    1
    26    11    12    1
    27    12    13    1
    28    13    14    1
    29    13    15    2
    30    15     9    1
    31     6     1   ar
    32    31    26   ar
    33    22    25    1
    34    14    16    1
    35    14    17    1
@<TRIPOS>MOLECULE
*****
 33 35 0 0 0
SMALL
GASTEIGER

@<TRIPOS>ATOM
      1 C         -13.8848   -4.9179   18.3695 C.ar    1  UNL1        0.0267
      2 C         -14.2394   -3.7187   19.1978 C.ar    1  UNL1        0.0144
      3 C         -15.5241   -2.9865   18.9459 C.ar    1  UNL1        0.0505
      4 C         -16.4543   -3.4537   17.8658 C.ar    1  UNL1        0.0170
      5 C         -16.0997   -4.6529   17.0375 C.ar    1  UNL1        0.0306
      6 C         -14.8150   -5.3850   17.2894 C.ar    1  UNL1        0.1379
      7 F         -14.4603   -6.5843   16.4610 F       1  UNL1       -0.2044
      8 C         -13.5651   -6.5763   19.3001 C.3     1  UNL1        0.0292
      9 C         -12.6000   -5.6501   18.6213 C.3     1  UNL1        0.1134
     10 C         -12.0812   -4.4696   17.8550 C.3     1  UNL1        0.0794
     11 C         -10.6128   -4.3429   17.5763 C.3     1  UNL1        0.2649
     12 O          -9.6632   -5.3968   18.0639 O.2     1  UNL1       -0.4449
     13 C         -10.1820   -6.5773   18.8302 C.2     1  UNL1        0.2769
     14 N          -9.2325   -7.6311   19.3177 N.pl3   1  UNL1       -0.3133
     15 N         -11.6505   -6.7039   19.1089 N.2     1  UNL1       -0.2241
     16 H          -8.2687   -7.5480   19.1348 H       1  UNL1        0.1466
     17 H          -9.5730   -8.4059   19.8207 H       1  UNL1        0.1466
     18 C         -10.0940   -3.1624   16.8100 C.3     1  UNL1        0.4342
     19 F          -9.5750   -1.9819   16.0437 F       1  UNL1       -0.1664
     20 F          -8.7817   -3.8635   16.6184 F       1  UNL1       -0.1664
     21 F         -11.4061   -2.4613   17.0016 F       1  UNL1       -0.1664
     22 N         -15.8788   -1.7873   19.7742 N.am    1  UNL1       -0.2791
     23 C         -15.8268   -0.4158   19.1689 C.2     1  UNL1        0.2672
     24 O         -15.4202   -0.2436   17.7353 O.2     1  UNL1       -0.2682
     25 H         -16.1456   -1.9003   20.7151 H       1  UNL1        0.1552
     26 C         -16.1814    0.7835   19.9972 C.ar    1  UNL1        0.1348
     27 C         -15.6294    2.1316   19.6397 C.ar    1  UNL1        0.0245
     28 C         -15.9841    3.3309   20.4680 C.ar    1  UNL1        0.0135
     29 C         -16.8907    3.1820   21.6537 C.ar    1  UNL1        0.0876
     30 C         -17.4428    1.8339   22.0111 C.ar    1  UNL1        0.1092
     31 N         -17.0881    0.6346   21.1829 N.ar    1  UNL1       -0.2385
     32 C         -17.2453    4.3813   22.4819 C.1     1  UNL1        0.1020
     33 N         -17.5999    5.5806   23.3102 N.1     1  UNL1       -0.1908
@<TRIPOS>BOND
     1     9     8    1
     2     9     1    1
     3     1     2   ar
     4     2     3   ar
     5     3    22    1
     6    22    23   am
     7    23    24    2
     8    23    26    1
     9    26    27   ar
    10    27    28   ar
    11    28    29   ar
    12    29    32    1
    13    32    33    3
    14    29    30   ar
    15    30    31   ar
    16     3     4   ar
    17     4     5   ar
    18     5     6   ar
    19     6     7    1
    20     9    10    1
    21    10    11    1
    22    11    18    1
    23    18    19    1
    24    18    20    1
    25    18    21    1
    26    11    12    1
    27    12    13    1
    28    13    14    1
    29    13    15    2
    30    15     9    1
    31     6     1   ar
    32    31    26   ar
    33    22    25    1
    34    14    16    1
    35    14    17    1
