@<TRIPOS>MOLECULE
*****
 16 17 0 0 0
SMALL
GASTEIGER

@<TRIPOS>ATOM
      1 C         -10.3302  -18.6231   23.9527 C.ar    1  UNL1        0.1386
      2 C          -9.4977  -17.3880   23.7755 C.ar    1  UNL1        0.0369
      3 C          -8.2081  -17.4558   23.0123 C.ar    1  UNL1        0.0047
      4 C          -7.7511  -18.7588   22.4262 C.ar    1  UNL1        0.0211
      5 C          -8.5836  -19.9938   22.6034 C.ar    1  UNL1        0.0047
      6 C          -9.8731  -19.9260   23.3667 C.ar    1  UNL1        0.0369
      7 C          -6.4616  -18.8266   21.6630 C.ar    1  UNL1        0.1231
      8 C          -5.1294  -19.2364   22.2173 C.ar    1  UNL1        0.0658
      9 C          -4.1223  -19.1596   21.1083 C.ar    1  UNL1        0.2138
     10 O          -4.8321  -18.7023   19.8685 O.2     1  UNL1       -0.3502
     11 N          -6.2778  -18.4965   20.2113 N.ar    1  UNL1       -0.0768
     12 O         -11.6197  -18.5553   24.7160 O.3     1  UNL1       -0.4755
     13 C         -12.8940  -18.2061   24.0060 C.3     1  UNL1        0.2054
     14 C         -12.8649  -17.2853   22.8222 C.3     1  UNL1        0.0473
     15 C         -11.5579  -17.4455   20.5825 C.3     1  UNL1        0.0001
     16 C         -12.7224  -17.8469   21.4385 C.3     1  UNL1        0.0038
@<TRIPOS>BOND
     1    15    16    1
     2    16    14    1
     3    14    13    1
     4    13    12    1
     5    12     1    1
     6     1     2   ar
     7     2     3   ar
     8     3     4   ar
     9     4     7    1
    10     7     8   ar
    11     8     9   ar
    12     9    10   ar
    13    10    11   ar
    14     4     5   ar
    15     5     6   ar
    16     6     1   ar
    17    11     7   ar
@<TRIPOS>MOLECULE
*****
 16 17 0 0 0
SMALL
GASTEIGER

@<TRIPOS>ATOM
      1 C          -9.9642  -19.2655   20.9876 C.ar    1  UNL1        0.1386
      2 C          -9.2621  -19.2465   22.3130 C.ar    1  UNL1        0.0369
      3 C          -7.7733  -19.4186   22.3756 C.ar    1  UNL1        0.0047
      4 C          -6.9866  -19.6098   21.1129 C.ar    1  UNL1        0.0211
      5 C          -7.6887  -19.6288   19.7875 C.ar    1  UNL1        0.0047
      6 C          -9.1775  -19.4567   19.7249 C.ar    1  UNL1        0.0369
      7 C          -5.4978  -19.7819   21.1756 C.ar    1  UNL1        0.1231
      8 C          -4.5871  -19.2080   22.2201 C.ar    1  UNL1        0.0658
      9 C          -3.1848  -19.6295   21.8948 C.ar    1  UNL1        0.2138
     10 O          -3.2288  -20.4640   20.6492 O.2     1  UNL1       -0.3502
     11 N          -4.6584  -20.5582   20.2047 N.ar    1  UNL1       -0.0768
     12 O         -11.4529  -19.0934   20.9250 O.3     1  UNL1       -0.4755
     13 C         -12.0541  -17.7226   21.0209 C.3     1  UNL1        0.2054
     14 C         -12.4705  -17.1779   22.3551 C.3     1  UNL1        0.0473
     15 C         -13.9879  -18.1120   24.2458 C.3     1  UNL1        0.0001
     16 C         -12.6791  -18.1083   23.5130 C.3     1  UNL1        0.0038
@<TRIPOS>BOND
     1    15    16    1
     2    16    14    1
     3    14    13    1
     4    13    12    1
     5    12     1    1
     6     1     2   ar
     7     2     3   ar
     8     3     4   ar
     9     4     7    1
    10     7     8   ar
    11     8     9   ar
    12     9    10   ar
    13    10    11   ar
    14     4     5   ar
    15     5     6   ar
    16     6     1   ar
    17    11     7   ar
@<TRIPOS>MOLECULE
*****
 16 17 0 0 0
SMALL
GASTEIGER

@<TRIPOS>ATOM
      1 C          -6.7063  -19.8220   21.9402 C.ar    1  UNL1        0.1386
      2 C          -6.1596  -20.6107   20.7874 C.ar    1  UNL1        0.0369
      3 C          -4.8032  -20.2879   20.2340 C.ar    1  UNL1        0.0047
      4 C          -3.9937  -19.1765   20.8334 C.ar    1  UNL1        0.0211
      5 C          -4.5405  -18.3878   21.9862 C.ar    1  UNL1        0.0047
      6 C          -5.8968  -18.7105   22.5395 C.ar    1  UNL1        0.0369
      7 C          -2.6374  -18.8537   20.2800 C.ar    1  UNL1        0.1231
      8 C          -2.3537  -17.9754   19.0976 C.ar    1  UNL1        0.0658
      9 C          -0.8676  -17.9315   18.8987 C.ar    1  UNL1        0.2138
     10 O          -0.2328  -18.7826   19.9582 O.2     1  UNL1       -0.3502
     11 N          -1.3266  -19.3526   20.8119 N.ar    1  UNL1       -0.0768
     12 O          -8.0627  -20.1447   22.4935 O.3     1  UNL1       -0.4755
     13 C          -9.2056  -19.1976   22.2776 C.3     1  UNL1        0.2054
     14 C         -10.3910  -19.6257   21.4642 C.3     1  UNL1        0.0473
     15 C          -9.3928  -19.8937   19.0805 C.3     1  UNL1        0.0001
     16 C         -10.4391  -19.3284   19.9947 C.3     1  UNL1        0.0038
@<TRIPOS>BOND
     1    15    16    1
     2    16    14    1
     3    14    13    1
     4    13    12    1
     5    12     1    1
     6     1     2   ar
     7     2     3   ar
     8     3     4   ar
     9     4     7    1
    10     7     8   ar
    11     8     9   ar
    12     9    10   ar
    13    10    11   ar
    14     4     5   ar
    15     5     6   ar
    16     6     1   ar
    17    11     7   ar
@<TRIPOS>MOLECULE
*****
 16 17 0 0 0
SMALL
GASTEIGER

@<TRIPOS>ATOM
      1 C          -6.1126  -19.7098   21.8731 C.ar    1  UNL1        0.1386
      2 C          -5.3376  -18.6879   22.6508 C.ar    1  UNL1        0.0369
      3 C          -3.9595  -18.2948   22.2077 C.ar    1  UNL1        0.0047
      4 C          -3.3564  -18.9237   20.9867 C.ar    1  UNL1        0.0211
      5 C          -4.1315  -19.9456   20.2089 C.ar    1  UNL1        0.0047
      6 C          -5.5095  -20.3386   20.6521 C.ar    1  UNL1        0.0369
      7 C          -1.9784  -18.5307   20.5436 C.ar    1  UNL1        0.1231
      8 C          -1.4336  -17.1340   20.4918 C.ar    1  UNL1        0.0658
      9 C          -0.0216  -17.2054   19.9906 C.ar    1  UNL1        0.2138
     10 O           0.3063  -18.6462   19.7326 O.2     1  UNL1       -0.3502
     11 N          -0.9030  -19.4652   20.0744 N.ar    1  UNL1       -0.0768
     12 O          -7.4907  -20.1028   22.3162 O.3     1  UNL1       -0.4755
     13 C          -8.6487  -19.1814   22.0711 C.3     1  UNL1        0.2054
     14 C         -10.0528  -19.7016   22.1594 C.3     1  UNL1        0.0473
     15 C         -10.3877  -19.3844   19.6026 C.3     1  UNL1        0.0001
     16 C         -10.9618  -19.6125   20.9695 C.3     1  UNL1        0.0038
@<TRIPOS>BOND
     1    15    16    1
     2    16    14    1
     3    14    13    1
     4    13    12    1
     5    12     1    1
     6     1     2   ar
     7     2     3   ar
     8     3     4   ar
     9     4     7    1
    10     7     8   ar
    11     8     9   ar
    12     9    10   ar
    13    10    11   ar
    14     4     5   ar
    15     5     6   ar
    16     6     1   ar
    17    11     7   ar
@<TRIPOS>MOLECULE
*****
 16 17 0 0 0
SMALL
GASTEIGER

@<TRIPOS>ATOM
      1 C          -5.9036  -19.5245   21.1912 C.ar    1  UNL1        0.1386
      2 C          -6.4570  -18.5706   22.2079 C.ar    1  UNL1        0.0369
      3 C          -7.8834  -18.1167   22.1121 C.ar    1  UNL1        0.0047
      4 C          -8.7565  -18.6167   20.9995 C.ar    1  UNL1        0.0211
      5 C          -8.2031  -19.5706   19.9828 C.ar    1  UNL1        0.0047
      6 C          -6.7766  -20.0245   20.0787 C.ar    1  UNL1        0.0369
      7 C         -10.1829  -18.1627   20.9037 C.ar    1  UNL1        0.1231
      8 C         -11.2969  -18.5544   21.8288 C.ar    1  UNL1        0.0658
      9 C         -12.5483  -17.8711   21.3628 C.ar    1  UNL1        0.2138
     10 O         -12.2078  -17.0572   20.1497 O.2     1  UNL1       -0.3502
     11 N         -10.7459  -17.2374   19.8660 N.ar    1  UNL1       -0.0768
     12 O          -4.4771  -19.9785   21.2870 O.3     1  UNL1       -0.4755
     13 C          -3.5642  -19.8376   20.1052 C.3     1  UNL1        0.2054
     14 C          -3.4468  -18.5182   19.4013 C.3     1  UNL1        0.0473
     15 C          -0.8974  -18.2484   19.8228 C.3     1  UNL1        0.0001
     16 C          -2.1024  -18.0212   18.9590 C.3     1  UNL1        0.0038
@<TRIPOS>BOND
     1    15    16    1
     2    16    14    1
     3    14    13    1
     4    13    12    1
     5    12     1    1
     6     1     2   ar
     7     2     3   ar
     8     3     4   ar
     9     4     7    1
    10     7     8   ar
    11     8     9   ar
    12     9    10   ar
    13    10    11   ar
    14     4     5   ar
    15     5     6   ar
    16     6     1   ar
    17    11     7   ar
@<TRIPOS>MOLECULE
*****
 16 17 0 0 0
SMALL
GASTEIGER

@<TRIPOS>ATOM
      1 C          -6.9283  -19.9788   20.5866 C.ar    1  UNL1        0.1386
      2 C          -7.1964  -19.8261   22.0545 C.ar    1  UNL1        0.0369
      3 C          -8.5452  -19.3706   22.5271 C.ar    1  UNL1        0.0047
      4 C          -9.6259  -19.0679   21.5319 C.ar    1  UNL1        0.0211
      5 C          -9.3577  -19.2206   20.0640 C.ar    1  UNL1        0.0047
      6 C          -8.0090  -19.6761   19.5913 C.ar    1  UNL1        0.0369
      7 C         -10.9746  -18.6125   22.0045 C.ar    1  UNL1        0.1231
      8 C         -11.4623  -18.6250   23.4230 C.ar    1  UNL1        0.0658
      9 C         -12.8616  -18.0848   23.4369 C.ar    1  UNL1        0.2138
     10 O         -13.2388  -17.7384   22.0270 O.2     1  UNL1       -0.3502
     11 N         -12.0725  -18.0646   21.1418 N.ar    1  UNL1       -0.0768
     12 O          -5.5796  -20.4342   20.1139 O.3     1  UNL1       -0.4755
     13 C          -4.4239  -19.4780   20.1100 C.3     1  UNL1        0.2054
     14 C          -3.3202  -19.6312   21.1141 C.3     1  UNL1        0.0473
     15 C          -3.9779  -17.8930   22.9296 C.3     1  UNL1        0.0001
     16 C          -3.5620  -19.2841   22.5532 C.3     1  UNL1        0.0038
@<TRIPOS>BOND
     1    15    16    1
     2    16    14    1
     3    14    13    1
     4    13    12    1
     5    12     1    1
     6     1     2   ar
     7     2     3   ar
     8     3     4   ar
     9     4     7    1
    10     7     8   ar
    11     8     9   ar
    12     9    10   ar
    13    10    11   ar
    14     4     5   ar
    15     5     6   ar
    16     6     1   ar
    17    11     7   ar
@<TRIPOS>MOLECULE
*****
 16 17 0 0 0
SMALL
GASTEIGER

@<TRIPOS>ATOM
      1 C          -6.2069  -19.0204   21.9091 C.ar    1  UNL1        0.1386
      2 C          -5.2199  -18.3703   22.8327 C.ar    1  UNL1        0.0369
      3 C          -3.8048  -18.1528   22.3853 C.ar    1  UNL1        0.0047
      4 C          -3.3767  -18.5852   21.0144 C.ar    1  UNL1        0.0211
      5 C          -4.3637  -19.2353   20.0907 C.ar    1  UNL1        0.0047
      6 C          -5.7788  -19.4529   20.5381 C.ar    1  UNL1        0.0369
      7 C          -1.9616  -18.3677   20.5670 C.ar    1  UNL1        0.1231
      8 C          -1.2399  -17.0531   20.5327 C.ar    1  UNL1        0.0658
      9 C           0.1480  -17.2995   20.0199 C.ar    1  UNL1        0.2138
     10 O           0.2841  -18.7663   19.7372 O.2     1  UNL1       -0.3502
     11 N          -1.0196  -19.4264   20.0753 N.ar    1  UNL1       -0.0768
     12 O          -7.6220  -19.2379   22.3565 O.3     1  UNL1       -0.4755
     13 C          -8.5740  -18.0807   22.4227 C.3     1  UNL1        0.2054
     14 C          -9.4513  -17.8990   23.6257 C.3     1  UNL1        0.0473
     15 C          -8.9363  -15.6313   24.7844 C.3     1  UNL1        0.0001
     16 C          -8.9479  -17.1311   24.8119 C.3     1  UNL1        0.0038
@<TRIPOS>BOND
     1    15    16    1
     2    16    14    1
     3    14    13    1
     4    13    12    1
     5    12     1    1
     6     1     2   ar
     7     2     3   ar
     8     3     4   ar
     9     4     7    1
    10     7     8   ar
    11     8     9   ar
    12     9    10   ar
    13    10    11   ar
    14     4     5   ar
    15     5     6   ar
    16     6     1   ar
    17    11     7   ar
@<TRIPOS>MOLECULE
*****
 16 17 0 0 0
SMALL
GASTEIGER

@<TRIPOS>ATOM
      1 C          -6.3739  -16.5496   23.4523 C.ar    1  UNL1        0.1386
      2 C          -7.2681  -15.6766   24.2818 C.ar    1  UNL1        0.0369
      3 C          -8.7552  -15.8677   24.2361 C.ar    1  UNL1        0.0047
      4 C          -9.3480  -16.9320   23.3609 C.ar    1  UNL1        0.0211
      5 C          -8.4538  -17.8050   22.5315 C.ar    1  UNL1        0.0047
      6 C          -6.9667  -17.6139   22.5772 C.ar    1  UNL1        0.0369
      7 C         -10.8351  -17.1231   23.3152 C.ar    1  UNL1        0.1231
      8 C         -11.5951  -18.2715   23.9098 C.ar    1  UNL1        0.0658
      9 C         -13.0530  -18.0576   23.6289 C.ar    1  UNL1        0.2138
     10 O         -13.1940  -16.7770   22.8608 O.2     1  UNL1       -0.3502
     11 N         -11.8233  -16.1995   22.6669 N.ar    1  UNL1       -0.0768
     12 O          -4.8868  -16.3585   23.4980 O.3     1  UNL1       -0.4755
     13 C          -3.9755  -17.5485   23.4399 C.3     1  UNL1        0.2054
     14 C          -2.6912  -17.4727   22.6688 C.3     1  UNL1        0.0473
     15 C          -2.5573  -19.7463   21.4186 C.3     1  UNL1        0.0001
     16 C          -2.5355  -18.2466   21.3933 C.3     1  UNL1        0.0038
@<TRIPOS>BOND
     1    15    16    1
     2    16    14    1
     3    14    13    1
     4    13    12    1
     5    12     1    1
     6     1     2   ar
     7     2     3   ar
     8     3     4   ar
     9     4     7    1
    10     7     8   ar
    11     8     9   ar
    12     9    10   ar
    13    10    11   ar
    14     4     5   ar
    15     5     6   ar
    16     6     1   ar
    17    11     7   ar
@<TRIPOS>MOLECULE
*****
 16 17 0 0 0
SMALL
GASTEIGER

@<TRIPOS>ATOM
      1 C         -12.7785   -5.2734   17.8964 C.ar    1  UNL1        0.1386
      2 C         -13.6138   -5.3844   19.1374 C.ar    1  UNL1        0.0369
      3 C         -14.4558   -6.6041   19.3682 C.ar    1  UNL1        0.0047
      4 C         -14.4624   -7.7130   18.3581 C.ar    1  UNL1        0.0211
      5 C         -13.6271   -7.6021   17.1172 C.ar    1  UNL1        0.0047
      6 C         -12.7852   -6.3823   16.8863 C.ar    1  UNL1        0.0369
      7 C         -15.3043   -8.9328   18.5889 C.ar    1  UNL1        0.1231
      8 C         -16.6042   -8.9785   19.3361 C.ar    1  UNL1        0.0658
      9 C         -17.0974  -10.3950   19.3221 C.ar    1  UNL1        0.2138
     10 O         -16.1024  -11.2248   18.5663 O.2     1  UNL1       -0.3502
     11 N         -14.9942  -10.3211   18.1132 N.ar    1  UNL1       -0.0768
     12 O         -11.9366   -4.0537   17.6656 O.3     1  UNL1       -0.4755
     13 C         -10.5947   -3.9329   18.3247 C.3     1  UNL1        0.2054
     14 C          -9.5829   -5.0298   18.1727 C.3     1  UNL1        0.0473
     15 C          -9.6663   -7.5656   18.7321 C.3     1  UNL1        0.0001
     16 C          -9.5242   -6.1407   19.1789 C.3     1  UNL1        0.0038
@<TRIPOS>BOND
     1    15    16    1
     2    16    14    1
     3    14    13    1
     4    13    12    1
     5    12     1    1
     6     1     2   ar
     7     2     3   ar
     8     3     4   ar
     9     4     7    1
    10     7     8   ar
    11     8     9   ar
    12     9    10   ar
    13    10    11   ar
    14     4     5   ar
    15     5     6   ar
    16     6     1   ar
    17    11     7   ar
