@<TRIPOS>MOLECULE
*****
 17 18 0 0 0
SMALL
GASTEIGER

@<TRIPOS>ATOM
      1 C         -10.2194  -19.0700   21.0532 C.ar    1  UNL1        0.1386
      2 C          -9.4902  -18.8932   22.3520 C.ar    1  UNL1        0.0369
      3 C          -7.9982  -19.0404   22.4005 C.ar    1  UNL1        0.0032
      4 C          -7.2355  -19.3645   21.1503 C.ar    1  UNL1        0.0017
      5 C          -7.9647  -19.5414   19.8515 C.ar    1  UNL1        0.0032
      6 C          -9.4567  -19.3941   19.8030 C.ar    1  UNL1        0.0369
      7 C          -5.7435  -19.5118   21.1989 C.ar    1  UNL1        0.0192
      8 C          -5.0345  -20.3140   20.1483 C.ar    1  UNL1        0.0031
      9 C          -3.5425  -20.4612   20.1969 C.ar    1  UNL1        0.0207
     10 C          -2.7596  -19.8063   21.2960 C.ar    1  UNL1        0.0989
     11 N          -3.4686  -19.0041   22.3465 N.ar    1  UNL1       -0.2423
     12 C          -4.9606  -18.8568   22.2980 C.ar    1  UNL1        0.0988
     13 O         -11.7114  -18.9227   21.0046 O.3     1  UNL1       -0.4755
     14 C         -12.3390  -17.5756   21.2077 C.3     1  UNL1        0.2054
     15 C         -12.7559  -17.1419   22.5818 C.3     1  UNL1        0.0473
     16 C         -14.1456  -18.1928   24.5090 C.3     1  UNL1        0.0001
     17 C         -12.8976  -18.1562   23.6777 C.3     1  UNL1        0.0038
@<TRIPOS>BOND
     1    16    17    1
     2    17    15    1
     3    15    14    1
     4    14    13    1
     5    13     1    1
     6     1     2   ar
     7     2     3   ar
     8     3     4   ar
     9     4     7    1
    10     7     8   ar
    11     8     9   ar
    12     9    10   ar
    13    10    11   ar
    14    11    12   ar
    15     4     5   ar
    16     5     6   ar
    17     6     1   ar
    18    12     7   ar
@<TRIPOS>MOLECULE
*****
 17 18 0 0 0
SMALL
GASTEIGER

@<TRIPOS>ATOM
      1 C          -9.9870  -18.2709   23.3482 C.ar    1  UNL1        0.1386
      2 C          -8.9996  -17.1874   23.0308 C.ar    1  UNL1        0.0369
      3 C          -7.6394  -17.5421   22.5072 C.ar    1  UNL1        0.0032
      4 C          -7.2667  -18.9803   22.3011 C.ar    1  UNL1        0.0017
      5 C          -8.2541  -20.0638   22.6185 C.ar    1  UNL1        0.0032
      6 C          -9.6143  -19.7092   23.1420 C.ar    1  UNL1        0.0369
      7 C          -5.9065  -19.3350   21.7775 C.ar    1  UNL1        0.0192
      8 C          -5.7728  -20.2431   20.5912 C.ar    1  UNL1        0.0031
      9 C          -4.4127  -20.5977   20.0676 C.ar    1  UNL1        0.0207
     10 C          -3.1861  -20.0443   20.7304 C.ar    1  UNL1        0.0989
     11 N          -3.3198  -19.1362   21.9167 N.ar    1  UNL1       -0.2423
     12 C          -4.6800  -18.7815   22.4403 C.ar    1  UNL1        0.0988
     13 O         -11.3472  -17.9163   23.8717 O.3     1  UNL1       -0.4755
     14 C         -12.3771  -17.3333   22.9501 C.3     1  UNL1        0.2054
     15 C         -12.5579  -17.8999   21.5730 C.3     1  UNL1        0.0473
     16 C         -10.7610  -18.3413   19.7492 C.3     1  UNL1        0.0001
     17 C         -11.7073  -17.4053   20.4408 C.3     1  UNL1        0.0038
@<TRIPOS>BOND
     1    16    17    1
     2    17    15    1
     3    15    14    1
     4    14    13    1
     5    13     1    1
     6     1     2   ar
     7     2     3   ar
     8     3     4   ar
     9     4     7    1
    10     7     8   ar
    11     8     9   ar
    12     9    10   ar
    13    10    11   ar
    14    11    12   ar
    15     4     5   ar
    16     5     6   ar
    17     6     1   ar
    18    12     7   ar
@<TRIPOS>MOLECULE
*****
 17 18 0 0 0
SMALL
GASTEIGER

@<TRIPOS>ATOM
      1 C          -6.5013  -20.1867   20.5826 C.ar    1  UNL1        0.1386
      2 C          -6.8093  -20.0510   22.0443 C.ar    1  UNL1        0.0369
      3 C          -8.1585  -19.5655   22.4846 C.ar    1  UNL1        0.0032
      4 C          -9.1998  -19.2157   21.4632 C.ar    1  UNL1        0.0017
      5 C          -8.8918  -19.3514   20.0015 C.ar    1  UNL1        0.0032
      6 C          -7.5426  -19.8369   19.5612 C.ar    1  UNL1        0.0369
      7 C         -10.5490  -18.7302   21.9035 C.ar    1  UNL1        0.0192
      8 C         -10.9301  -18.7867   23.3532 C.ar    1  UNL1        0.0031
      9 C         -12.2793  -18.3012   23.7935 C.ar    1  UNL1        0.0207
     10 C         -13.2475  -17.7591   22.7841 C.ar    1  UNL1        0.0989
     11 N         -12.8664  -17.7026   21.3345 N.ar    1  UNL1       -0.2423
     12 C         -11.5172  -18.1881   20.8942 C.ar    1  UNL1        0.0988
     13 O          -5.1521  -20.6722   20.1423 O.3     1  UNL1       -0.4755
     14 C          -3.9916  -19.7231   20.0969 C.3     1  UNL1        0.2054
     15 C          -2.8650  -19.8684   21.0766 C.3     1  UNL1        0.0473
     16 C          -3.6774  -18.2168   22.9103 C.3     1  UNL1        0.0001
     17 C          -2.5756  -18.7690   22.0553 C.3     1  UNL1        0.0038
@<TRIPOS>BOND
     1    16    17    1
     2    17    15    1
     3    15    14    1
     4    14    13    1
     5    13     1    1
     6     1     2   ar
     7     2     3   ar
     8     3     4   ar
     9     4     7    1
    10     7     8   ar
    11     8     9   ar
    12     9    10   ar
    13    10    11   ar
    14    11    12   ar
    15     4     5   ar
    16     5     6   ar
    17     6     1   ar
    18    12     7   ar
@<TRIPOS>MOLECULE
*****
 17 18 0 0 0
SMALL
GASTEIGER

@<TRIPOS>ATOM
      1 C          -4.0076  -19.8484   21.3870 C.ar    1  UNL1        0.1386
      2 C          -4.6999  -18.9339   22.3535 C.ar    1  UNL1        0.0369
      3 C          -6.1777  -18.7027   22.2403 C.ar    1  UNL1        0.0032
      4 C          -6.9631  -19.3861   21.1605 C.ar    1  UNL1        0.0017
      5 C          -6.2708  -20.3007   20.1940 C.ar    1  UNL1        0.0032
      6 C          -4.7930  -20.5318   20.3072 C.ar    1  UNL1        0.0369
      7 C          -8.4408  -19.1550   21.0472 C.ar    1  UNL1        0.0192
      8 C          -9.1515  -19.4607   19.7621 C.ar    1  UNL1        0.0031
      9 C         -10.6292  -19.2296   19.6489 C.ar    1  UNL1        0.0207
     10 C         -11.3963  -18.6927   20.8207 C.ar    1  UNL1        0.0989
     11 N         -10.6857  -18.3870   22.1058 N.ar    1  UNL1       -0.2423
     12 C          -9.2080  -18.6181   22.2190 C.ar    1  UNL1        0.0988
     13 O          -2.5299  -20.0796   21.5003 O.3     1  UNL1       -0.4755
     14 C          -1.5807  -18.9214   21.4129 C.3     1  UNL1        0.2054
     15 C          -0.9328  -18.5798   20.1038 C.3     1  UNL1        0.0473
     16 C          -2.9627  -17.5799   18.8273 C.3     1  UNL1        0.0001
     17 C          -1.5203  -17.5091   19.2330 C.3     1  UNL1        0.0038
@<TRIPOS>BOND
     1    16    17    1
     2    17    15    1
     3    15    14    1
     4    14    13    1
     5    13     1    1
     6     1     2   ar
     7     2     3   ar
     8     3     4   ar
     9     4     7    1
    10     7     8   ar
    11     8     9   ar
    12     9    10   ar
    13    10    11   ar
    14    11    12   ar
    15     4     5   ar
    16     5     6   ar
    17     6     1   ar
    18    12     7   ar
@<TRIPOS>MOLECULE
*****
 17 18 0 0 0
SMALL
GASTEIGER

@<TRIPOS>ATOM
      1 C          -9.1690  -17.7650   23.3286 C.ar    1  UNL1        0.1386
      2 C          -8.9738  -19.1540   22.7970 C.ar    1  UNL1        0.0369
      3 C          -7.6246  -19.5855   22.3035 C.ar    1  UNL1        0.0032
      4 C          -6.4706  -18.6280   22.3417 C.ar    1  UNL1        0.0017
      5 C          -6.6657  -17.2391   22.8734 C.ar    1  UNL1        0.0032
      6 C          -8.0149  -16.8076   23.3668 C.ar    1  UNL1        0.0369
      7 C          -5.1214  -19.0595   21.8483 C.ar    1  UNL1        0.0192
      8 C          -3.8807  -18.5803   22.5418 C.ar    1  UNL1        0.0031
      9 C          -2.5315  -19.0118   22.0484 C.ar    1  UNL1        0.0207
     10 C          -2.4230  -19.9225   20.8615 C.ar    1  UNL1        0.0989
     11 N          -3.6637  -20.4017   20.1679 N.ar    1  UNL1       -0.2423
     12 C          -5.0129  -19.9702   20.6614 C.ar    1  UNL1        0.0988
     13 O         -10.5182  -17.3335   23.8220 O.3     1  UNL1       -0.4755
     14 C         -11.3112  -16.3220   23.0489 C.3     1  UNL1        0.2054
     15 C         -12.6563  -16.6878   22.4949 C.3     1  UNL1        0.0473
     16 C         -13.9857  -18.0482   24.2646 C.3     1  UNL1        0.0001
     17 C         -13.3220  -17.9623   22.9222 C.3     1  UNL1        0.0038
@<TRIPOS>BOND
     1    16    17    1
     2    17    15    1
     3    15    14    1
     4    14    13    1
     5    13     1    1
     6     1     2   ar
     7     2     3   ar
     8     3     4   ar
     9     4     7    1
    10     7     8   ar
    11     8     9   ar
    12     9    10   ar
    13    10    11   ar
    14    11    12   ar
    15     4     5   ar
    16     5     6   ar
    17     6     1   ar
    18    12     7   ar
@<TRIPOS>MOLECULE
*****
 17 18 0 0 0
SMALL
GASTEIGER

@<TRIPOS>ATOM
      1 C         -12.7267   -4.4606   18.1546 C.ar    1  UNL1        0.1386
      2 C         -13.0749   -5.3368   16.9880 C.ar    1  UNL1        0.0369
      3 C         -13.9439   -6.5428   17.1889 C.ar    1  UNL1        0.0032
      4 C         -14.4647   -6.8726   18.5564 C.ar    1  UNL1        0.0017
      5 C         -14.1165   -5.9963   19.7229 C.ar    1  UNL1        0.0032
      6 C         -13.2475   -4.7903   19.5220 C.ar    1  UNL1        0.0369
      7 C         -15.3337   -8.0786   18.7573 C.ar    1  UNL1        0.0192
      8 C         -16.5759   -7.9773   19.5920 C.ar    1  UNL1        0.0031
      9 C         -17.4449   -9.1833   19.7929 C.ar    1  UNL1        0.0207
     10 C         -17.0718  -10.4906   19.1591 C.ar    1  UNL1        0.0989
     11 N         -15.8296  -10.5919   18.3244 N.ar    1  UNL1       -0.2423
     12 C         -14.9606   -9.3859   18.1235 C.ar    1  UNL1        0.0988
     13 O         -11.8577   -3.2546   17.9537 O.3     1  UNL1       -0.4755
     14 C         -10.4053   -3.3064   18.3250 C.3     1  UNL1        0.2054
     15 C          -9.6096   -4.5518   18.0686 C.3     1  UNL1        0.0473
     16 C         -10.0292   -7.0004   18.8294 C.3     1  UNL1        0.0001
     17 C          -9.5253   -5.6179   19.1205 C.3     1  UNL1        0.0038
@<TRIPOS>BOND
     1    16    17    1
     2    17    15    1
     3    15    14    1
     4    14    13    1
     5    13     1    1
     6     1     2   ar
     7     2     3   ar
     8     3     4   ar
     9     4     7    1
    10     7     8   ar
    11     8     9   ar
    12     9    10   ar
    13    10    11   ar
    14    11    12   ar
    15     4     5   ar
    16     5     6   ar
    17     6     1   ar
    18    12     7   ar
@<TRIPOS>MOLECULE
*****
 17 18 0 0 0
SMALL
GASTEIGER

@<TRIPOS>ATOM
      1 C          -5.3111  -18.5430   22.5886 C.ar    1  UNL1        0.1386
      2 C          -5.7960  -17.2423   23.1570 C.ar    1  UNL1        0.0369
      3 C          -7.2635  -16.9321   23.1745 C.ar    1  UNL1        0.0032
      4 C          -8.2461  -17.9226   22.6238 C.ar    1  UNL1        0.0017
      5 C          -7.7612  -19.2233   22.0555 C.ar    1  UNL1        0.0032
      6 C          -6.2937  -19.5335   22.0379 C.ar    1  UNL1        0.0369
      7 C          -9.7135  -17.6124   22.6414 C.ar    1  UNL1        0.0192
      8 C         -10.6372  -18.4048   23.5183 C.ar    1  UNL1        0.0031
      9 C         -12.1046  -18.0946   23.5358 C.ar    1  UNL1        0.0207
     10 C         -12.6485  -16.9920   22.6766 C.ar    1  UNL1        0.0989
     11 N         -11.7249  -16.1996   21.7997 N.ar    1  UNL1       -0.2423
     12 C         -10.2574  -16.5098   21.7821 C.ar    1  UNL1        0.0988
     13 O          -3.8437  -18.8532   22.5711 O.3     1  UNL1       -0.4755
     14 C          -2.8410  -17.7378   22.5919 C.3     1  UNL1        0.2054
     15 C          -1.8963  -17.5569   21.4409 C.3     1  UNL1        0.0473
     16 C          -2.6058  -18.5885   19.1644 C.3     1  UNL1        0.0001
     17 C          -1.7626  -18.6327   20.4042 C.3     1  UNL1        0.0038
@<TRIPOS>BOND
     1    16    17    1
     2    17    15    1
     3    15    14    1
     4    14    13    1
     5    13     1    1
     6     1     2   ar
     7     2     3   ar
     8     3     4   ar
     9     4     7    1
    10     7     8   ar
    11     8     9   ar
    12     9    10   ar
    13    10    11   ar
    14    11    12   ar
    15     4     5   ar
    16     5     6   ar
    17     6     1   ar
    18    12     7   ar
@<TRIPOS>MOLECULE
*****
 17 18 0 0 0
SMALL
GASTEIGER

@<TRIPOS>ATOM
      1 C          -7.2332  -19.7137   22.1086 C.ar    1  UNL1        0.1386
      2 C          -6.6045  -20.5302   21.0186 C.ar    1  UNL1        0.0369
      3 C          -5.2475  -20.1641   20.4949 C.ar    1  UNL1        0.0032
      4 C          -4.5190  -18.9814   21.0611 C.ar    1  UNL1        0.0017
      5 C          -5.1477  -18.1649   22.1511 C.ar    1  UNL1        0.0032
      6 C          -6.5047  -18.5310   22.6748 C.ar    1  UNL1        0.0369
      7 C          -3.1619  -18.6153   20.5374 C.ar    1  UNL1        0.0192
      8 C          -2.0750  -18.2109   21.4886 C.ar    1  UNL1        0.0031
      9 C          -0.7179  -17.8447   20.9649 C.ar    1  UNL1        0.0207
     10 C          -0.4478  -17.8830   19.4899 C.ar    1  UNL1        0.0989
     11 N          -1.5348  -18.2874   18.5387 N.ar    1  UNL1       -0.2423
     12 C          -2.8918  -18.6536   19.0624 C.ar    1  UNL1        0.0988
     13 O          -8.5903  -20.0798   22.6323 O.3     1  UNL1       -0.4755
     14 C          -9.8073  -19.3623   22.1284 C.3     1  UNL1        0.2054
     15 C         -10.2798  -18.1145   22.8137 C.3     1  UNL1        0.0473
     16 C          -9.1465  -16.4994   24.5042 C.3     1  UNL1        0.0001
     17 C          -9.8221  -17.8056   24.2085 C.3     1  UNL1        0.0038
@<TRIPOS>BOND
     1    16    17    1
     2    17    15    1
     3    15    14    1
     4    14    13    1
     5    13     1    1
     6     1     2   ar
     7     2     3   ar
     8     3     4   ar
     9     4     7    1
    10     7     8   ar
    11     8     9   ar
    12     9    10   ar
    13    10    11   ar
    14    11    12   ar
    15     4     5   ar
    16     5     6   ar
    17     6     1   ar
    18    12     7   ar
@<TRIPOS>MOLECULE
*****
 17 18 0 0 0
SMALL
GASTEIGER

@<TRIPOS>ATOM
      1 C         -11.6318   -5.0849   18.5878 C.ar    1  UNL1        0.1386
      2 C         -12.7303   -4.9034   19.5929 C.ar    1  UNL1        0.0369
      3 C         -13.8393   -5.9096   19.6818 C.ar    1  UNL1        0.0032
      4 C         -13.8498   -7.0971   18.7655 C.ar    1  UNL1        0.0017
      5 C         -12.7513   -7.2785   17.7604 C.ar    1  UNL1        0.0032
      6 C         -11.6423   -6.2724   17.6715 C.ar    1  UNL1        0.0369
      7 C         -14.9588   -8.1032   18.8544 C.ar    1  UNL1        0.0192
      8 C         -16.2230   -7.7632   19.5866 C.ar    1  UNL1        0.0031
      9 C         -17.3320   -8.7693   19.6755 C.ar    1  UNL1        0.0207
     10 C         -17.1768  -10.1154   19.0322 C.ar    1  UNL1        0.0989
     11 N         -15.9126  -10.4554   18.3000 N.ar    1  UNL1       -0.2423
     12 C         -14.8036   -9.4493   18.2111 C.ar    1  UNL1        0.0988
     13 O         -10.5228   -4.0788   18.4989 O.3     1  UNL1       -0.4755
     14 C         -10.4549   -3.1386   17.3321 C.3     1  UNL1        0.2054
     15 C         -10.8334   -1.6977   17.5070 C.3     1  UNL1        0.0473
     16 C         -13.1317   -1.4219   18.6870 C.3     1  UNL1        0.0001
     17 C         -11.6391   -1.2732   18.6990 C.3     1  UNL1        0.0038
@<TRIPOS>BOND
     1    16    17    1
     2    17    15    1
     3    15    14    1
     4    14    13    1
     5    13     1    1
     6     1     2   ar
     7     2     3   ar
     8     3     4   ar
     9     4     7    1
    10     7     8   ar
    11     8     9   ar
    12     9    10   ar
    13    10    11   ar
    14    11    12   ar
    15     4     5   ar
    16     5     6   ar
    17     6     1   ar
    18    12     7   ar
