@<TRIPOS>MOLECULE
*****
 29 31 0 0 0
SMALL
GASTEIGER

@<TRIPOS>ATOM
      1 C           8.7619   -5.0474   27.1304 C.ar    1  UNL1        0.1724
      2 C           8.4474   -5.6183   28.4814 C.ar    1  UNL1        0.0402
      3 C           8.3008   -7.1012   28.6533 C.ar    1  UNL1        0.0078
      4 C           8.4687   -8.0132   27.4743 C.ar    1  UNL1        0.0566
      5 C           8.7832   -7.4423   26.1234 C.ar    1  UNL1        0.0445
      6 C           8.9298   -5.9594   25.9514 C.ar    1  UNL1        0.1722
      7 C           8.3220   -9.4961   27.6463 C.2     1  UNL1        0.2462
      8 O           9.5359  -10.3770   27.6269 O.2     1  UNL1       -0.2701
      9 N           6.9615  -10.0980   27.8376 N.am    1  UNL1       -0.2956
     10 H           6.1648   -9.5198   27.8503 H       1  UNL1        0.1501
     11 C           6.8149  -11.5809   28.0095 C.3     1  UNL1        0.1366
     12 C           5.4491  -12.2000   28.0484 C.ar    1  UNL1        0.0855
     13 C           4.8314  -13.0412   26.9709 C.ar    1  UNL1        0.0530
     14 S           3.4619  -13.4477   27.4280 S.2     1  UNL1       -0.0705
     15 C           3.2331  -12.8577   28.7881 C.ar    1  UNL1        0.0883
     16 C           1.9937  -13.0118   29.6189 C.3     1  UNL1        0.0594
     17 N           4.4613  -12.0866   29.1714 N.ar    1  UNL1       -0.2453
     18 C           8.7787   -2.6555   28.1445 C.3     1  UNL1        0.2526
     19 O           8.9086   -3.5646   26.9585 O.3     1  UNL1       -0.4684
     20 O           9.2443   -5.3885   24.6004 O.3     1  UNL1       -0.4760
     21 C           8.1363   -4.8931   23.7190 C.3     1  UNL1        0.1688
     22 C           8.3232   -4.8511   22.2313 C.3     1  UNL1        0.0609
     23 C           7.2152   -4.3557   21.3499 C.3     1  UNL1        0.0758
     24 N           5.9202   -3.9023   21.9563 N.3     1  UNL1       -0.2737
     25 C           5.7334   -3.9443   23.4440 C.3     1  UNL1        0.0758
     26 C           6.8414   -4.4397   24.3254 C.3     1  UNL1        0.0609
     27 C           4.8122   -3.4069   21.0749 C.3     1  UNL1        0.0576
     28 C           4.3473   -4.2379   19.9159 C.3     1  UNL1        0.0173
     29 C           4.1691   -2.0805   21.3526 C.3     1  UNL1        0.0173
@<TRIPOS>BOND
     1    18    19    1
     2    19     1    1
     3     1     2   ar
     4     2     3   ar
     5     3     4   ar
     6     4     7    1
     7     7     8    2
     8     7     9   am
     9     9    11    1
    10    11    12    1
    11    12    13   ar
    12    13    14   ar
    13    14    15   ar
    14    15    16    1
    15    15    17   ar
    16     4     5   ar
    17     5     6   ar
    18     6    20    1
    19    20    21    1
    20    21    22    1
    21    22    23    1
    22    23    24    1
    23    24    27    1
    24    27    28    1
    25    27    29    1
    26    24    25    1
    27    25    26    1
    28     6     1   ar
    29    26    21    1
    30    17    12   ar
    31     9    10    1
@<TRIPOS>MOLECULE
*****
 29 31 0 0 0
SMALL
GASTEIGER

@<TRIPOS>ATOM
      1 C           4.2593   -1.3892   18.1791 C.ar    1  UNL1        0.1724
      2 C           3.8321   -0.0271   17.7188 C.ar    1  UNL1        0.0402
      3 C           2.6939    0.6724   18.4010 C.ar    1  UNL1        0.0078
      4 C           1.9829    0.0096   19.5434 C.ar    1  UNL1        0.0566
      5 C           2.4101   -1.3526   20.0037 C.ar    1  UNL1        0.0445
      6 C           3.5483   -2.0520   19.3215 C.ar    1  UNL1        0.1722
      7 C           0.8447    0.7091   20.2256 C.2     1  UNL1        0.2462
      8 O          -0.3302   -0.0796   20.7230 O.2     1  UNL1       -0.2701
      9 N           0.8815    2.1972   20.4103 N.am    1  UNL1       -0.2956
     10 H           1.6527    2.7148   20.0838 H       1  UNL1        0.1501
     11 C          -0.2567    2.8966   21.0925 C.3     1  UNL1        0.1366
     12 C          -1.4755    3.2854   20.3093 C.ar    1  UNL1        0.0855
     13 C          -1.4879    4.0550   19.0218 C.ar    1  UNL1        0.0530
     14 S          -2.9159    4.2181   18.5929 S.2     1  UNL1       -0.0705
     15 C          -3.7862    3.5494   19.6154 C.ar    1  UNL1        0.0883
     16 C          -5.2838    3.4708   19.5828 C.3     1  UNL1        0.0594
     17 N          -2.8960    2.9729   20.6761 N.ar    1  UNL1       -0.2453
     18 C           6.8102   -1.8038   17.9128 C.3     1  UNL1        0.2526
     19 O           5.3974   -2.0887   17.4969 O.3     1  UNL1       -0.4684
     20 O           3.9754   -3.4143   19.7818 O.3     1  UNL1       -0.4760
     21 C           4.9197   -3.5530   20.9390 C.3     1  UNL1        0.1688
     22 C           6.3560   -3.9113   20.6962 C.3     1  UNL1        0.0609
     23 C           7.3003   -4.0500   21.8533 C.3     1  UNL1        0.0758
     24 N           6.8084   -3.8305   23.2533 N.3     1  UNL1       -0.2737
     25 C           5.3722   -3.4722   23.4961 C.3     1  UNL1        0.0758
     26 C           4.4279   -3.3335   22.3389 C.3     1  UNL1        0.0609
     27 C           7.7527   -3.9692   24.4104 C.3     1  UNL1        0.0576
     28 C           7.4568   -4.9495   25.5066 C.3     1  UNL1        0.0173
     29 C           8.9929   -3.1277   24.4714 C.3     1  UNL1        0.0173
@<TRIPOS>BOND
     1    18    19    1
     2    19     1    1
     3     1     2   ar
     4     2     3   ar
     5     3     4   ar
     6     4     7    1
     7     7     8    2
     8     7     9   am
     9     9    11    1
    10    11    12    1
    11    12    13   ar
    12    13    14   ar
    13    14    15   ar
    14    15    16    1
    15    15    17   ar
    16     4     5   ar
    17     5     6   ar
    18     6    20    1
    19    20    21    1
    20    21    22    1
    21    22    23    1
    22    23    24    1
    23    24    27    1
    24    27    28    1
    25    27    29    1
    26    24    25    1
    27    25    26    1
    28     6     1   ar
    29    26    21    1
    30    17    12   ar
    31     9    10    1
@<TRIPOS>MOLECULE
*****
 29 31 0 0 0
SMALL
GASTEIGER

@<TRIPOS>ATOM
      1 C           0.5585    1.0708   21.4026 C.ar    1  UNL1        0.1724
      2 C           0.4393    0.0677   20.2937 C.ar    1  UNL1        0.0402
      3 C           1.5052   -0.9704   20.1036 C.ar    1  UNL1        0.0078
      4 C           2.6904   -1.0055   21.0223 C.ar    1  UNL1        0.0566
      5 C           2.8096   -0.0024   22.1312 C.ar    1  UNL1        0.0445
      6 C           1.7437    1.0357   22.3213 C.ar    1  UNL1        0.1722
      7 C           3.7563   -2.0436   20.8322 C.2     1  UNL1        0.2462
      8 O           3.6047   -3.0877   19.7660 O.2     1  UNL1       -0.2701
      9 N           4.9738   -2.0376   21.7083 N.am    1  UNL1       -0.2956
     10 H           5.0733   -1.3524   22.4081 H       1  UNL1        0.1501
     11 C           6.0397   -3.0758   21.5182 C.3     1  UNL1        0.1366
     12 C           6.5376   -3.8635   22.6937 C.ar    1  UNL1        0.0855
     13 C           6.2871   -3.5454   24.1380 C.ar    1  UNL1        0.0530
     14 S           6.9681   -4.5928   24.9682 S.2     1  UNL1       -0.0705
     15 C           7.6395   -5.5582   24.0369 C.ar    1  UNL1        0.0883
     16 C           8.4369   -6.7629   24.4405 C.3     1  UNL1        0.0594
     17 N           7.3734   -5.1074   22.6312 N.ar    1  UNL1       -0.2453
     18 C          -1.1180    2.7839   20.4005 C.3     1  UNL1        0.2526
     19 O          -0.5074    2.1089   21.5927 O.3     1  UNL1       -0.4684
     20 O           1.8630    2.0388   23.4302 O.3     1  UNL1       -0.4760
     21 C           1.3197    1.7201   24.7915 C.3     1  UNL1        0.1688
     22 C          -0.1356    1.9327   25.0869 C.3     1  UNL1        0.0609
     23 C          -0.6789    1.6140   26.4482 C.3     1  UNL1        0.0758
     24 N           0.2329    1.0827   27.5141 N.3     1  UNL1       -0.2737
     25 C           1.6881    0.8701   27.2188 C.3     1  UNL1        0.0758
     26 C           2.2315    1.1888   25.8575 C.3     1  UNL1        0.0609
     27 C          -0.3104    0.7639   28.8754 C.3     1  UNL1        0.0576
     28 C          -1.4261   -0.2277   29.0244 C.3     1  UNL1        0.0173
     29 C           0.2618    1.4368   30.0878 C.3     1  UNL1        0.0173
@<TRIPOS>BOND
     1    18    19    1
     2    19     1    1
     3     1     2   ar
     4     2     3   ar
     5     3     4   ar
     6     4     7    1
     7     7     8    2
     8     7     9   am
     9     9    11    1
    10    11    12    1
    11    12    13   ar
    12    13    14   ar
    13    14    15   ar
    14    15    16    1
    15    15    17   ar
    16     4     5   ar
    17     5     6   ar
    18     6    20    1
    19    20    21    1
    20    21    22    1
    21    22    23    1
    22    23    24    1
    23    24    27    1
    24    27    28    1
    25    27    29    1
    26    24    25    1
    27    25    26    1
    28     6     1   ar
    29    26    21    1
    30    17    12   ar
    31     9    10    1
@<TRIPOS>MOLECULE
*****
 29 31 0 0 0
SMALL
GASTEIGER

@<TRIPOS>ATOM
      1 C           7.0698   -1.9707   18.3331 C.ar    1  UNL1        0.1724
      2 C           8.4298   -2.0381   18.9623 C.ar    1  UNL1        0.0402
      3 C           8.6758   -2.9595   20.1201 C.ar    1  UNL1        0.0078
      4 C           7.5618   -3.8137   20.6486 C.ar    1  UNL1        0.0566
      5 C           6.2018   -3.7463   20.0195 C.ar    1  UNL1        0.0445
      6 C           5.9559   -2.8249   18.8617 C.ar    1  UNL1        0.1722
      7 C           7.8078   -4.7351   21.8064 C.2     1  UNL1        0.2462
      8 O           8.5283   -6.0331   21.5919 O.2     1  UNL1       -0.2701
      9 N           7.3332   -4.3586   23.1786 N.am    1  UNL1       -0.2956
     10 H           6.8603   -3.5067   23.3194 H       1  UNL1        0.1501
     11 C           7.5792   -5.2801   24.3363 C.3     1  UNL1        0.1366
     12 C           7.2154   -4.8510   25.7269 C.ar    1  UNL1        0.0855
     13 C           6.8104   -3.4686   26.1454 C.ar    1  UNL1        0.0530
     14 S           6.5375   -3.4921   27.6202 S.2     1  UNL1       -0.0705
     15 C           6.7738   -4.8890   28.1131 C.ar    1  UNL1        0.0883
     16 C           6.6184   -5.3628   29.5278 C.3     1  UNL1        0.0594
     17 N           7.1928   -5.7288   26.9430 N.ar    1  UNL1       -0.2453
     18 C           6.8991    0.4361   17.3699 C.3     1  UNL1        0.2526
     19 O           6.8239   -1.0493   17.1754 O.3     1  UNL1       -0.4684
     20 O           4.5958   -2.7576   18.2325 O.3     1  UNL1       -0.4760
     21 C           3.6305   -1.6865   18.6457 C.3     1  UNL1        0.1688
     22 C           2.9182   -1.7859   19.9621 C.3     1  UNL1        0.0609
     23 C           1.9528   -0.7148   20.3754 C.3     1  UNL1        0.0758
     24 N           1.6997    0.4558   19.4722 N.3     1  UNL1       -0.2737
     25 C           2.4119    0.5553   18.1559 C.3     1  UNL1        0.0758
     26 C           3.3773   -0.5159   17.7426 C.3     1  UNL1        0.0609
     27 C           0.7343    1.5269   19.8854 C.3     1  UNL1        0.0576
     28 C           0.2985    2.5663   18.8956 C.3     1  UNL1        0.0173
     29 C           0.2048    1.5587   21.2885 C.3     1  UNL1        0.0173
@<TRIPOS>BOND
     1    18    19    1
     2    19     1    1
     3     1     2   ar
     4     2     3   ar
     5     3     4   ar
     6     4     7    1
     7     7     8    2
     8     7     9   am
     9     9    11    1
    10    11    12    1
    11    12    13   ar
    12    13    14   ar
    13    14    15   ar
    14    15    16    1
    15    15    17   ar
    16     4     5   ar
    17     5     6   ar
    18     6    20    1
    19    20    21    1
    20    21    22    1
    21    22    23    1
    22    23    24    1
    23    24    27    1
    24    27    28    1
    25    27    29    1
    26    24    25    1
    27    25    26    1
    28     6     1   ar
    29    26    21    1
    30    17    12   ar
    31     9    10    1
@<TRIPOS>MOLECULE
*****
 29 31 0 0 0
SMALL
GASTEIGER

@<TRIPOS>ATOM
      1 C           4.5300   -3.3801   21.4271 C.ar    1  UNL1        0.1724
      2 C           5.1448   -3.6258   22.7730 C.ar    1  UNL1        0.0402
      3 C           4.8648   -2.6861   23.9082 C.ar    1  UNL1        0.0078
      4 C           3.9701   -1.5008   23.6975 C.ar    1  UNL1        0.0566
      5 C           3.3553   -1.2552   22.3515 C.ar    1  UNL1        0.0445
      6 C           3.6352   -2.1949   21.2163 C.ar    1  UNL1        0.1722
      7 C           3.6902   -0.5611   24.8327 C.2     1  UNL1        0.2462
      8 O           3.6961    0.9205   24.5987 O.2     1  UNL1       -0.2701
      9 N           3.4043   -1.1031   26.2018 N.am    1  UNL1       -0.2956
     10 H           3.4004   -2.0755   26.3553 H       1  UNL1        0.1501
     11 C           3.1244   -0.1634   27.3370 C.3     1  UNL1        0.1366
     12 C           1.7206    0.2925   27.6044 C.ar    1  UNL1        0.0855
     13 C           1.0154    1.4247   26.9180 C.ar    1  UNL1        0.0530
     14 S          -0.3655    1.5283   27.4945 S.2     1  UNL1       -0.0705
     15 C          -0.5138    0.4601   28.5372 C.ar    1  UNL1        0.0883
     16 C          -1.7366    0.2012   29.3664 C.3     1  UNL1        0.0594
     17 N           0.7755   -0.3036   28.6051 N.ar    1  UNL1       -0.2453
     18 C           3.6991   -5.1398   19.7057 C.3     1  UNL1        0.2526
     19 O           4.8099   -4.3198   20.2919 O.3     1  UNL1       -0.4684
     20 O           3.0204   -1.9492   19.8703 O.3     1  UNL1       -0.4760
     21 C           2.3986   -0.6196   19.5612 C.3     1  UNL1        0.1688
     22 C           0.9994   -0.3227   20.0130 C.3     1  UNL1        0.0609
     23 C           0.3776    1.0069   19.7038 C.3     1  UNL1        0.0758
     24 N           1.1551    2.0396   18.9429 N.3     1  UNL1       -0.2737
     25 C           2.5543    1.7428   18.4912 C.3     1  UNL1        0.0758
     26 C           3.1761    0.4132   18.8003 C.3     1  UNL1        0.0609
     27 C           0.5333    3.3692   18.6338 C.3     1  UNL1        0.0576
     28 C          -0.5001    3.4807   17.5522 C.3     1  UNL1        0.0173
     29 C           0.9449    4.5874   19.4062 C.3     1  UNL1        0.0173
@<TRIPOS>BOND
     1    18    19    1
     2    19     1    1
     3     1     2   ar
     4     2     3   ar
     5     3     4   ar
     6     4     7    1
     7     7     8    2
     8     7     9   am
     9     9    11    1
    10    11    12    1
    11    12    13   ar
    12    13    14   ar
    13    14    15   ar
    14    15    16    1
    15    15    17   ar
    16     4     5   ar
    17     5     6   ar
    18     6    20    1
    19    20    21    1
    20    21    22    1
    21    22    23    1
    22    23    24    1
    23    24    27    1
    24    27    28    1
    25    27    29    1
    26    24    25    1
    27    25    26    1
    28     6     1   ar
    29    26    21    1
    30    17    12   ar
    31     9    10    1
@<TRIPOS>MOLECULE
*****
 29 31 0 0 0
SMALL
GASTEIGER

@<TRIPOS>ATOM
      1 C           7.8331   -7.5533   25.7434 C.ar    1  UNL1        0.1724
      2 C           8.7006   -7.6826   24.5266 C.ar    1  UNL1        0.0402
      3 C           8.7732   -6.5598   23.5346 C.ar    1  UNL1        0.0078
      4 C           7.9784   -5.3078   23.7594 C.ar    1  UNL1        0.0566
      5 C           7.1108   -5.1785   24.9762 C.ar    1  UNL1        0.0445
      6 C           7.0382   -6.3013   25.9682 C.ar    1  UNL1        0.1722
      7 C           8.0510   -4.1850   22.7674 C.2     1  UNL1        0.2462
      8 O           8.4702   -2.8157   23.2138 O.2     1  UNL1       -0.2701
      9 N           7.7044   -4.4314   21.3290 N.am    1  UNL1       -0.2956
     10 H           7.4293   -5.3302   21.0360 H       1  UNL1        0.1501
     11 C           7.7771   -3.3086   20.3370 C.3     1  UNL1        0.1366
     12 C           6.5167   -2.7322   19.7630 C.ar    1  UNL1        0.0855
     13 C           6.3494   -2.1839   18.3769 C.ar    1  UNL1        0.0530
     14 S           4.9318   -1.7157   18.2316 S.2     1  UNL1       -0.0705
     15 C           4.2229   -1.9747   19.5280 C.ar    1  UNL1        0.0883
     16 C           2.7867   -1.6606   19.8257 C.3     1  UNL1        0.0594
     17 N           5.2025   -2.6030   20.4745 N.ar    1  UNL1       -0.2453
     18 C           8.9269   -8.9586   27.6351 C.3     1  UNL1        0.2526
     19 O           7.7604   -8.6761   26.7354 O.3     1  UNL1       -0.4684
     20 O           6.1706   -6.1721   27.1851 O.3     1  UNL1       -0.4760
     21 C           6.6539   -5.3915   28.3712 C.3     1  UNL1        0.1688
     22 C           6.4367   -3.9085   28.4323 C.3     1  UNL1        0.0609
     23 C           6.9200   -3.1279   29.6185 C.3     1  UNL1        0.0758
     24 N           7.6205   -3.8302   30.7436 N.3     1  UNL1       -0.2737
     25 C           7.8377   -5.3131   30.6826 C.3     1  UNL1        0.0758
     26 C           7.3544   -6.0938   29.4964 C.3     1  UNL1        0.0609
     27 C           8.1038   -3.0496   31.9298 C.3     1  UNL1        0.0576
     28 C           7.1562   -2.1602   32.6790 C.3     1  UNL1        0.0173
     29 C           9.5346   -3.1583   32.3668 C.3     1  UNL1        0.0173
@<TRIPOS>BOND
     1    18    19    1
     2    19     1    1
     3     1     2   ar
     4     2     3   ar
     5     3     4   ar
     6     4     7    1
     7     7     8    2
     8     7     9   am
     9     9    11    1
    10    11    12    1
    11    12    13   ar
    12    13    14   ar
    13    14    15   ar
    14    15    16    1
    15    15    17   ar
    16     4     5   ar
    17     5     6   ar
    18     6    20    1
    19    20    21    1
    20    21    22    1
    21    22    23    1
    22    23    24    1
    23    24    27    1
    24    27    28    1
    25    27    29    1
    26    24    25    1
    27    25    26    1
    28     6     1   ar
    29    26    21    1
    30    17    12   ar
    31     9    10    1
@<TRIPOS>MOLECULE
*****
 29 31 0 0 0
SMALL
GASTEIGER

@<TRIPOS>ATOM
      1 C          -6.1307  -15.6083   26.2521 C.ar    1  UNL1        0.1724
      2 C          -4.8570  -16.2664   26.6932 C.ar    1  UNL1        0.0402
      3 C          -3.9665  -16.9286   25.6841 C.ar    1  UNL1        0.0078
      4 C          -4.3496  -16.9328   24.2339 C.ar    1  UNL1        0.0566
      5 C          -5.6233  -16.2748   23.7928 C.ar    1  UNL1        0.0445
      6 C          -6.5139  -15.6125   24.8019 C.ar    1  UNL1        0.1722
      7 C          -3.4591  -17.5951   23.2247 C.2     1  UNL1        0.2462
      8 O          -2.2646  -16.8657   22.6854 O.2     1  UNL1       -0.2701
      9 N          -3.7631  -18.9868   22.7550 N.am    1  UNL1       -0.2956
     10 H          -4.5471  -19.4656   23.1090 H       1  UNL1        0.1501
     11 C          -2.8725  -19.6491   21.7459 C.3     1  UNL1        0.1366
     12 C          -2.4029  -18.8846   20.5437 C.ar    1  UNL1        0.0855
     13 C          -0.9755  -18.6840   20.1288 C.ar    1  UNL1        0.0530
     14 S          -0.9686  -17.8619   18.8742 S.2     1  UNL1       -0.0705
     15 C          -2.3918  -17.5544   18.5137 C.ar    1  UNL1        0.0883
     16 C          -2.8484  -16.7552   17.3293 C.3     1  UNL1        0.0594
     17 N          -3.2783  -18.1865   19.5455 N.ar    1  UNL1       -0.2453
     18 C          -8.3432  -15.5613   27.6133 C.3     1  UNL1        0.2526
     19 O          -7.0213  -14.9460   27.2612 O.3     1  UNL1       -0.4684
     20 O          -7.7876  -14.9544   24.3608 O.3     1  UNL1       -0.4760
     21 C          -8.8187  -15.7438   23.6099 C.3     1  UNL1        0.1688
     22 C          -8.9699  -15.5624   22.1285 C.3     1  UNL1        0.0609
     23 C         -10.0009  -16.3518   21.3777 C.3     1  UNL1        0.0758
     24 N         -10.8807  -17.3226   22.1080 N.3     1  UNL1       -0.2737
     25 C         -10.7295  -17.5040   23.5893 C.3     1  UNL1        0.0758
     26 C          -9.6985  -16.7146   24.3403 C.3     1  UNL1        0.0609
     27 C         -11.9117  -18.1120   21.3572 C.3     1  UNL1        0.0576
     28 C         -13.3580  -18.0154   21.7432 C.3     1  UNL1        0.0173
     29 C         -11.4965  -18.9980   20.2203 C.3     1  UNL1        0.0173
@<TRIPOS>BOND
     1    18    19    1
     2    19     1    1
     3     1     2   ar
     4     2     3   ar
     5     3     4   ar
     6     4     7    1
     7     7     8    2
     8     7     9   am
     9     9    11    1
    10    11    12    1
    11    12    13   ar
    12    13    14   ar
    13    14    15   ar
    14    15    16    1
    15    15    17   ar
    16     4     5   ar
    17     5     6   ar
    18     6    20    1
    19    20    21    1
    20    21    22    1
    21    22    23    1
    22    23    24    1
    23    24    27    1
    24    27    28    1
    25    27    29    1
    26    24    25    1
    27    25    26    1
    28     6     1   ar
    29    26    21    1
    30    17    12   ar
    31     9    10    1
@<TRIPOS>MOLECULE
*****
 29 31 0 0 0
SMALL
GASTEIGER

@<TRIPOS>ATOM
      1 C          -7.6447  -15.5509   26.3872 C.ar    1  UNL1        0.1724
      2 C          -6.2509  -15.2539   26.8551 C.ar    1  UNL1        0.0402
      3 C          -5.0860  -15.4924   25.9408 C.ar    1  UNL1        0.0078
      4 C          -5.3148  -16.0280   24.5585 C.ar    1  UNL1        0.0566
      5 C          -6.7087  -16.3251   24.0906 C.ar    1  UNL1        0.0445
      6 C          -7.8736  -16.0865   25.0049 C.ar    1  UNL1        0.1722
      7 C          -4.1499  -16.2665   23.6442 C.2     1  UNL1        0.2462
      8 O          -3.7714  -15.2320   22.6261 O.2     1  UNL1       -0.2701
      9 N          -3.3635  -17.5396   23.7479 N.am    1  UNL1       -0.2956
     10 H          -3.6119  -18.2186   24.4161 H       1  UNL1        0.1501
     11 C          -2.1985  -17.7781   22.8335 C.3     1  UNL1        0.1366
     12 C          -2.4328  -18.0733   21.3816 C.ar    1  UNL1        0.0855
     13 C          -3.3034  -19.1648   20.8332 C.ar    1  UNL1        0.0530
     14 S          -3.2463  -19.0950   19.3359 S.2     1  UNL1       -0.0705
     15 C          -2.3405  -17.9603   18.9590 C.ar    1  UNL1        0.0883
     16 C          -1.9977  -17.5322   17.5628 C.3     1  UNL1        0.0594
     17 N          -1.8378  -17.3289   20.2233 N.ar    1  UNL1       -0.2453
     18 C          -8.7843  -14.1625   28.2643 C.3     1  UNL1        0.2526
     19 O          -8.8097  -15.3124   27.3015 O.3     1  UNL1       -0.4684
     20 O          -9.2675  -16.3836   24.5369 O.3     1  UNL1       -0.4760
     21 C          -9.4846  -17.1395   23.2596 C.3     1  UNL1        0.1688
     22 C         -10.1294  -16.4614   22.0872 C.3     1  UNL1        0.0609
     23 C         -10.3465  -17.2173   20.8099 C.3     1  UNL1        0.0758
     24 N          -9.9190  -18.6512   20.7050 N.3     1  UNL1       -0.2737
     25 C          -9.2743  -19.3293   21.8774 C.3     1  UNL1        0.0758
     26 C          -9.0571  -18.5734   23.1547 C.3     1  UNL1        0.0609
     27 C         -10.1361  -19.4071   19.4277 C.3     1  UNL1        0.0576
     28 C         -11.4677  -19.3496   18.7393 C.3     1  UNL1        0.0173
     29 C          -9.0218  -20.2204   18.8388 C.3     1  UNL1        0.0173
@<TRIPOS>BOND
     1    18    19    1
     2    19     1    1
     3     1     2   ar
     4     2     3   ar
     5     3     4   ar
     6     4     7    1
     7     7     8    2
     8     7     9   am
     9     9    11    1
    10    11    12    1
    11    12    13   ar
    12    13    14   ar
    13    14    15   ar
    14    15    16    1
    15    15    17   ar
    16     4     5   ar
    17     5     6   ar
    18     6    20    1
    19    20    21    1
    20    21    22    1
    21    22    23    1
    22    23    24    1
    23    24    27    1
    24    27    28    1
    25    27    29    1
    26    24    25    1
    27    25    26    1
    28     6     1   ar
    29    26    21    1
    30    17    12   ar
    31     9    10    1
@<TRIPOS>MOLECULE
*****
 29 31 0 0 0
SMALL
GASTEIGER

@<TRIPOS>ATOM
      1 C           2.0769    3.4330   20.1751 C.ar    1  UNL1        0.1724
      2 C           1.4945    4.3620   21.1987 C.ar    1  UNL1        0.0402
      3 C           0.0082    4.5439   21.2869 C.ar    1  UNL1        0.0078
      4 C          -0.8957    3.7969   20.3515 C.ar    1  UNL1        0.0566
      5 C          -0.3132    2.8680   19.3279 C.ar    1  UNL1        0.0445
      6 C           1.1731    2.6860   19.2397 C.ar    1  UNL1        0.1722
      7 C          -2.3820    3.9788   20.4398 C.2     1  UNL1        0.2462
      8 O          -2.9936    5.3140   20.1345 O.2     1  UNL1       -0.2701
      9 N          -3.2567    2.8256   20.8332 N.am    1  UNL1       -0.2956
     10 H          -2.8553    1.9492   21.0335 H       1  UNL1        0.1501
     11 C          -4.7430    3.0075   20.9214 C.3     1  UNL1        0.1366
     12 C          -5.3597    3.5432   22.1796 C.ar    1  UNL1        0.0855
     13 C          -4.7608    3.4752   23.5532 C.ar    1  UNL1        0.0530
     14 S          -5.7144    4.1309   24.5076 S.2     1  UNL1       -0.0705
     15 C          -6.9026    4.6041   23.7237 C.ar    1  UNL1        0.0883
     16 C          -8.0998    5.3157   24.2808 C.3     1  UNL1        0.0594
     17 N          -6.6833    4.2409   22.2850 N.ar    1  UNL1       -0.2453
     18 C           4.2793    2.4208   21.1104 C.3     1  UNL1        0.2526
     19 O           3.5633    3.2511   20.0868 O.3     1  UNL1       -0.4684
     20 O           1.7555    1.7570   18.2160 O.3     1  UNL1       -0.4760
     21 C           2.3237    0.4351   18.6399 C.3     1  UNL1        0.1688
     22 C           3.3919   -0.2209   17.8162 C.3     1  UNL1        0.0609
     23 C           3.9601   -1.5428   18.2400 C.3     1  UNL1        0.0758
     24 N           3.4601   -2.2087   19.4877 N.3     1  UNL1       -0.2737
     25 C           2.3919   -1.5527   20.3114 C.3     1  UNL1        0.0758
     26 C           1.8237   -0.2307   19.8875 C.3     1  UNL1        0.0609
     27 C           4.0283   -3.5306   19.9116 C.3     1  UNL1        0.0576
     28 C           4.6004   -3.6942   21.2886 C.3     1  UNL1        0.0173
     29 C           4.0244   -4.6889   18.9585 C.3     1  UNL1        0.0173
@<TRIPOS>BOND
     1    18    19    1
     2    19     1    1
     3     1     2   ar
     4     2     3   ar
     5     3     4   ar
     6     4     7    1
     7     7     8    2
     8     7     9   am
     9     9    11    1
    10    11    12    1
    11    12    13   ar
    12    13    14   ar
    13    14    15   ar
    14    15    16    1
    15    15    17   ar
    16     4     5   ar
    17     5     6   ar
    18     6    20    1
    19    20    21    1
    20    21    22    1
    21    22    23    1
    22    23    24    1
    23    24    27    1
    24    27    28    1
    25    27    29    1
    26    24    25    1
    27    25    26    1
    28     6     1   ar
    29    26    21    1
    30    17    12   ar
    31     9    10    1
