@<TRIPOS>MOLECULE
*****
 36 40 0 0 0
SMALL
GASTEIGER

@<TRIPOS>ATOM
      1 C          -2.8237  -18.8599   18.6910 C.3     1  UNL1        0.0731
      2 N          -3.9450  -19.2592   19.6037 N.3     1  UNL1       -0.2712
      3 C          -3.8794  -20.3070   20.6750 C.3     1  UNL1        0.0738
      4 C          -5.2227  -20.3761   21.3388 C.3     1  UNL1        0.0372
      5 C          -6.0124  -21.0664   22.4111 C.3     1  UNL1        0.0245
      6 C          -7.3964  -20.4879   22.4128 C.3     1  UNL1        0.0909
      7 N          -7.4620  -19.4400   21.3415 N.pl3   1  UNL1       -0.3077
      8 C          -6.1187  -19.3709   20.6777 C.3     1  UNL1        0.0901
      9 C          -5.3290  -18.6806   19.6054 C.3     1  UNL1        0.0921
     10 C          -8.6606  -18.6074   20.9948 C.ar    1  UNL1        0.0478
     11 C          -8.8565  -17.2686   21.6422 C.ar    1  UNL1        0.0145
     12 C         -10.0551  -16.4360   21.2956 C.ar    1  UNL1        0.0051
     13 C         -11.0578  -16.9422   20.3014 C.ar    1  UNL1        0.0715
     14 C         -10.8619  -18.2811   19.6539 C.ar    1  UNL1        0.0051
     15 C          -9.6633  -19.1137   20.0006 C.ar    1  UNL1        0.0145
     16 C         -12.2564  -16.1096   19.9548 C.3     1  UNL1        0.4186
     17 F         -13.4550  -15.2770   19.6081 F       1  UNL1       -0.1659
     18 F         -13.0932  -16.9214   20.8985 F       1  UNL1       -0.1659
     19 F         -11.4195  -15.2978   19.0110 F       1  UNL1       -0.1659
     20 C          -2.0465  -17.6059   18.9618 C.3     1  UNL1        0.0294
     21 C          -1.0508  -17.5678   20.0830 C.3     1  UNL1        0.0666
     22 S          -1.5076  -17.7613   21.4986 S.3     1  UNL1       -0.0756
     23 C          -3.6112  -18.4666   23.8917 C.3     1  UNL1        0.1340
     24 N          -3.4751  -17.1430   23.1991 N.ar    1  UNL1       -0.2884
     25 C          -2.5082  -16.8188   22.0991 C.ar    1  UNL1        0.1932
     26 N          -2.7174  -15.3867   21.7051 N.ar    1  UNL1       -0.1221
     27 N          -3.8137  -14.8258   22.5616 N.ar    1  UNL1       -0.1282
     28 C          -4.2820  -15.9112   23.4850 C.ar    1  UNL1        0.1683
     29 C          -5.3667  -15.7867   24.5136 C.ar    1  UNL1        0.0534
     30 C          -5.0132  -15.6844   25.9677 C.ar    1  UNL1        0.0094
     31 C          -6.0979  -15.5599   26.9963 C.ar    1  UNL1        0.0609
     32 C          -7.5361  -15.5377   26.5706 C.ar    1  UNL1        0.2610
     33 O          -8.6208  -15.4132   27.5991 O.2     1  UNL1       -0.2670
     34 N          -7.8896  -15.6400   25.1164 N.ar    1  UNL1       -0.2921
     35 C          -9.3278  -15.6179   24.6909 C.3     1  UNL1        0.1336
     36 C          -6.8048  -15.7645   24.0879 C.ar    1  UNL1        0.0814
@<TRIPOS>BOND
     1    23    24    1
     2    24    25   ar
     3    25    22    1
     4    22    21    1
     5    21    20    1
     6    20     1    1
     7     1     2    1
     8     2     3    1
     9     3     4    1
    10     4     5    1
    11     5     6    1
    12     6     7    1
    13     7    10    1
    14    10    11   ar
    15    11    12   ar
    16    12    13   ar
    17    13    16    1
    18    16    17    1
    19    16    18    1
    20    16    19    1
    21    13    14   ar
    22    14    15   ar
    23     7     8    1
    24     8     9    1
    25    25    26   ar
    26    26    27   ar
    27    27    28   ar
    28    28    29    1
    29    29    30   ar
    30    30    31   ar
    31    31    32   ar
    32    32    33    2
    33    32    34   ar
    34    34    35    1
    35    34    36   ar
    36    28    24   ar
    37    36    29   ar
    38     9     2    1
    39     8     4    1
    40    15    10   ar
@<TRIPOS>MOLECULE
*****
 36 40 0 0 0
SMALL
GASTEIGER

@<TRIPOS>ATOM
      1 C           0.0440    3.2064   24.0198 C.3     1  UNL1        0.0731
      2 N           1.0313    2.1442   24.4032 N.3     1  UNL1       -0.2712
      3 C           1.6429    1.9573   25.7600 C.3     1  UNL1        0.0738
      4 C           2.5699    0.7800   25.6924 C.3     1  UNL1        0.0372
      5 C           3.5208   -0.0632   26.4892 C.3     1  UNL1        0.0245
      6 C           4.0698   -1.1250   25.5830 C.3     1  UNL1        0.0909
      7 N           3.4582   -0.9381   24.2261 N.pl3   1  UNL1       -0.3077
      8 C           2.5312    0.2393   24.2938 C.3     1  UNL1        0.0901
      9 C           1.5803    1.0824   23.4970 C.3     1  UNL1        0.0921
     10 C           3.7264   -1.7806   23.0144 C.ar    1  UNL1        0.0478
     11 C           4.5726   -3.0137   23.1307 C.ar    1  UNL1        0.0145
     12 C           4.8408   -3.8562   21.9190 C.ar    1  UNL1        0.0051
     13 C           4.2630   -3.4656   20.5910 C.ar    1  UNL1        0.0715
     14 C           3.4168   -2.2324   20.4747 C.ar    1  UNL1        0.0051
     15 C           3.1485   -1.3899   21.6864 C.ar    1  UNL1        0.0145
     16 C           4.5313   -4.3081   19.3793 C.3     1  UNL1        0.4186
     17 F           4.7995   -5.1506   18.1676 F       1  UNL1       -0.1659
     18 F           3.0806   -4.2320   19.0052 F       1  UNL1       -0.1659
     19 F           5.9819   -4.3842   19.7534 F       1  UNL1       -0.1659
     20 C          -0.0720    3.6413   22.5889 C.3     1  UNL1        0.0294
     21 C          -1.2909    3.2813   21.7921 C.3     1  UNL1        0.0666
     22 S          -1.1698    2.9943   20.3248 S.3     1  UNL1       -0.0756
     23 C           0.5387    0.2344   19.9880 C.3     1  UNL1        0.1340
     24 N           0.9708    1.5991   19.5399 N.ar    1  UNL1       -0.2884
     25 C           0.1855    2.8677   19.6947 C.ar    1  UNL1        0.1932
     26 N           0.9935    3.9875   19.1089 N.ar    1  UNL1       -0.1221
     27 N           2.2782    3.4110   18.5920 N.ar    1  UNL1       -0.1282
     28 C           2.2643    1.9349   18.8583 C.ar    1  UNL1        0.1683
     29 C           3.3526    0.9649   18.5052 C.ar    1  UNL1        0.0534
     30 C           3.1133   -0.0821   17.4581 C.ar    1  UNL1        0.0094
     31 C           4.2016   -1.0521   17.1049 C.ar    1  UNL1        0.0609
     32 C           5.5292   -0.9749   17.7989 C.ar    1  UNL1        0.2610
     33 O           6.6175   -1.9449   17.4458 O.2     1  UNL1       -0.2670
     34 N           5.7685    0.0721   18.8460 N.ar    1  UNL1       -0.2921
     35 C           7.0961    0.1491   19.5400 C.3     1  UNL1        0.1336
     36 C           4.6801    1.0421   19.1992 C.ar    1  UNL1        0.0814
@<TRIPOS>BOND
     1    23    24    1
     2    24    25   ar
     3    25    22    1
     4    22    21    1
     5    21    20    1
     6    20     1    1
     7     1     2    1
     8     2     3    1
     9     3     4    1
    10     4     5    1
    11     5     6    1
    12     6     7    1
    13     7    10    1
    14    10    11   ar
    15    11    12   ar
    16    12    13   ar
    17    13    16    1
    18    16    17    1
    19    16    18    1
    20    16    19    1
    21    13    14   ar
    22    14    15   ar
    23     7     8    1
    24     8     9    1
    25    25    26   ar
    26    26    27   ar
    27    27    28   ar
    28    28    29    1
    29    29    30   ar
    30    30    31   ar
    31    31    32   ar
    32    32    33    2
    33    32    34   ar
    34    34    35    1
    35    34    36   ar
    36    28    24   ar
    37    36    29   ar
    38     9     2    1
    39     8     4    1
    40    15    10   ar
@<TRIPOS>MOLECULE
*****
 36 40 0 0 0
SMALL
GASTEIGER

@<TRIPOS>ATOM
      1 C           4.0774   -0.6708   28.2192 C.3     1  UNL1        0.0731
      2 N           3.6976   -0.2419   26.8329 N.3     1  UNL1       -0.2712
      3 C           3.0965    1.0786   26.4521 C.3     1  UNL1        0.0738
      4 C           2.8797    1.0783   24.9678 C.3     1  UNL1        0.0372
      5 C           2.3741    1.8943   23.8151 C.3     1  UNL1        0.0245
      6 C           2.5288    1.0780   22.5662 C.3     1  UNL1        0.0909
      7 N           3.1299   -0.2426   22.9471 N.pl3   1  UNL1       -0.3077
      8 C           3.3468   -0.2423   24.4313 C.3     1  UNL1        0.0901
      9 C           3.8523   -1.0582   25.5840 C.3     1  UNL1        0.0921
     10 C           3.4568   -1.3660   22.0085 C.ar    1  UNL1        0.0478
     11 C           2.9787   -1.3193   20.5875 C.ar    1  UNL1        0.0145
     12 C           3.3055   -2.4428   19.6489 C.ar    1  UNL1        0.0051
     13 C           4.1106   -3.6129   20.1312 C.ar    1  UNL1        0.0715
     14 C           4.5888   -3.6596   21.5522 C.ar    1  UNL1        0.0051
     15 C           4.2619   -2.5361   22.4909 C.ar    1  UNL1        0.0145
     16 C           4.4375   -4.7363   19.1926 C.3     1  UNL1        0.4186
     17 F           4.7644   -5.8598   18.2540 F       1  UNL1       -0.1659
     18 F           3.3677   -5.5762   19.8252 F       1  UNL1       -0.1659
     19 F           5.5073   -3.8965   18.5600 F       1  UNL1       -0.1659
     20 C           3.0785   -0.5745   29.3341 C.3     1  UNL1        0.0294
     21 C           3.0512    0.6401   30.2139 C.3     1  UNL1        0.0666
     22 S           1.7464    1.3113   30.5253 S.3     1  UNL1       -0.0756
     23 C           1.1584    3.5618   28.2364 C.3     1  UNL1        0.1340
     24 N           0.3592    2.3146   28.4726 N.ar    1  UNL1       -0.2884
     25 C           0.6294    1.2802   29.5247 C.ar    1  UNL1        0.1932
     26 N          -0.4134    0.2092   29.4004 N.ar    1  UNL1       -0.1221
     27 N          -1.3282    0.5817   28.2716 N.ar    1  UNL1       -0.1282
     28 C          -0.8508    1.8829   27.6980 C.ar    1  UNL1        0.1683
     29 C          -1.4738    2.6226   26.5514 C.ar    1  UNL1        0.0534
     30 C          -2.7178    3.4322   26.7684 C.ar    1  UNL1        0.0094
     31 C          -3.3409    4.1718   25.6218 C.ar    1  UNL1        0.0609
     32 C          -2.7198    4.1018   24.2581 C.ar    1  UNL1        0.2610
     33 O          -3.3429    4.8414   23.1115 O.2     1  UNL1       -0.2670
     34 N          -1.4759    3.2922   24.0411 N.ar    1  UNL1       -0.2921
     35 C          -0.8550    3.2222   22.6775 C.3     1  UNL1        0.1336
     36 C          -0.8529    2.5526   25.1878 C.ar    1  UNL1        0.0814
@<TRIPOS>BOND
     1    23    24    1
     2    24    25   ar
     3    25    22    1
     4    22    21    1
     5    21    20    1
     6    20     1    1
     7     1     2    1
     8     2     3    1
     9     3     4    1
    10     4     5    1
    11     5     6    1
    12     6     7    1
    13     7    10    1
    14    10    11   ar
    15    11    12   ar
    16    12    13   ar
    17    13    16    1
    18    16    17    1
    19    16    18    1
    20    16    19    1
    21    13    14   ar
    22    14    15   ar
    23     7     8    1
    24     8     9    1
    25    25    26   ar
    26    26    27   ar
    27    27    28   ar
    28    28    29    1
    29    29    30   ar
    30    30    31   ar
    31    31    32   ar
    32    32    33    2
    33    32    34   ar
    34    34    35    1
    35    34    36   ar
    36    28    24   ar
    37    36    29   ar
    38     9     2    1
    39     8     4    1
    40    15    10   ar
@<TRIPOS>MOLECULE
*****
 36 40 0 0 0
SMALL
GASTEIGER

@<TRIPOS>ATOM
      1 C          -2.9999  -17.4387   18.6211 C.3     1  UNL1        0.0731
      2 N          -3.9221  -18.4501   19.2346 N.3     1  UNL1       -0.2712
      3 C          -3.6477  -19.9172   19.3841 C.3     1  UNL1        0.0738
      4 C          -4.8367  -20.5458   20.0482 C.3     1  UNL1        0.0372
      5 C          -5.4020  -21.8411   20.5510 C.3     1  UNL1        0.0245
      6 C          -6.7607  -21.5631   21.1227 C.3     1  UNL1        0.0909
      7 N          -7.0351  -20.0959   20.9731 N.pl3   1  UNL1       -0.3077
      8 C          -5.8460  -19.4673   20.3091 C.3     1  UNL1        0.0901
      9 C          -5.2808  -18.1721   19.8062 C.3     1  UNL1        0.0921
     10 C          -8.2800  -19.3827   21.4108 C.ar    1  UNL1        0.0478
     11 C          -9.0269  -18.5147   20.4421 C.ar    1  UNL1        0.0145
     12 C         -10.2718  -17.8015   20.8798 C.ar    1  UNL1        0.0051
     13 C         -10.7698  -17.9563   22.2862 C.ar    1  UNL1        0.0715
     14 C         -10.0228  -18.8244   23.2550 C.ar    1  UNL1        0.0051
     15 C          -8.7779  -19.5376   22.8173 C.ar    1  UNL1        0.0145
     16 C         -12.0147  -17.2431   22.7238 C.3     1  UNL1        0.4186
     17 F         -13.2596  -16.5299   23.1615 F       1  UNL1       -0.1659
     18 F         -12.8502  -18.2586   22.0022 F       1  UNL1       -0.1659
     19 F         -11.1792  -16.2276   23.4455 F       1  UNL1       -0.1659
     20 C          -1.5566  -17.3959   19.0275 C.3     1  UNL1        0.0294
     21 C          -1.0203  -18.4063   19.9978 C.3     1  UNL1        0.0666
     22 S          -1.2447  -18.2253   21.4698 S.3     1  UNL1       -0.0756
     23 C          -3.9038  -18.8451   23.2571 C.3     1  UNL1        0.1340
     24 N          -3.4573  -17.4950   22.7797 N.ar    1  UNL1       -0.2884
     25 C          -2.2351  -17.2101   21.9581 C.ar    1  UNL1        0.1932
     26 N          -2.1771  -15.7318   21.7107 N.ar    1  UNL1       -0.1221
     27 N          -3.3635  -15.1030   22.3793 N.ar    1  UNL1       -0.1282
     28 C          -4.1548  -16.1927   23.0400 C.ar    1  UNL1        0.1683
     29 C          -5.4211  -16.0119   23.8234 C.ar    1  UNL1        0.0534
     30 C          -6.7505  -16.1880   23.1513 C.ar    1  UNL1        0.0094
     31 C          -8.0168  -16.0072   23.9347 C.ar    1  UNL1        0.0609
     32 C          -7.9537  -15.6502   25.3903 C.ar    1  UNL1        0.2610
     33 O          -9.2200  -15.4694   26.1737 O.2     1  UNL1       -0.2670
     34 N          -6.6243  -15.4741   26.0624 N.ar    1  UNL1       -0.2921
     35 C          -6.5613  -15.1171   27.5179 C.3     1  UNL1        0.1336
     36 C          -5.3580  -15.6549   25.2789 C.ar    1  UNL1        0.0814
@<TRIPOS>BOND
     1    23    24    1
     2    24    25   ar
     3    25    22    1
     4    22    21    1
     5    21    20    1
     6    20     1    1
     7     1     2    1
     8     2     3    1
     9     3     4    1
    10     4     5    1
    11     5     6    1
    12     6     7    1
    13     7    10    1
    14    10    11   ar
    15    11    12   ar
    16    12    13   ar
    17    13    16    1
    18    16    17    1
    19    16    18    1
    20    16    19    1
    21    13    14   ar
    22    14    15   ar
    23     7     8    1
    24     8     9    1
    25    25    26   ar
    26    26    27   ar
    27    27    28   ar
    28    28    29    1
    29    29    30   ar
    30    30    31   ar
    31    31    32   ar
    32    32    33    2
    33    32    34   ar
    34    34    35    1
    35    34    36   ar
    36    28    24   ar
    37    36    29   ar
    38     9     2    1
    39     8     4    1
    40    15    10   ar
@<TRIPOS>MOLECULE
*****
 36 40 0 0 0
SMALL
GASTEIGER

@<TRIPOS>ATOM
      1 C          -1.2722    4.0243   16.8998 C.3     1  UNL1        0.0731
      2 N          -2.6338    4.0282   17.5290 N.3     1  UNL1       -0.2712
      3 C          -3.9431    3.9926   16.7979 C.3     1  UNL1        0.0738
      4 C          -5.0436    4.0109   17.8169 C.3     1  UNL1        0.0372
      5 C          -6.5330    4.0002   17.9949 C.3     1  UNL1        0.0245
      6 C          -6.8245    4.0404   19.4658 C.3     1  UNL1        0.0909
      7 N          -5.5151    4.0760   20.1969 N.pl3   1  UNL1       -0.3077
      8 C          -4.4146    4.0578   19.1779 C.3     1  UNL1        0.0901
      9 C          -2.9252    4.0685   18.9999 C.3     1  UNL1        0.0921
     10 C          -5.3376    4.1218   21.6857 C.ar    1  UNL1        0.0478
     11 C          -4.3459    3.2142   22.3510 C.ar    1  UNL1        0.0145
     12 C          -4.1684    3.2600   23.8397 C.ar    1  UNL1        0.0051
     13 C          -4.9825    4.2135   24.6632 C.ar    1  UNL1        0.0715
     14 C          -5.9742    5.1212   23.9978 C.ar    1  UNL1        0.0051
     15 C          -6.1518    5.0754   22.5091 C.ar    1  UNL1        0.0145
     16 C          -4.8050    4.2593   26.1519 C.3     1  UNL1        0.4186
     17 F          -4.6274    4.3051   27.6407 F       1  UNL1       -0.1659
     18 F          -6.0548    5.0794   26.2757 F       1  UNL1       -0.1659
     19 F          -3.5551    3.4391   26.0281 F       1  UNL1       -0.1659
     20 C          -0.0916    3.5110   17.6697 C.3     1  UNL1        0.0294
     21 C           0.5630    4.3772   18.7048 C.3     1  UNL1        0.0666
     22 S           0.6486    3.9109   20.1278 S.3     1  UNL1       -0.0756
     23 C           3.3970    2.1736   20.4067 C.3     1  UNL1        0.1340
     24 N           2.0012    1.6463   20.5606 N.ar    1  UNL1       -0.2884
     25 C           0.7379    2.4448   20.4324 C.ar    1  UNL1        0.1932
     26 N          -0.4205    1.5200   20.6624 N.ar    1  UNL1       -0.1221
     27 N           0.1269    0.1498   20.9327 N.ar    1  UNL1       -0.1282
     28 C           1.6236    0.2278   20.8698 C.ar    1  UNL1        0.1683
     29 C           2.5755   -0.9123   21.0793 C.ar    1  UNL1        0.0534
     30 C           3.1600   -1.1614   22.4381 C.ar    1  UNL1        0.0094
     31 C           4.1119   -2.3016   22.6476 C.ar    1  UNL1        0.0609
     32 C           4.4793   -3.1927   21.4982 C.ar    1  UNL1        0.2610
     33 O           5.4312   -4.3329   21.7077 O.2     1  UNL1       -0.2670
     34 N           3.8948   -2.9436   20.1394 N.ar    1  UNL1       -0.2921
     35 C           4.2622   -3.8348   18.9901 C.3     1  UNL1        0.1336
     36 C           2.9429   -1.8034   19.9300 C.ar    1  UNL1        0.0814
@<TRIPOS>BOND
     1    23    24    1
     2    24    25   ar
     3    25    22    1
     4    22    21    1
     5    21    20    1
     6    20     1    1
     7     1     2    1
     8     2     3    1
     9     3     4    1
    10     4     5    1
    11     5     6    1
    12     6     7    1
    13     7    10    1
    14    10    11   ar
    15    11    12   ar
    16    12    13   ar
    17    13    16    1
    18    16    17    1
    19    16    18    1
    20    16    19    1
    21    13    14   ar
    22    14    15   ar
    23     7     8    1
    24     8     9    1
    25    25    26   ar
    26    26    27   ar
    27    27    28   ar
    28    28    29    1
    29    29    30   ar
    30    30    31   ar
    31    31    32   ar
    32    32    33    2
    33    32    34   ar
    34    34    35    1
    35    34    36   ar
    36    28    24   ar
    37    36    29   ar
    38     9     2    1
    39     8     4    1
    40    15    10   ar
@<TRIPOS>MOLECULE
*****
 36 40 0 0 0
SMALL
GASTEIGER

@<TRIPOS>ATOM
      1 C           6.4370   -1.8267   26.0538 C.3     1  UNL1        0.0731
      2 N           6.5005   -2.5927   27.3419 N.3     1  UNL1       -0.2712
      3 C           6.8081   -4.0538   27.4846 C.3     1  UNL1        0.0738
      4 C           6.7653   -4.3961   28.9443 C.3     1  UNL1        0.0372
      5 C           6.9289   -5.5108   29.9347 C.3     1  UNL1        0.0245
      6 C           6.6959   -4.9501   31.3064 C.3     1  UNL1        0.0909
      7 N           6.3884   -3.4888   31.1637 N.pl3   1  UNL1       -0.3077
      8 C           6.4312   -3.1465   29.7039 C.3     1  UNL1        0.0901
      9 C           6.2676   -2.0319   28.7135 C.3     1  UNL1        0.0921
     10 C           6.0903   -2.5371   32.2841 C.ar    1  UNL1        0.0478
     11 C           4.7474   -2.5617   32.9518 C.ar    1  UNL1        0.0145
     12 C           4.4493   -1.6100   34.0723 C.ar    1  UNL1        0.0051
     13 C           5.4941   -0.6336   34.5249 C.ar    1  UNL1        0.0715
     14 C           6.8371   -0.6089   33.8572 C.ar    1  UNL1        0.0051
     15 C           7.1352   -1.5607   32.7368 C.ar    1  UNL1        0.0145
     16 C           5.1960    0.3182   35.6453 C.3     1  UNL1        0.4186
     17 F           4.8980    1.2699   36.7657 F       1  UNL1       -0.1659
     18 F           5.9495    1.3987   34.9279 F       1  UNL1       -0.1659
     19 F           4.4426   -0.7624   36.3628 F       1  UNL1       -0.1659
     20 C           5.1100   -1.5417   25.4153 C.3     1  UNL1        0.0294
     21 C           3.8966   -1.3270   26.2707 C.3     1  UNL1        0.0666
     22 S           3.6642    0.0040   26.9221 S.3     1  UNL1       -0.0756
     23 C           3.8099    2.5096   29.0078 C.3     1  UNL1        0.1340
     24 N           3.0599    1.2281   29.2202 N.ar    1  UNL1       -0.2884
     25 C           2.9929    0.0764   28.2616 C.ar    1  UNL1        0.1932
     26 N           2.1368   -0.9903   28.8775 N.ar    1  UNL1       -0.1221
     27 N           1.6747   -0.4978   30.2169 N.ar    1  UNL1       -0.1282
     28 C           2.2452    0.8732   30.4287 C.ar    1  UNL1        0.1683
     29 C           2.0374    1.7376   31.6369 C.ar    1  UNL1        0.0534
     30 C           2.7965    1.4565   32.8998 C.ar    1  UNL1        0.0094
     31 C           2.5887    2.3209   34.1079 C.ar    1  UNL1        0.0609
     32 C           1.6218    3.4664   34.0532 C.ar    1  UNL1        0.2610
     33 O           1.4141    4.3308   35.2613 O.2     1  UNL1       -0.2670
     34 N           0.8628    3.7476   32.7903 N.ar    1  UNL1       -0.2921
     35 C          -0.1041    4.8931   32.7357 C.3     1  UNL1        0.1336
     36 C           1.0706    2.8831   31.5822 C.ar    1  UNL1        0.0814
@<TRIPOS>BOND
     1    23    24    1
     2    24    25   ar
     3    25    22    1
     4    22    21    1
     5    21    20    1
     6    20     1    1
     7     1     2    1
     8     2     3    1
     9     3     4    1
    10     4     5    1
    11     5     6    1
    12     6     7    1
    13     7    10    1
    14    10    11   ar
    15    11    12   ar
    16    12    13   ar
    17    13    16    1
    18    16    17    1
    19    16    18    1
    20    16    19    1
    21    13    14   ar
    22    14    15   ar
    23     7     8    1
    24     8     9    1
    25    25    26   ar
    26    26    27   ar
    27    27    28   ar
    28    28    29    1
    29    29    30   ar
    30    30    31   ar
    31    31    32   ar
    32    32    33    2
    33    32    34   ar
    34    34    35    1
    35    34    36   ar
    36    28    24   ar
    37    36    29   ar
    38     9     2    1
    39     8     4    1
    40    15    10   ar
@<TRIPOS>MOLECULE
*****
 36 40 0 0 0
SMALL
GASTEIGER

@<TRIPOS>ATOM
      1 C           6.8296   -4.1376   23.1711 C.3     1  UNL1        0.0731
      2 N           7.1486   -4.8788   24.4355 N.3     1  UNL1       -0.2712
      3 C           7.7673   -6.2422   24.5262 C.3     1  UNL1        0.0738
      4 C           7.9060   -6.5927   25.9781 C.3     1  UNL1        0.0372
      5 C           8.3741   -7.6519   26.9314 C.3     1  UNL1        0.0245
      6 C           8.1304   -7.1598   28.3273 C.3     1  UNL1        0.0909
      7 N           7.5116   -5.7963   28.2366 N.pl3   1  UNL1       -0.3077
      8 C           7.3729   -5.4458   26.7847 C.3     1  UNL1        0.0901
      9 C           6.9048   -4.3866   25.8314 C.3     1  UNL1        0.0921
     10 C           7.1032   -4.9346   29.3945 C.ar    1  UNL1        0.0478
     11 C           7.0556   -5.5112   30.7784 C.ar    1  UNL1        0.0145
     12 C           6.6472   -4.6496   31.9363 C.ar    1  UNL1        0.0051
     13 C           6.2864   -3.2113   31.7103 C.ar    1  UNL1        0.0715
     14 C           6.3340   -2.6346   30.3264 C.ar    1  UNL1        0.0051
     15 C           6.7424   -3.4963   29.1685 C.ar    1  UNL1        0.0145
     16 C           5.8780   -2.3496   32.8682 C.3     1  UNL1        0.4186
     17 F           5.4696   -1.4879   34.0261 F       1  UNL1       -0.1659
     18 F           4.8359   -3.3583   33.2513 F       1  UNL1       -0.1659
     19 F           6.9201   -1.3410   32.4852 F       1  UNL1       -0.1659
     20 C           7.8457   -4.0603   22.0704 C.3     1  UNL1        0.0294
     21 C           7.4040   -4.1024   20.6375 C.3     1  UNL1        0.0666
     22 S           7.4712   -2.8631   19.7952 S.3     1  UNL1       -0.0756
     23 C           5.1807   -1.1986   21.4177 C.3     1  UNL1        0.1340
     24 N           5.1643   -1.5220   19.9531 N.ar    1  UNL1       -0.2884
     25 C           6.2172   -2.2870   19.2073 C.ar    1  UNL1        0.1932
     26 N           5.7958   -2.3750   17.7704 N.ar    1  UNL1       -0.1221
     27 N           4.4826   -1.6642   17.6281 N.ar    1  UNL1       -0.1282
     28 C           4.0922   -1.1370   18.9771 C.ar    1  UNL1        0.1683
     29 C           2.8483   -0.3611   19.2943 C.ar    1  UNL1        0.0534
     30 C           1.7807   -0.9734   20.1518 C.ar    1  UNL1        0.0094
     31 C           0.5367   -0.1975   20.4690 C.ar    1  UNL1        0.0609
     32 C           0.3605    1.1907   19.9287 C.ar    1  UNL1        0.2610
     33 O          -0.8834    1.9666   20.2460 O.2     1  UNL1       -0.2670
     34 N           1.4282    1.8030   19.0713 N.ar    1  UNL1       -0.2921
     35 C           1.2519    3.1912   18.5311 C.3     1  UNL1        0.1336
     36 C           2.6721    1.0270   18.7541 C.ar    1  UNL1        0.0814
@<TRIPOS>BOND
     1    23    24    1
     2    24    25   ar
     3    25    22    1
     4    22    21    1
     5    21    20    1
     6    20     1    1
     7     1     2    1
     8     2     3    1
     9     3     4    1
    10     4     5    1
    11     5     6    1
    12     6     7    1
    13     7    10    1
    14    10    11   ar
    15    11    12   ar
    16    12    13   ar
    17    13    16    1
    18    16    17    1
    19    16    18    1
    20    16    19    1
    21    13    14   ar
    22    14    15   ar
    23     7     8    1
    24     8     9    1
    25    25    26   ar
    26    26    27   ar
    27    27    28   ar
    28    28    29    1
    29    29    30   ar
    30    30    31   ar
    31    31    32   ar
    32    32    33    2
    33    32    34   ar
    34    34    35    1
    35    34    36   ar
    36    28    24   ar
    37    36    29   ar
    38     9     2    1
    39     8     4    1
    40    15    10   ar
@<TRIPOS>MOLECULE
*****
 36 40 0 0 0
SMALL
GASTEIGER

@<TRIPOS>ATOM
      1 C          -0.6633    2.6610   25.5661 C.3     1  UNL1        0.0731
      2 N          -0.5852    2.7356   24.0700 N.3     1  UNL1       -0.2712
      3 C          -1.3333    3.6972   23.1950 C.3     1  UNL1        0.0738
      4 C          -0.9558    3.4175   21.7704 C.3     1  UNL1        0.0372
      5 C          -1.1848    3.8390   20.3492 C.3     1  UNL1        0.0245
      6 C          -0.3450    2.9651   19.4654 C.3     1  UNL1        0.0909
      7 N           0.4031    2.0034   20.3406 N.pl3   1  UNL1       -0.3077
      8 C           0.0256    2.2831   21.7651 C.3     1  UNL1        0.0901
      9 C           0.2546    1.8616   23.1863 C.3     1  UNL1        0.0921
     10 C           1.3605    0.9476   19.8732 C.ar    1  UNL1        0.0478
     11 C           1.3967   -0.3874   20.5561 C.ar    1  UNL1        0.0145
     12 C           2.3541   -1.4433   20.0887 C.ar    1  UNL1        0.0051
     13 C           3.2754   -1.1642   18.9383 C.ar    1  UNL1        0.0715
     14 C           3.2392    0.1709   18.2553 C.ar    1  UNL1        0.0051
     15 C           2.2818    1.2267   18.7227 C.ar    1  UNL1        0.0145
     16 C           4.2328   -2.2201   18.4709 C.3     1  UNL1        0.4186
     17 F           5.1902   -3.2759   18.0035 F       1  UNL1       -0.1659
     18 F           3.3978   -3.2725   19.1382 F       1  UNL1       -0.1659
     19 F           5.0677   -1.1676   17.8037 F       1  UNL1       -0.1659
     20 C          -0.2470    1.4077   26.2773 C.3     1  UNL1        0.0294
     21 C           0.7070    1.4823   27.4325 C.3     1  UNL1        0.0666
     22 S           2.1863    1.4876   27.1844 S.3     1  UNL1       -0.0756
     23 C           3.5302    0.7383   24.3065 C.3     1  UNL1        0.1340
     24 N           3.5126   -0.1354   25.5256 N.ar    1  UNL1       -0.2884
     25 C           2.8949    0.2089   26.8484 C.ar    1  UNL1        0.1932
     26 N           3.1103   -0.9498   27.7763 N.ar    1  UNL1       -0.1221
     27 N           3.8611   -2.0103   27.0270 N.ar    1  UNL1       -0.1282
     28 C           4.1098   -1.5071   25.6359 C.ar    1  UNL1        0.1683
     29 C           4.8293   -2.2458   24.5466 C.ar    1  UNL1        0.0534
     30 C           4.2284   -2.3310   23.1748 C.ar    1  UNL1        0.0094
     31 C           4.9479   -3.0697   22.0854 C.ar    1  UNL1        0.0609
     32 C           6.2683   -3.7231   22.3679 C.ar    1  UNL1        0.2610
     33 O           6.9877   -4.4618   21.2785 O.2     1  UNL1       -0.2670
     34 N           6.8691   -3.6379   23.7397 N.ar    1  UNL1       -0.2921
     35 C           8.1894   -4.2913   24.0220 C.3     1  UNL1        0.1336
     36 C           6.1496   -2.8992   24.8290 C.ar    1  UNL1        0.0814
@<TRIPOS>BOND
     1    23    24    1
     2    24    25   ar
     3    25    22    1
     4    22    21    1
     5    21    20    1
     6    20     1    1
     7     1     2    1
     8     2     3    1
     9     3     4    1
    10     4     5    1
    11     5     6    1
    12     6     7    1
    13     7    10    1
    14    10    11   ar
    15    11    12   ar
    16    12    13   ar
    17    13    16    1
    18    16    17    1
    19    16    18    1
    20    16    19    1
    21    13    14   ar
    22    14    15   ar
    23     7     8    1
    24     8     9    1
    25    25    26   ar
    26    26    27   ar
    27    27    28   ar
    28    28    29    1
    29    29    30   ar
    30    30    31   ar
    31    31    32   ar
    32    32    33    2
    33    32    34   ar
    34    34    35    1
    35    34    36   ar
    36    28    24   ar
    37    36    29   ar
    38     9     2    1
    39     8     4    1
    40    15    10   ar
@<TRIPOS>MOLECULE
*****
 36 40 0 0 0
SMALL
GASTEIGER

@<TRIPOS>ATOM
      1 C           6.3844   -2.2525   26.0710 C.3     1  UNL1        0.0731
      2 N           6.5139   -2.9606   27.3870 N.3     1  UNL1       -0.2712
      3 C           6.9519   -4.3816   27.5842 C.3     1  UNL1        0.0738
      4 C           6.9368   -4.6712   29.0559 C.3     1  UNL1        0.0372
      5 C           7.1982   -5.7285   30.0874 C.3     1  UNL1        0.0245
      6 C           6.9125   -5.1399   31.4372 C.3     1  UNL1        0.0909
      7 N           6.4745   -3.7189   31.2399 N.pl3   1  UNL1       -0.3077
      8 C           6.4896   -3.4292   29.7682 C.3     1  UNL1        0.0901
      9 C           6.2282   -2.3720   28.7368 C.3     1  UNL1        0.0921
     10 C           6.0892   -2.7564   32.3240 C.ar    1  UNL1        0.0478
     11 C           4.7132   -2.8085   32.9189 C.ar    1  UNL1        0.0145
     12 C           4.3278   -1.8461   34.0030 C.ar    1  UNL1        0.0051
     13 C           5.3185   -0.8316   34.4922 C.ar    1  UNL1        0.0715
     14 C           6.6946   -0.7795   33.8974 C.ar    1  UNL1        0.0051
     15 C           7.0799   -1.7419   32.8132 C.ar    1  UNL1        0.0145
     16 C           4.9331    0.1308   35.5763 C.3     1  UNL1        0.4186
     17 F           4.5478    1.0932   36.6604 F       1  UNL1       -0.1659
     18 F           5.8171   -0.6023   36.5413 F       1  UNL1       -0.1659
     19 F           4.0492    0.8638   34.6113 F       1  UNL1       -0.1659
     20 C           7.4139   -2.4643   25.0008 C.3     1  UNL1        0.0294
     21 C           7.1660   -3.4620   23.9084 C.3     1  UNL1        0.0666
     22 S           5.7672   -3.9118   23.6068 S.3     1  UNL1       -0.0756
     23 C           4.2102   -1.0658   23.2525 C.3     1  UNL1        0.1340
     24 N           4.3614   -2.1250   22.2012 N.ar    1  UNL1       -0.2884
     25 C           5.0771   -3.4331   22.3640 C.ar    1  UNL1        0.1932
     26 N           4.9815   -4.1786   21.0659 N.ar    1  UNL1       -0.1221
     27 N           4.2067   -3.3311   20.1007 N.ar    1  UNL1       -0.1282
     28 C           3.8234   -2.0619   20.8023 C.ar    1  UNL1        0.1683
     29 C           3.0398   -0.9287   20.2092 C.ar    1  UNL1        0.0534
     30 C           1.5406   -0.9496   20.2531 C.ar    1  UNL1        0.0094
     31 C           0.7570    0.1836   19.6600 C.ar    1  UNL1        0.0609
     32 C           1.4728    1.3378   19.0231 C.ar    1  UNL1        0.2610
     33 O           0.6892    2.4711   18.4300 O.2     1  UNL1       -0.2670
     34 N           2.9720    1.3588   18.9792 N.ar    1  UNL1       -0.2921
     35 C           3.6876    2.5130   18.3422 C.3     1  UNL1        0.1336
     36 C           3.7555    0.2255   19.5723 C.ar    1  UNL1        0.0814
@<TRIPOS>BOND
     1    23    24    1
     2    24    25   ar
     3    25    22    1
     4    22    21    1
     5    21    20    1
     6    20     1    1
     7     1     2    1
     8     2     3    1
     9     3     4    1
    10     4     5    1
    11     5     6    1
    12     6     7    1
    13     7    10    1
    14    10    11   ar
    15    11    12   ar
    16    12    13   ar
    17    13    16    1
    18    16    17    1
    19    16    18    1
    20    16    19    1
    21    13    14   ar
    22    14    15   ar
    23     7     8    1
    24     8     9    1
    25    25    26   ar
    26    26    27   ar
    27    27    28   ar
    28    28    29    1
    29    29    30   ar
    30    30    31   ar
    31    31    32   ar
    32    32    33    2
    33    32    34   ar
    34    34    35    1
    35    34    36   ar
    36    28    24   ar
    37    36    29   ar
    38     9     2    1
    39     8     4    1
    40    15    10   ar
