@<TRIPOS>MOLECULE
*****
 23 25 0 0 0
SMALL
GASTEIGER

@<TRIPOS>ATOM
      1 C          -2.4957  -20.0540   20.8682 C.3     1  UNL1        0.0896
      2 N          -3.9111  -19.6592   21.1694 N.3     1  UNL1       -0.2715
      3 C          -5.0488  -20.4178   20.5529 C.3     1  UNL1        0.0725
      4 C          -6.4642  -20.0229   20.8542 C.3     1  UNL1        0.0238
      5 C          -6.7419  -18.8695   21.7720 C.3     1  UNL1        0.0489
      6 C          -5.6043  -18.1109   22.3885 C.3     1  UNL1        0.0238
      7 C          -4.1889  -18.5058   22.0873 C.3     1  UNL1        0.0725
      8 C          -8.1454  -19.2767   21.4333 C.ar    1  UNL1       -0.0204
      9 C          -9.0789  -19.7247   22.5185 C.ar    1  UNL1       -0.0042
     10 C         -10.4823  -20.1318   22.1800 C.ar    1  UNL1       -0.0003
     11 C         -10.9521  -20.0909   20.7560 C.ar    1  UNL1       -0.0000
     12 C         -10.0187  -19.6429   19.6707 C.ar    1  UNL1       -0.0003
     13 C          -8.6152  -19.2357   20.0094 C.ar    1  UNL1       -0.0042
     14 C          -7.5071  -17.8574   22.5722 C.3     1  UNL1        0.1466
     15 O          -7.7312  -16.4802   22.0219 O.3     1  UNL1       -0.3486
     16 C          -8.9552  -15.7063   22.4129 C.3     1  UNL1        0.1702
     17 C         -10.3169  -16.2302   22.0645 C.ar    1  UNL1        0.0269
     18 C         -10.8013  -16.1749   20.6459 C.ar    1  UNL1        0.0970
     19 N         -12.1630  -16.6989   20.2975 N.ar    1  UNL1       -0.2421
     20 C         -13.0402  -17.2780   21.3676 C.ar    1  UNL1        0.1055
     21 C         -12.5557  -17.3333   22.7862 C.ar    1  UNL1        0.0535
     22 BR        -13.4329  -17.9124   23.8562 Br      1  UNL1       -0.0474
     23 C         -11.1941  -16.8094   23.1346 C.ar    1  UNL1        0.0080
@<TRIPOS>BOND
     1     1     2    1
     2     2     3    1
     3     3     4    1
     4     4     5    1
     5     5    14    1
     6    14    15    1
     7    15    16    1
     8    16    17    1
     9    17    18   ar
    10    18    19   ar
    11    19    20   ar
    12    20    21   ar
    13    21    22    1
    14    21    23   ar
    15     5     8    1
    16     8     9   ar
    17     9    10   ar
    18    10    11   ar
    19    11    12   ar
    20    12    13   ar
    21     5     6    1
    22     6     7    1
    23     7     2    1
    24    23    17   ar
    25    13     8   ar
@<TRIPOS>MOLECULE
*****
 23 25 0 0 0
SMALL
GASTEIGER

@<TRIPOS>ATOM
      1 C          -2.5552  -18.3562   20.6839 C.3     1  UNL1        0.0896
      2 N          -4.0067  -18.6195   20.9556 N.3     1  UNL1       -0.2715
      3 C          -4.6065  -18.2259   22.2729 C.3     1  UNL1        0.0725
      4 C          -6.0580  -18.4892   22.5446 C.3     1  UNL1        0.0238
      5 C          -6.9097  -19.1461   21.4991 C.3     1  UNL1        0.0489
      6 C          -6.3098  -19.5396   20.1818 C.3     1  UNL1        0.0238
      7 C          -4.8583  -19.2763   19.9101 C.3     1  UNL1        0.0725
      8 C          -7.9282  -18.9579   22.5841 C.ar    1  UNL1       -0.0204
      9 C          -8.6683  -20.1421   23.1316 C.ar    1  UNL1       -0.0042
     10 C          -9.6868  -19.9541   24.2166 C.ar    1  UNL1       -0.0003
     11 C          -9.9651  -18.5817   24.7542 C.ar    1  UNL1       -0.0000
     12 C          -9.2250  -17.3974   24.2068 C.ar    1  UNL1       -0.0003
     13 C          -8.2065  -17.5855   23.1217 C.ar    1  UNL1       -0.0042
     14 C          -8.1151  -19.7376   20.8303 C.3     1  UNL1        0.1466
     15 O          -8.8018  -18.9909   19.7254 O.3     1  UNL1       -0.3486
     16 C         -10.2972  -18.8741   19.7156 C.3     1  UNL1        0.1702
     17 C         -10.9822  -17.9326   20.6613 C.ar    1  UNL1        0.0269
     18 C         -10.6970  -16.4615   20.5929 C.ar    1  UNL1        0.0970
     19 N         -11.3820  -15.5201   21.5386 N.ar    1  UNL1       -0.2421
     20 C         -12.3520  -16.0496   22.5528 C.ar    1  UNL1        0.1055
     21 C         -12.6372  -17.5207   22.6213 C.ar    1  UNL1        0.0535
     22 BR        -13.6072  -18.0503   23.6354 Br      1  UNL1       -0.0474
     23 C         -11.9522  -18.4622   21.6755 C.ar    1  UNL1        0.0080
@<TRIPOS>BOND
     1     1     2    1
     2     2     3    1
     3     3     4    1
     4     4     5    1
     5     5    14    1
     6    14    15    1
     7    15    16    1
     8    16    17    1
     9    17    18   ar
    10    18    19   ar
    11    19    20   ar
    12    20    21   ar
    13    21    22    1
    14    21    23   ar
    15     5     8    1
    16     8     9   ar
    17     9    10   ar
    18    10    11   ar
    19    11    12   ar
    20    12    13   ar
    21     5     6    1
    22     6     7    1
    23     7     2    1
    24    23    17   ar
    25    13     8   ar
@<TRIPOS>MOLECULE
*****
 23 25 0 0 0
SMALL
GASTEIGER

@<TRIPOS>ATOM
      1 C          -5.6560  -15.0017   26.4622 C.3     1  UNL1        0.0896
      2 N          -6.6904  -15.4794   25.4866 N.3     1  UNL1       -0.2715
      3 C          -8.0337  -15.9303   25.9786 C.3     1  UNL1        0.0725
      4 C          -9.0681  -16.4081   25.0030 C.3     1  UNL1        0.0238
      5 C          -8.7592  -16.4349   23.5354 C.3     1  UNL1        0.0489
      6 C          -7.4159  -15.9840   23.0435 C.3     1  UNL1        0.0238
      7 C          -6.3815  -15.5063   24.0191 C.3     1  UNL1        0.0725
      8 C         -10.1648  -16.9583   23.5153 C.ar    1  UNL1       -0.0204
      9 C         -10.5270  -18.1665   24.3270 C.ar    1  UNL1       -0.0042
     10 C         -11.9325  -18.6899   24.3069 C.ar    1  UNL1       -0.0003
     11 C         -12.9760  -18.0049   23.4751 C.ar    1  UNL1       -0.0000
     12 C         -12.6139  -16.7966   22.6633 C.ar    1  UNL1       -0.0003
     13 C         -11.2083  -16.2733   22.6835 C.ar    1  UNL1       -0.0042
     14 C          -8.9384  -16.6435   22.0608 C.3     1  UNL1        0.1466
     15 O          -7.8625  -17.3183   21.2626 O.3     1  UNL1       -0.3486
     16 C          -7.4529  -18.7230   21.5929 C.3     1  UNL1        0.1702
     17 C          -6.0490  -19.1777   21.3238 C.ar    1  UNL1        0.0269
     18 C          -5.7941  -20.2857   20.3453 C.ar    1  UNL1        0.0970
     19 N          -4.3903  -20.7404   20.0762 N.ar    1  UNL1       -0.2421
     20 C          -3.2414  -20.0872   20.7856 C.ar    1  UNL1        0.1055
     21 C          -3.4962  -18.9793   21.7641 C.ar    1  UNL1        0.0535
     22 BR         -2.3473  -18.3261   22.4735 Br      1  UNL1       -0.0474
     23 C          -4.9001  -18.5245   22.0332 C.ar    1  UNL1        0.0080
@<TRIPOS>BOND
     1     1     2    1
     2     2     3    1
     3     3     4    1
     4     4     5    1
     5     5    14    1
     6    14    15    1
     7    15    16    1
     8    16    17    1
     9    17    18   ar
    10    18    19   ar
    11    19    20   ar
    12    20    21   ar
    13    21    22    1
    14    21    23   ar
    15     5     8    1
    16     8     9   ar
    17     9    10   ar
    18    10    11   ar
    19    11    12   ar
    20    12    13   ar
    21     5     6    1
    22     6     7    1
    23     7     2    1
    24    23    17   ar
    25    13     8   ar
@<TRIPOS>MOLECULE
*****
 23 25 0 0 0
SMALL
GASTEIGER

@<TRIPOS>ATOM
      1 C          -3.1702  -20.7730   19.9341 C.3     1  UNL1        0.0896
      2 N          -4.4534  -20.2095   20.4688 N.3     1  UNL1       -0.2715
      3 C          -5.7568  -20.8812   20.1527 C.3     1  UNL1        0.0725
      4 C          -7.0400  -20.3178   20.6874 C.3     1  UNL1        0.0238
      5 C          -7.0198  -19.0826   21.5382 C.3     1  UNL1        0.0489
      6 C          -5.7165  -18.4109   21.8543 C.3     1  UNL1        0.0238
      7 C          -4.4333  -18.9743   21.3196 C.3     1  UNL1        0.0725
      8 C          -8.4941  -19.3587   21.5147 C.ar    1  UNL1       -0.0204
      9 C          -9.2137  -19.6992   22.7859 C.ar    1  UNL1       -0.0042
     10 C         -10.6878  -19.9752   22.7625 C.ar    1  UNL1       -0.0003
     11 C         -11.4424  -19.9108   21.4677 C.ar    1  UNL1       -0.0000
     12 C         -10.7228  -19.5702   20.1964 C.ar    1  UNL1       -0.0003
     13 C          -9.2486  -19.2942   20.2199 C.ar    1  UNL1       -0.0042
     14 C          -7.5117  -17.9432   22.3808 C.3     1  UNL1        0.1466
     15 O          -7.9563  -16.6668   21.7305 O.3     1  UNL1       -0.3486
     16 C          -7.8534  -15.3695   22.4765 C.3     1  UNL1        0.1702
     17 C          -7.2411  -15.3382   23.8455 C.ar    1  UNL1        0.0269
     18 C          -5.7743  -15.0678   24.0051 C.ar    1  UNL1        0.0970
     19 N          -5.1621  -15.0365   25.3741 N.ar    1  UNL1       -0.2421
     20 C          -6.0166  -15.2755   26.5835 C.ar    1  UNL1        0.1055
     21 C          -7.4834  -15.5458   26.4239 C.ar    1  UNL1        0.0535
     22 BR         -8.3379  -15.7848   27.6333 Br      1  UNL1       -0.0474
     23 C          -8.0957  -15.5772   25.0549 C.ar    1  UNL1        0.0080
@<TRIPOS>BOND
     1     1     2    1
     2     2     3    1
     3     3     4    1
     4     4     5    1
     5     5    14    1
     6    14    15    1
     7    15    16    1
     8    16    17    1
     9    17    18   ar
    10    18    19   ar
    11    19    20   ar
    12    20    21   ar
    13    21    22    1
    14    21    23   ar
    15     5     8    1
    16     8     9   ar
    17     9    10   ar
    18    10    11   ar
    19    11    12   ar
    20    12    13   ar
    21     5     6    1
    22     6     7    1
    23     7     2    1
    24    23    17   ar
    25    13     8   ar
@<TRIPOS>MOLECULE
*****
 23 25 0 0 0
SMALL
GASTEIGER

@<TRIPOS>ATOM
      1 C          -1.5406  -19.1090   20.6828 C.3     1  UNL1        0.0896
      2 N          -2.8178  -18.6748   21.3387 N.3     1  UNL1       -0.2715
      3 C          -2.7943  -17.6099   22.3948 C.3     1  UNL1        0.0725
      4 C          -4.0715  -17.1757   23.0507 C.3     1  UNL1        0.0238
      5 C          -5.3722  -17.8064   22.6505 C.3     1  UNL1        0.0489
      6 C          -5.3958  -18.8713   21.5944 C.3     1  UNL1        0.0238
      7 C          -4.1186  -19.3055   20.9385 C.3     1  UNL1        0.0725
      8 C          -5.8592  -16.8444   23.6934 C.ar    1  UNL1       -0.0204
      9 C          -7.2614  -16.3156   23.6297 C.ar    1  UNL1       -0.0042
     10 C          -7.7484  -15.3537   24.6725 C.ar    1  UNL1       -0.0003
     11 C          -6.8330  -14.9207   25.7792 C.ar    1  UNL1       -0.0000
     12 C          -5.4308  -15.4495   25.8430 C.ar    1  UNL1       -0.0003
     13 C          -4.9439  -16.4114   24.8000 C.ar    1  UNL1       -0.0042
     14 C          -6.8422  -18.1031   22.6125 C.3     1  UNL1        0.1466
     15 O          -7.3181  -19.5124   22.4196 O.3     1  UNL1       -0.3486
     16 C          -8.6788  -19.9174   22.9039 C.3     1  UNL1        0.1702
     17 C          -9.9017  -19.2476   22.3509 C.ar    1  UNL1        0.0269
     18 C          -9.9867  -18.9319   20.8869 C.ar    1  UNL1        0.0970
     19 N         -11.2097  -18.2621   20.3340 N.ar    1  UNL1       -0.2421
     20 C         -12.3475  -17.9079   21.2450 C.ar    1  UNL1        0.1055
     21 C         -12.2625  -18.2236   22.7089 C.ar    1  UNL1        0.0535
     22 BR        -13.4003  -17.8695   23.6199 Br      1  UNL1       -0.0474
     23 C         -11.0396  -18.8935   23.2619 C.ar    1  UNL1        0.0080
@<TRIPOS>BOND
     1     1     2    1
     2     2     3    1
     3     3     4    1
     4     4     5    1
     5     5    14    1
     6    14    15    1
     7    15    16    1
     8    16    17    1
     9    17    18   ar
    10    18    19   ar
    11    19    20   ar
    12    20    21   ar
    13    21    22    1
    14    21    23   ar
    15     5     8    1
    16     8     9   ar
    17     9    10   ar
    18    10    11   ar
    19    11    12   ar
    20    12    13   ar
    21     5     6    1
    22     6     7    1
    23     7     2    1
    24    23    17   ar
    25    13     8   ar
@<TRIPOS>MOLECULE
*****
 23 25 0 0 0
SMALL
GASTEIGER

@<TRIPOS>ATOM
      1 C          -7.7459  -15.1608   26.6557 C.3     1  UNL1        0.0896
      2 N          -7.8850  -15.8735   25.3431 N.3     1  UNL1       -0.2715
      3 C          -9.2390  -16.0388   24.7192 C.3     1  UNL1        0.0725
      4 C          -9.3780  -16.7515   23.4067 C.3     1  UNL1        0.0238
      5 C          -8.1631  -17.2990   22.7181 C.3     1  UNL1        0.0489
      6 C          -6.8091  -17.1337   23.3420 C.3     1  UNL1        0.0238
      7 C          -6.6700  -16.4210   24.6546 C.3     1  UNL1        0.0725
      8 C          -9.2230  -17.7031   21.7366 C.ar    1  UNL1       -0.0204
      9 C         -10.2771  -16.7192   21.3235 C.ar    1  UNL1       -0.0042
     10 C         -11.3370  -17.1232   20.3421 C.ar    1  UNL1       -0.0003
     11 C         -11.3428  -18.5113   19.7737 C.ar    1  UNL1       -0.0000
     12 C         -10.2887  -19.4953   20.1867 C.ar    1  UNL1       -0.0003
     13 C          -9.2288  -19.0912   21.1682 C.ar    1  UNL1       -0.0042
     14 C          -7.3162  -17.9868   21.6886 C.3     1  UNL1        0.1466
     15 O          -6.2420  -18.9418   22.1176 O.3     1  UNL1       -0.3486
     16 C          -5.4302  -19.6695   21.0873 C.3     1  UNL1        0.1702
     17 C          -4.0161  -19.2506   20.8136 C.ar    1  UNL1        0.0269
     18 C          -2.9610  -19.4415   21.8626 C.ar    1  UNL1        0.0970
     19 N          -1.5470  -19.0226   21.5889 N.ar    1  UNL1       -0.2421
     20 C          -1.1880  -18.4129   20.2663 C.ar    1  UNL1        0.1055
     21 C          -2.2431  -18.2220   19.2173 C.ar    1  UNL1        0.0535
     22 BR         -1.8841  -17.6122   17.8947 Br      1  UNL1       -0.0474
     23 C          -3.6572  -18.6409   19.4910 C.ar    1  UNL1        0.0080
@<TRIPOS>BOND
     1     1     2    1
     2     2     3    1
     3     3     4    1
     4     4     5    1
     5     5    14    1
     6    14    15    1
     7    15    16    1
     8    16    17    1
     9    17    18   ar
    10    18    19   ar
    11    19    20   ar
    12    20    21   ar
    13    21    22    1
    14    21    23   ar
    15     5     8    1
    16     8     9   ar
    17     9    10   ar
    18    10    11   ar
    19    11    12   ar
    20    12    13   ar
    21     5     6    1
    22     6     7    1
    23     7     2    1
    24    23    17   ar
    25    13     8   ar
@<TRIPOS>MOLECULE
*****
 23 25 0 0 0
SMALL
GASTEIGER

@<TRIPOS>ATOM
      1 C          -1.9371  -19.6157   21.5121 C.3     1  UNL1        0.0896
      2 N          -3.3679  -19.2249   21.7356 N.3     1  UNL1       -0.2715
      3 C          -3.7069  -18.1596   22.7357 C.3     1  UNL1        0.0725
      4 C          -5.1378  -17.7688   22.9592 C.3     1  UNL1        0.0238
      5 C          -6.2296  -18.4432   22.1826 C.3     1  UNL1        0.0489
      6 C          -5.8905  -19.5085   21.1826 C.3     1  UNL1        0.0238
      7 C          -4.4597  -19.8993   20.9591 C.3     1  UNL1        0.0725
      8 C          -7.0463  -17.4981   23.0132 C.ar    1  UNL1       -0.0204
      9 C          -6.4398  -16.2188   23.5085 C.ar    1  UNL1       -0.0042
     10 C          -7.2564  -15.2737   24.3390 C.ar    1  UNL1       -0.0003
     11 C          -8.6797  -15.6081   24.6743 C.ar    1  UNL1       -0.0000
     12 C          -9.2864  -16.8874   24.1791 C.ar    1  UNL1       -0.0003
     13 C          -8.4696  -17.8325   23.3485 C.ar    1  UNL1       -0.0042
     14 C          -7.6050  -18.7895   21.6945 C.3     1  UNL1        0.1466
     15 O          -7.7753  -19.5883   20.4364 O.3     1  UNL1       -0.3486
     16 C          -9.1486  -19.8391   19.8873 C.3     1  UNL1        0.1702
     17 C         -10.3159  -19.0461   20.3957 C.ar    1  UNL1        0.0269
     18 C         -11.0963  -19.5352   21.5796 C.ar    1  UNL1        0.0970
     19 N         -12.2636  -18.7421   22.0879 N.ar    1  UNL1       -0.2421
     20 C         -12.6505  -17.4600   21.4123 C.ar    1  UNL1        0.1055
     21 C         -11.8701  -16.9709   20.2284 C.ar    1  UNL1        0.0535
     22 BR        -12.2570  -15.6887   19.5528 Br      1  UNL1       -0.0474
     23 C         -10.7028  -17.7639   19.7200 C.ar    1  UNL1        0.0080
@<TRIPOS>BOND
     1     1     2    1
     2     2     3    1
     3     3     4    1
     4     4     5    1
     5     5    14    1
     6    14    15    1
     7    15    16    1
     8    16    17    1
     9    17    18   ar
    10    18    19   ar
    11    19    20   ar
    12    20    21   ar
    13    21    22    1
    14    21    23   ar
    15     5     8    1
    16     8     9   ar
    17     9    10   ar
    18    10    11   ar
    19    11    12   ar
    20    12    13   ar
    21     5     6    1
    22     6     7    1
    23     7     2    1
    24    23    17   ar
    25    13     8   ar
@<TRIPOS>MOLECULE
*****
 23 25 0 0 0
SMALL
GASTEIGER

@<TRIPOS>ATOM
      1 C         -10.0480  -19.6629   19.9313 C.3     1  UNL1        0.0896
      2 N          -8.6578  -19.4078   20.4335 N.3     1  UNL1       -0.2715
      3 C          -7.4790  -19.6699   19.5438 C.3     1  UNL1        0.0725
      4 C          -6.0888  -19.4148   20.0460 C.3     1  UNL1        0.0238
      5 C          -5.8773  -18.8976   21.4380 C.3     1  UNL1        0.0489
      6 C          -7.0561  -18.6355   22.3278 C.3     1  UNL1        0.0238
      7 C          -8.4463  -18.8906   21.8255 C.3     1  UNL1        0.0725
      8 C          -4.4533  -18.9914   20.9759 C.ar    1  UNL1       -0.0204
      9 C          -4.0694  -18.4772   19.6202 C.ar    1  UNL1       -0.0042
     10 C          -2.6454  -18.5710   19.1580 C.ar    1  UNL1       -0.0003
     11 C          -1.6055  -19.1790   20.0517 C.ar    1  UNL1       -0.0000
     12 C          -1.9894  -19.6933   21.4075 C.ar    1  UNL1       -0.0003
     13 C          -3.4134  -19.5995   21.8696 C.ar    1  UNL1       -0.0042
     14 C          -5.1714  -18.4129   22.6696 C.3     1  UNL1        0.1466
     15 O          -4.4677  -17.0883   22.6584 O.3     1  UNL1       -0.3486
     16 C          -4.7017  -16.1054   23.7671 C.3     1  UNL1        0.1702
     17 C          -6.0979  -15.8239   24.2376 C.ar    1  UNL1        0.0269
     18 C          -7.1718  -15.4930   23.2440 C.ar    1  UNL1        0.0970
     19 N          -8.5680  -15.2116   23.7146 N.ar    1  UNL1       -0.2421
     20 C          -8.8903  -15.2610   25.1787 C.ar    1  UNL1        0.1055
     21 C          -7.8164  -15.5919   26.1723 C.ar    1  UNL1        0.0535
     22 BR         -8.1387  -15.6413   27.6364 Br      1  UNL1       -0.0474
     23 C          -6.4202  -15.8734   25.7018 C.ar    1  UNL1        0.0080
@<TRIPOS>BOND
     1     1     2    1
     2     2     3    1
     3     3     4    1
     4     4     5    1
     5     5    14    1
     6    14    15    1
     7    15    16    1
     8    16    17    1
     9    17    18   ar
    10    18    19   ar
    11    19    20   ar
    12    20    21   ar
    13    21    22    1
    14    21    23   ar
    15     5     8    1
    16     8     9   ar
    17     9    10   ar
    18    10    11   ar
    19    11    12   ar
    20    12    13   ar
    21     5     6    1
    22     6     7    1
    23     7     2    1
    24    23    17   ar
    25    13     8   ar
@<TRIPOS>MOLECULE
*****
 23 25 0 0 0
SMALL
GASTEIGER

@<TRIPOS>ATOM
      1 C          -0.8268    2.5009   20.2268 C.3     1  UNL1        0.0896
      2 N           0.2578    1.4948   19.9791 N.3     1  UNL1       -0.2715
      3 C           0.6508    0.5337   21.0615 C.3     1  UNL1        0.0725
      4 C           1.7354   -0.4724   20.8137 C.3     1  UNL1        0.0238
      5 C           2.4271   -0.5173   19.4835 C.3     1  UNL1        0.0489
      6 C           2.0341    0.4439   18.4011 C.3     1  UNL1        0.0238
      7 C           0.9495    1.4499   18.6488 C.3     1  UNL1        0.0725
      8 C           3.1472   -1.6280   20.1891 C.ar    1  UNL1       -0.0204
      9 C           3.4561   -2.9028   19.4615 C.ar    1  UNL1       -0.0042
     10 C           4.1761   -4.0135   20.1670 C.ar    1  UNL1       -0.0003
     11 C           4.5872   -3.8494   21.6002 C.ar    1  UNL1       -0.0000
     12 C           4.2783   -2.5747   22.3279 C.ar    1  UNL1       -0.0003
     13 C           3.5582   -1.4639   21.6223 C.ar    1  UNL1       -0.0042
     14 C           3.3689   -0.9479   18.3983 C.3     1  UNL1        0.1466
     15 O           4.1300    0.0797   17.6144 O.3     1  UNL1       -0.3486
     16 C           5.6298    0.0538   17.6015 C.3     1  UNL1        0.1702
     17 C           6.3764   -0.6798   18.6759 C.ar    1  UNL1        0.0269
     18 C           6.9474   -2.0389   18.3983 C.ar    1  UNL1        0.0970
     19 N           7.6940   -2.7724   19.4728 N.ar    1  UNL1       -0.2421
     20 C           7.8697   -2.1469   20.8248 C.ar    1  UNL1        0.1055
     21 C           7.2988   -0.7878   21.1024 C.ar    1  UNL1        0.0535
     22 BR          7.4745   -0.1624   22.4543 Br      1  UNL1       -0.0474
     23 C           6.5521   -0.0543   20.0279 C.ar    1  UNL1        0.0080
@<TRIPOS>BOND
     1     1     2    1
     2     2     3    1
     3     3     4    1
     4     4     5    1
     5     5    14    1
     6    14    15    1
     7    15    16    1
     8    16    17    1
     9    17    18   ar
    10    18    19   ar
    11    19    20   ar
    12    20    21   ar
    13    21    22    1
    14    21    23   ar
    15     5     8    1
    16     8     9   ar
    17     9    10   ar
    18    10    11   ar
    19    11    12   ar
    20    12    13   ar
    21     5     6    1
    22     6     7    1
    23     7     2    1
    24    23    17   ar
    25    13     8   ar
