@<TRIPOS>MOLECULE
*****
 15 16 0 0 0
SMALL
GASTEIGER

@<TRIPOS>ATOM
      1 C         -11.4846  -17.2512   22.9589 C.ar    1  UNL1        0.1388
      2 C         -11.2709  -18.4927   23.7733 C.ar    1  UNL1        0.0375
      3 C         -10.0697  -18.2743   24.6447 C.ar    1  UNL1        0.0404
      4 C          -9.5410  -16.8979   24.3689 C.ar    1  UNL1        0.1464
      5 O         -10.4155  -16.2656   23.3270 O.2     1  UNL1       -0.4563
      6 C          -8.3473  -16.2649   25.0206 C.ar    1  UNL1        0.0537
      7 C          -8.2420  -16.2261   26.5163 C.ar    1  UNL1        0.0062
      8 C          -7.0484  -15.5932   27.1680 C.ar    1  UNL1        0.0208
      9 C          -5.9601  -14.9990   26.3238 C.ar    1  UNL1        0.0989
     10 N          -6.0655  -15.0377   24.8280 N.ar    1  UNL1       -0.2422
     11 C          -7.2591  -15.6706   24.1764 C.ar    1  UNL1        0.1019
     12 C         -12.5759  -17.0336   21.9530 C.3     1  UNL1        0.1342
     13 C         -11.0949  -17.8329   19.9737 C.3     1  UNL1        0.0862
     14 N         -12.2561  -17.0344   20.4875 N.3     1  UNL1       -0.2900
     15 H         -13.0864  -17.3783   20.0052 H       1  UNL1        0.1237
@<TRIPOS>BOND
     1    13    14    1
     2    14    12    1
     3    12     1    1
     4     1     2   ar
     5     2     3   ar
     6     3     4   ar
     7     4     6    1
     8     6     7   ar
     9     7     8   ar
    10     8     9   ar
    11     9    10   ar
    12    10    11   ar
    13     4     5   ar
    14     5     1   ar
    15    11     6   ar
    16    14    15    1
@<TRIPOS>MOLECULE
*****
 15 16 0 0 0
SMALL
GASTEIGER

@<TRIPOS>ATOM
      1 C          -4.0830  -19.1450   19.7944 C.ar    1  UNL1        0.1388
      2 C          -4.2568  -20.6232   19.9806 C.ar    1  UNL1        0.0375
      3 C          -5.7086  -20.8892   20.2480 C.ar    1  UNL1        0.0404
      4 C          -6.4320  -19.5753   20.2271 C.ar    1  UNL1        0.1464
      5 O          -5.4273  -18.4974   19.9467 O.2     1  UNL1       -0.4563
      6 C          -7.9021  -19.3746   20.4478 C.ar    1  UNL1        0.0537
      7 C          -8.8699  -19.6290   19.3304 C.ar    1  UNL1        0.0062
      8 C         -10.3399  -19.4284   19.5512 C.ar    1  UNL1        0.0208
      9 C         -10.8421  -18.9733   20.8893 C.ar    1  UNL1        0.0989
     10 N          -9.8744  -18.7190   22.0067 N.ar    1  UNL1       -0.2422
     11 C          -8.4044  -18.9196   21.7860 C.ar    1  UNL1        0.1019
     12 C          -2.7915  -18.4384   19.5064 C.3     1  UNL1        0.1342
     13 C          -2.0698  -16.8576   21.4377 C.3     1  UNL1        0.0862
     14 N          -2.5605  -17.0534   20.0338 N.3     1  UNL1       -0.2900
     15 H          -1.8755  -16.6145   19.4186 H       1  UNL1        0.1237
@<TRIPOS>BOND
     1    13    14    1
     2    14    12    1
     3    12     1    1
     4     1     2   ar
     5     2     3   ar
     6     3     4   ar
     7     4     6    1
     8     6     7   ar
     9     7     8   ar
    10     8     9   ar
    11     9    10   ar
    12    10    11   ar
    13     4     5   ar
    14     5     1   ar
    15    11     6   ar
    16    14    15    1
@<TRIPOS>MOLECULE
*****
 15 16 0 0 0
SMALL
GASTEIGER

@<TRIPOS>ATOM
      1 C          -9.0836  -17.4929   21.9635 C.ar    1  UNL1        0.1388
      2 C          -9.3375  -18.8602   22.5259 C.ar    1  UNL1        0.0375
      3 C          -8.0605  -19.6420   22.4379 C.ar    1  UNL1        0.0404
      4 C          -7.0173  -18.7581   21.8211 C.ar    1  UNL1        0.1464
      5 O          -7.6497  -17.4299   21.5279 O.2     1  UNL1       -0.4563
      6 C          -5.5920  -19.1360   21.5458 C.ar    1  UNL1        0.0537
      7 C          -5.2610  -20.0101   20.3727 C.ar    1  UNL1        0.0062
      8 C          -3.8358  -20.3880   20.0974 C.ar    1  UNL1        0.0208
      9 C          -2.7415  -19.8918   20.9953 C.ar    1  UNL1        0.0989
     10 N          -3.0724  -19.0176   22.1685 N.ar    1  UNL1       -0.2422
     11 C          -4.4977  -18.6397   22.4437 C.ar    1  UNL1        0.1019
     12 C         -10.0875  -16.3836   21.8556 C.3     1  UNL1        0.1342
     13 C         -11.5369  -16.0165   19.7309 C.3     1  UNL1        0.0862
     14 N         -10.3129  -15.7015   20.5388 N.3     1  UNL1       -0.2900
     15 H         -10.3337  -14.6991   20.7262 H       1  UNL1        0.1237
@<TRIPOS>BOND
     1    13    14    1
     2    14    12    1
     3    12     1    1
     4     1     2   ar
     5     2     3   ar
     6     3     4   ar
     7     4     6    1
     8     6     7   ar
     9     7     8   ar
    10     8     9   ar
    11     9    10   ar
    12    10    11   ar
    13     4     5   ar
    14     5     1   ar
    15    11     6   ar
    16    14    15    1
@<TRIPOS>MOLECULE
*****
 15 16 0 0 0
SMALL
GASTEIGER

@<TRIPOS>ATOM
      1 C          -6.6113  -15.6901   24.1356 C.ar    1  UNL1        0.1388
      2 C          -7.4368  -15.4535   25.3655 C.ar    1  UNL1        0.0375
      3 C          -8.8597  -15.8015   25.0426 C.ar    1  UNL1        0.0404
      4 C          -8.9135  -16.2532   23.6132 C.ar    1  UNL1        0.1464
      5 O          -7.5239  -16.1844   23.0527 O.2     1  UNL1       -0.4563
      6 C         -10.1415  -16.6961   22.8742 C.ar    1  UNL1        0.0537
      7 C         -11.1197  -17.6230   23.5328 C.ar    1  UNL1        0.0062
      8 C         -12.3476  -18.0658   22.7937 C.ar    1  UNL1        0.0208
      9 C         -12.5972  -17.5817   21.3961 C.ar    1  UNL1        0.0989
     10 N         -11.6190  -16.6548   20.7375 N.ar    1  UNL1       -0.2422
     11 C         -10.3911  -16.2120   21.4766 C.ar    1  UNL1        0.1019
     12 C          -5.1326  -15.4709   24.0106 C.3     1  UNL1        0.1342
     13 C          -3.9577  -17.7169   23.4403 C.3     1  UNL1        0.0862
     14 N          -4.3269  -16.3122   23.0655 N.3     1  UNL1       -0.2900
     15 H          -4.8578  -16.3692   22.1964 H       1  UNL1        0.1237
@<TRIPOS>BOND
     1    13    14    1
     2    14    12    1
     3    12     1    1
     4     1     2   ar
     5     2     3   ar
     6     3     4   ar
     7     4     6    1
     8     6     7   ar
     9     7     8   ar
    10     8     9   ar
    11     9    10   ar
    12    10    11   ar
    13     4     5   ar
    14     5     1   ar
    15    11     6   ar
    16    14    15    1
@<TRIPOS>MOLECULE
*****
 15 16 0 0 0
SMALL
GASTEIGER

@<TRIPOS>ATOM
      1 C          -8.7602  -17.8453   21.9482 C.ar    1  UNL1        0.1388
      2 C          -8.8351  -19.2571   22.4495 C.ar    1  UNL1        0.0375
      3 C          -7.4908  -19.8918   22.2499 C.ar    1  UNL1        0.0404
      4 C          -6.5850  -18.8723   21.6252 C.ar    1  UNL1        0.1464
      5 O          -7.3696  -17.6075   21.4388 O.2     1  UNL1       -0.4563
      6 C          -5.1471  -19.0810   21.2524 C.ar    1  UNL1        0.0537
      7 C          -4.1196  -19.3038   22.3223 C.ar    1  UNL1        0.0062
      8 C          -2.6818  -19.5124   21.9495 C.ar    1  UNL1        0.0208
      9 C          -2.2714  -19.4983   20.5068 C.ar    1  UNL1        0.0989
     10 N          -3.2988  -19.2755   19.4369 N.ar    1  UNL1       -0.2422
     11 C          -4.7367  -19.0668   19.8097 C.ar    1  UNL1        0.1019
     12 C          -9.8795  -16.8467   21.9551 C.3     1  UNL1        0.1342
     13 C          -9.2380  -16.0613   24.3471 C.3     1  UNL1        0.0862
     14 N         -10.2248  -16.1160   23.2188 N.3     1  UNL1       -0.2900
     15 H         -10.4250  -15.1511   22.9556 H       1  UNL1        0.1237
@<TRIPOS>BOND
     1    13    14    1
     2    14    12    1
     3    12     1    1
     4     1     2   ar
     5     2     3   ar
     6     3     4   ar
     7     4     6    1
     8     6     7   ar
     9     7     8   ar
    10     8     9   ar
    11     9    10   ar
    12    10    11   ar
    13     4     5   ar
    14     5     1   ar
    15    11     6   ar
    16    14    15    1
@<TRIPOS>MOLECULE
*****
 15 16 0 0 0
SMALL
GASTEIGER

@<TRIPOS>ATOM
      1 C          -8.5933  -16.1338   26.1532 C.ar    1  UNL1        0.1388
      2 C          -9.0128  -17.5586   26.3631 C.ar    1  UNL1        0.0375
      3 C          -9.7105  -18.0243   25.1196 C.ar    1  UNL1        0.0404
      4 C          -9.7223  -16.8874   24.1412 C.ar    1  UNL1        0.1464
      5 O          -9.0319  -15.7190   24.7800 O.2     1  UNL1       -0.4563
      6 C         -10.3197  -16.9142   22.7655 C.ar    1  UNL1        0.0537
      7 C         -11.6952  -16.3623   22.5343 C.ar    1  UNL1        0.0062
      8 C         -12.2925  -16.3892   21.1586 C.ar    1  UNL1        0.0208
      9 C         -11.5144  -16.9679   20.0142 C.ar    1  UNL1        0.0989
     10 N         -10.1389  -17.5197   20.2455 N.ar    1  UNL1       -0.2422
     11 C          -9.5416  -17.4929   21.6211 C.ar    1  UNL1        0.1019
     12 C          -7.8635  -15.2746   27.1427 C.3     1  UNL1        0.1342
     13 C          -5.6569  -15.5201   25.7933 C.3     1  UNL1        0.0862
     14 N          -6.4576  -14.8345   26.8606 N.3     1  UNL1       -0.2900
     15 H          -6.5034  -13.8478   26.6062 H       1  UNL1        0.1237
@<TRIPOS>BOND
     1    13    14    1
     2    14    12    1
     3    12     1    1
     4     1     2   ar
     5     2     3   ar
     6     3     4   ar
     7     4     6    1
     8     6     7   ar
     9     7     8   ar
    10     8     9   ar
    11     9    10   ar
    12    10    11   ar
    13     4     5   ar
    14     5     1   ar
    15    11     6   ar
    16    14    15    1
@<TRIPOS>MOLECULE
*****
 15 16 0 0 0
SMALL
GASTEIGER

@<TRIPOS>ATOM
      1 C         -10.2655  -18.8323   20.6346 C.ar    1  UNL1        0.1388
      2 C          -9.9507  -19.4973   19.3274 C.ar    1  UNL1        0.0375
      3 C          -8.4773  -19.7762   19.2923 C.ar    1  UNL1        0.0404
      4 C          -7.8814  -19.2835   20.5777 C.ar    1  UNL1        0.1464
      5 O          -8.9866  -18.7002   21.4073 O.2     1  UNL1       -0.4563
      6 C          -6.4344  -19.3607   20.9655 C.ar    1  UNL1        0.0537
      7 C          -5.4646  -20.1080   20.0989 C.ar    1  UNL1        0.0062
      8 C          -4.0177  -20.1851   20.4866 C.ar    1  UNL1        0.0208
      9 C          -3.5406  -19.5150   21.7410 C.ar    1  UNL1        0.0989
     10 N          -4.5104  -18.7678   22.6076 N.ar    1  UNL1       -0.2422
     11 C          -5.9573  -18.6906   22.2198 C.ar    1  UNL1        0.1019
     12 C         -11.6211  -18.3790   21.0893 C.3     1  UNL1        0.1342
     13 C         -11.4455  -16.0934   19.8664 C.3     1  UNL1        0.0862
     14 N         -12.2810  -17.2061   20.4267 N.3     1  UNL1       -0.2900
     15 H         -12.8338  -17.5771   19.6540 H       1  UNL1        0.1237
@<TRIPOS>BOND
     1    13    14    1
     2    14    12    1
     3    12     1    1
     4     1     2   ar
     5     2     3   ar
     6     3     4   ar
     7     4     6    1
     8     6     7   ar
     9     7     8   ar
    10     8     9   ar
    11     9    10   ar
    12    10    11   ar
    13     4     5   ar
    14     5     1   ar
    15    11     6   ar
    16    14    15    1
@<TRIPOS>MOLECULE
*****
 15 16 0 0 0
SMALL
GASTEIGER

@<TRIPOS>ATOM
      1 C          -3.3189  -18.7754   20.3106 C.ar    1  UNL1        0.1388
      2 C          -2.9002  -19.3571   21.6283 C.ar    1  UNL1        0.0375
      3 C          -4.1084  -19.4119   22.5156 C.ar    1  UNL1        0.0404
      4 C          -5.2738  -18.8641   21.7462 C.ar    1  UNL1        0.1464
      5 O          -4.7858  -18.4708   20.3834 O.2     1  UNL1       -0.4563
      6 C          -6.6802  -18.7328   22.2510 C.ar    1  UNL1        0.0537
      7 C          -7.5691  -19.9392   22.3170 C.ar    1  UNL1        0.0062
      8 C          -8.9755  -19.8078   22.8218 C.ar    1  UNL1        0.0208
      9 C          -9.4929  -18.4700   23.2606 C.ar    1  UNL1        0.0989
     10 N          -8.6040  -17.2636   23.1946 N.ar    1  UNL1       -0.2422
     11 C          -7.1977  -17.3950   22.6898 C.ar    1  UNL1        0.1019
     12 C          -2.4272  -18.5398   19.1276 C.3     1  UNL1        0.1342
     13 C          -0.0734  -17.7631   19.9063 C.3     1  UNL1        0.0862
     14 N          -1.3617  -17.4859   19.1897 N.3     1  UNL1       -0.2900
     15 H          -1.1190  -17.2554   18.2262 H       1  UNL1        0.1237
@<TRIPOS>BOND
     1    13    14    1
     2    14    12    1
     3    12     1    1
     4     1     2   ar
     5     2     3   ar
     6     3     4   ar
     7     4     6    1
     8     6     7   ar
     9     7     8   ar
    10     8     9   ar
    11     9    10   ar
    12    10    11   ar
    13     4     5   ar
    14     5     1   ar
    15    11     6   ar
    16    14    15    1
@<TRIPOS>MOLECULE
*****
 15 16 0 0 0
SMALL
GASTEIGER

@<TRIPOS>ATOM
      1 C          -4.8496  -18.2727   22.6014 C.ar    1  UNL1        0.1388
      2 C          -4.8641  -19.7168   22.1959 C.ar    1  UNL1        0.0375
      3 C          -6.2401  -20.0442   21.6967 C.ar    1  UNL1        0.0404
      4 C          -7.0761  -18.8026   21.7937 C.ar    1  UNL1        0.1464
      5 O          -6.2168  -17.7077   22.3529 O.2     1  UNL1       -0.4563
      6 C          -8.5184  -18.6778   21.4006 C.ar    1  UNL1        0.0537
      7 C          -9.0062  -19.3062   20.1290 C.ar    1  UNL1        0.0062
      8 C         -10.4484  -19.1814   19.7360 C.ar    1  UNL1        0.0208
      9 C         -11.4027  -18.4281   20.6145 C.ar    1  UNL1        0.0989
     10 N         -10.9148  -17.7996   21.8861 N.ar    1  UNL1       -0.2422
     11 C          -9.4727  -17.9245   22.2792 C.ar    1  UNL1        0.1019
     12 C          -3.6744  -17.5249   23.1579 C.3     1  UNL1        0.1342
     13 C          -1.9954  -16.3543   21.5576 C.3     1  UNL1        0.0862
     14 N          -3.1819  -16.2847   22.4728 N.3     1  UNL1       -0.2900
     15 H          -3.9598  -15.9253   21.9195 H       1  UNL1        0.1237
@<TRIPOS>BOND
     1    13    14    1
     2    14    12    1
     3    12     1    1
     4     1     2   ar
     5     2     3   ar
     6     3     4   ar
     7     4     6    1
     8     6     7   ar
     9     7     8   ar
    10     8     9   ar
    11     9    10   ar
    12    10    11   ar
    13     4     5   ar
    14     5     1   ar
    15    11     6   ar
    16    14    15    1
