@<TRIPOS>MOLECULE
*****
 32 34 0 0 0
SMALL
GASTEIGER

@<TRIPOS>ATOM
      1 C          -9.7750  -19.3019   21.2177 C.ar    1  UNL1        0.0291
      2 C          -8.3778  -18.7570   21.2438 C.ar    1  UNL1        0.0145
      3 C          -7.4650  -18.9768   20.0740 C.ar    1  UNL1        0.0505
      4 C          -7.9495  -19.7415   18.8779 C.ar    1  UNL1        0.0170
      5 C          -9.3468  -20.2864   18.8518 C.ar    1  UNL1        0.0306
      6 C         -10.2596  -20.0666   20.0217 C.ar    1  UNL1        0.1380
      7 F         -11.6568  -20.6115   19.9955 F       1  UNL1       -0.2044
      8 C         -12.8119  -16.0465   20.9652 C.3     1  UNL1        0.0150
      9 C         -12.3138  -17.1180   21.8892 C.3     1  UNL1        0.0893
     10 S         -12.9435  -17.2969   23.2388 S.3     1  UNL1       -0.0788
     11 C         -12.4453  -18.3683   24.1628 C.2     1  UNL1        0.1483
     12 N         -13.0750  -18.5472   25.5124 N.pl3   1  UNL1       -0.3380
     13 N         -11.3175  -19.2610   23.7372 N.2     1  UNL1       -0.2481
     14 C         -10.6878  -19.0821   22.3876 C.3     1  UNL1        0.1380
     15 C          -9.8726  -20.2299   22.9052 C.3     1  UNL1        0.0319
     16 C         -11.1860  -18.0106   21.4636 C.3     1  UNL1        0.1954
     17 F         -10.5562  -17.8318   20.1139 F       1  UNL1       -0.2340
     18 H         -13.8153  -17.9613   25.7918 H       1  UNL1        0.1442
     19 H         -12.7481  -19.2504   26.1189 H       1  UNL1        0.1442
     20 N          -6.0678  -18.4319   20.1002 N.am    1  UNL1       -0.2791
     21 C          -4.8971  -19.3696   20.1103 C.2     1  UNL1        0.2688
     22 O          -5.1237  -20.8524   20.0943 O.2     1  UNL1       -0.2681
     23 H          -5.9190  -17.4587   20.1107 H       1  UNL1        0.1552
     24 C          -3.4998  -18.8248   20.1365 C.ar    1  UNL1        0.1541
     25 C          -2.4958  -19.3814   21.1021 C.ar    1  UNL1        0.1258
     26 N          -1.0985  -18.8366   21.1283 N.ar    1  UNL1       -0.2070
     27 C          -0.7051  -17.7352   20.1890 C.ar    1  UNL1        0.2469
     28 C          -1.7091  -17.1787   19.2234 C.ar    1  UNL1        0.1566
     29 N          -3.1064  -17.7234   19.1972 N.ar    1  UNL1       -0.2328
     30 O           0.6923  -17.1904   20.2152 O.3     1  UNL1       -0.4265
     31 C           1.7921  -17.9777   20.8636 C.3     1  UNL1        0.4044
     32 F           3.0881  -17.3083   21.2132 F       1  UNL1       -0.1809
@<TRIPOS>BOND
     1     9     8    1
     2     9    10    1
     3    10    11    1
     4    11    12    1
     5    11    13    2
     6    13    14    1
     7    14    15    1
     8    14     1    1
     9     1     2   ar
    10     2     3   ar
    11     3    20    1
    12    20    21   am
    13    21    22    2
    14    21    24    1
    15    24    25   ar
    16    25    26   ar
    17    26    27   ar
    18    27    30    1
    19    30    31    1
    20    31    32    1
    21    27    28   ar
    22    28    29   ar
    23     3     4   ar
    24     4     5   ar
    25     5     6   ar
    26     6     7    1
    27    14    16    1
    28    16    17    1
    29    16     9    1
    30     6     1   ar
    31    29    24   ar
    32    12    18    1
    33    12    19    1
    34    20    23    1
@<TRIPOS>MOLECULE
*****
 32 34 0 0 0
SMALL
GASTEIGER

@<TRIPOS>ATOM
      1 C           3.4521    0.3842   18.4717 C.ar    1  UNL1        0.0291
      2 C           2.0200    0.8303   18.4798 C.ar    1  UNL1        0.0145
      3 C           1.6901    2.2935   18.4653 C.ar    1  UNL1        0.0505
      4 C           2.7924    3.3107   18.4427 C.ar    1  UNL1        0.0170
      5 C           4.2244    2.8646   18.4347 C.ar    1  UNL1        0.0306
      6 C           4.5544    1.4014   18.4492 C.ar    1  UNL1        0.1380
      7 F           5.9865    0.9554   18.4411 F       1  UNL1       -0.2044
      8 C           3.8488   -1.6689   22.4102 C.3     1  UNL1        0.0150
      9 C           3.9330   -1.9315   20.9358 C.3     1  UNL1        0.0893
     10 S           4.2524   -3.3094   20.4365 S.3     1  UNL1       -0.0788
     11 C           4.3366   -3.5721   18.9620 C.2     1  UNL1        0.1483
     12 N           4.6560   -4.9501   18.4628 N.pl3   1  UNL1       -0.3380
     13 N           4.1014   -2.4569   17.9869 N.2     1  UNL1       -0.2481
     14 C           3.7821   -1.0790   18.4862 C.3     1  UNL1        0.1380
     15 C           3.7517   -0.8334   17.0068 C.3     1  UNL1        0.0319
     16 C           3.6979   -0.8163   19.9606 C.3     1  UNL1        0.1954
     17 F           3.3785    0.5617   20.4599 F       1  UNL1       -0.2340
     18 H           4.8104   -5.6821   19.1028 H       1  UNL1        0.1442
     19 H           4.7113   -5.1225   17.4951 H       1  UNL1        0.1442
     20 N           0.2580    2.7395   18.4733 N.am    1  UNL1       -0.2791
     21 C          -0.4208    3.0588   19.7723 C.2     1  UNL1        0.2688
     22 O           0.3325    2.9320   21.0632 O.2     1  UNL1       -0.2681
     23 H          -0.2364    2.8227   17.6260 H       1  UNL1        0.1552
     24 C          -1.8529    3.5048   19.7804 C.ar    1  UNL1        0.1541
     25 C          -2.3080    4.5828   18.8418 C.ar    1  UNL1        0.1258
     26 N          -3.7401    5.0289   18.8499 N.ar    1  UNL1       -0.2070
     27 C          -4.7171    4.3970   19.7965 C.ar    1  UNL1        0.2469
     28 C          -4.2620    3.3190   20.7351 C.ar    1  UNL1        0.1566
     29 N          -2.8300    2.8729   20.7270 N.ar    1  UNL1       -0.2328
     30 O          -6.1493    4.8431   19.8046 O.3     1  UNL1       -0.4265
     31 C          -7.1314    4.2290   18.8516 C.3     1  UNL1        0.4044
     32 F          -7.0865    2.7555   18.5742 F       1  UNL1       -0.1809
@<TRIPOS>BOND
     1     9     8    1
     2     9    10    1
     3    10    11    1
     4    11    12    1
     5    11    13    2
     6    13    14    1
     7    14    15    1
     8    14     1    1
     9     1     2   ar
    10     2     3   ar
    11     3    20    1
    12    20    21   am
    13    21    22    2
    14    21    24    1
    15    24    25   ar
    16    25    26   ar
    17    26    27   ar
    18    27    30    1
    19    30    31    1
    20    31    32    1
    21    27    28   ar
    22    28    29   ar
    23     3     4   ar
    24     4     5   ar
    25     5     6   ar
    26     6     7    1
    27    14    16    1
    28    16    17    1
    29    16     9    1
    30     6     1   ar
    31    29    24   ar
    32    12    18    1
    33    12    19    1
    34    20    23    1
@<TRIPOS>MOLECULE
*****
 32 34 0 0 0
SMALL
GASTEIGER

@<TRIPOS>ATOM
      1 C           3.4110   -0.4444   19.7386 C.ar    1  UNL1        0.0291
      2 C           2.5046   -0.0789   20.8766 C.ar    1  UNL1        0.0145
      3 C           1.1958    0.6014   20.6043 C.ar    1  UNL1        0.0505
      4 C           0.7934    0.9164   19.1940 C.ar    1  UNL1        0.0170
      5 C           1.6997    0.5509   18.0561 C.ar    1  UNL1        0.0306
      6 C           3.0085   -0.1295   18.3283 C.ar    1  UNL1        0.1380
      7 F           3.9148   -0.4949   17.1904 F       1  UNL1       -0.2044
      8 C           3.5540   -4.9002   19.6402 C.3     1  UNL1        0.0150
      9 C           4.4273   -3.7025   19.8702 C.3     1  UNL1        0.0893
     10 S           5.8815   -3.8849   20.1894 S.3     1  UNL1       -0.0788
     11 C           6.7549   -2.6872   20.4194 C.2     1  UNL1        0.1483
     12 N           8.2091   -2.8697   20.7387 N.pl3   1  UNL1       -0.3380
     13 N           6.1740   -1.3072   20.3301 N.2     1  UNL1       -0.2481
     14 C           4.7198   -1.1248   20.0109 C.3     1  UNL1        0.1380
     15 C           5.1385    0.3092   20.1463 C.3     1  UNL1        0.0319
     16 C           3.8465   -2.3225   19.7809 C.3     1  UNL1        0.1954
     17 F           2.3922   -2.1400   19.4616 F       1  UNL1       -0.2340
     18 H           8.5904   -3.7755   20.7973 H       1  UNL1        0.1442
     19 H           8.7824   -2.0836   20.8896 H       1  UNL1        0.1442
     20 N           0.2895    0.9669   21.7423 N.am    1  UNL1       -0.2791
     21 C           0.3704    2.3329   22.3566 C.2     1  UNL1        0.2688
     22 O           1.3577    3.3335   21.8329 O.2     1  UNL1       -0.2681
     23 H          -0.3584    0.3101   22.0860 H       1  UNL1        0.1552
     24 C          -0.5358    2.6984   23.4946 C.ar    1  UNL1        0.1541
     25 C          -1.7071    3.6055   23.2590 C.ar    1  UNL1        0.1258
     26 N          -2.6134    3.9711   24.3969 N.ar    1  UNL1       -0.2070
     27 C          -2.3485    3.4296   25.7705 C.ar    1  UNL1        0.2469
     28 C          -1.1773    2.5225   26.0061 C.ar    1  UNL1        0.1566
     29 N          -0.2710    2.1569   24.8681 N.ar    1  UNL1       -0.2328
     30 O          -3.2549    3.7952   26.9085 O.3     1  UNL1       -0.4265
     31 C          -4.5417    4.5176   26.6401 C.3     1  UNL1        0.4044
     32 F          -5.5520    3.9266   25.7018 F       1  UNL1       -0.1809
@<TRIPOS>BOND
     1     9     8    1
     2     9    10    1
     3    10    11    1
     4    11    12    1
     5    11    13    2
     6    13    14    1
     7    14    15    1
     8    14     1    1
     9     1     2   ar
    10     2     3   ar
    11     3    20    1
    12    20    21   am
    13    21    22    2
    14    21    24    1
    15    24    25   ar
    16    25    26   ar
    17    26    27   ar
    18    27    30    1
    19    30    31    1
    20    31    32    1
    21    27    28   ar
    22    28    29   ar
    23     3     4   ar
    24     4     5   ar
    25     5     6   ar
    26     6     7    1
    27    14    16    1
    28    16    17    1
    29    16     9    1
    30     6     1   ar
    31    29    24   ar
    32    12    18    1
    33    12    19    1
    34    20    23    1
@<TRIPOS>MOLECULE
*****
 32 34 0 0 0
SMALL
GASTEIGER

@<TRIPOS>ATOM
      1 C           3.0375   -0.1155   20.5414 C.ar    1  UNL1        0.0291
      2 C           1.6049    0.2188   20.8340 C.ar    1  UNL1        0.0145
      3 C           0.8562    1.1604   19.9379 C.ar    1  UNL1        0.0505
      4 C           1.5403    1.7676   18.7490 C.ar    1  UNL1        0.0170
      5 C           2.9729    1.4332   18.4564 C.ar    1  UNL1        0.0306
      6 C           3.7216    0.4917   19.3525 C.ar    1  UNL1        0.1380
      7 F           5.1542    0.1574   19.0598 F       1  UNL1       -0.2044
      8 C           3.4921   -4.3627   19.2613 C.3     1  UNL1        0.0150
      9 C           3.8511   -3.4287   20.3787 C.3     1  UNL1        0.0893
     10 S           4.6341   -3.9323   21.5548 S.3     1  UNL1       -0.0788
     11 C           4.9932   -2.9982   22.6722 C.2     1  UNL1        0.1483
     12 N           5.7763   -3.5019   23.8484 N.pl3   1  UNL1       -0.3380
     13 N           4.5692   -1.5606   22.6136 N.2     1  UNL1       -0.2481
     14 C           3.7862   -1.0571   21.4375 C.3     1  UNL1        0.1380
     15 C           3.8852    0.2040   22.2437 C.3     1  UNL1        0.0319
     16 C           3.4271   -1.9911   20.3201 C.3     1  UNL1        0.1954
     17 F           2.6440   -1.4875   19.1439 F       1  UNL1       -0.2340
     18 H           6.0545   -4.4455   23.8869 H       1  UNL1        0.1442
     19 H           6.0119   -2.8889   24.5818 H       1  UNL1        0.1442
     20 N          -0.5764    1.4947   20.2307 N.am    1  UNL1       -0.2791
     21 C          -0.9541    2.8897   20.6323 C.2     1  UNL1        0.2688
     22 O           0.1010    3.9504   20.7411 O.2     1  UNL1       -0.2681
     23 H          -1.2688    0.7985   20.1592 H       1  UNL1        0.1552
     24 C          -2.3867    3.2241   20.9250 C.ar    1  UNL1        0.1541
     25 C          -3.3259    3.5482   19.8012 C.ar    1  UNL1        0.1258
     26 N          -4.7585    3.8826   20.0939 N.ar    1  UNL1       -0.2070
     27 C          -5.2520    3.8929   21.5103 C.ar    1  UNL1        0.2469
     28 C          -4.3128    3.5688   22.6341 C.ar    1  UNL1        0.1566
     29 N          -2.8802    3.2344   22.3415 N.ar    1  UNL1       -0.2328
     30 O          -6.6847    4.2274   21.8031 O.3     1  UNL1       -0.4265
     31 C          -7.1436    4.3826   23.2226 C.3     1  UNL1        0.4044
     32 F          -8.5274    3.9564   23.6144 F       1  UNL1       -0.1809
@<TRIPOS>BOND
     1     9     8    1
     2     9    10    1
     3    10    11    1
     4    11    12    1
     5    11    13    2
     6    13    14    1
     7    14    15    1
     8    14     1    1
     9     1     2   ar
    10     2     3   ar
    11     3    20    1
    12    20    21   am
    13    21    22    2
    14    21    24    1
    15    24    25   ar
    16    25    26   ar
    17    26    27   ar
    18    27    30    1
    19    30    31    1
    20    31    32    1
    21    27    28   ar
    22    28    29   ar
    23     3     4   ar
    24     4     5   ar
    25     5     6   ar
    26     6     7    1
    27    14    16    1
    28    16    17    1
    29    16     9    1
    30     6     1   ar
    31    29    24   ar
    32    12    18    1
    33    12    19    1
    34    20    23    1
@<TRIPOS>MOLECULE
*****
 32 34 0 0 0
SMALL
GASTEIGER

@<TRIPOS>ATOM
      1 C           4.7286   -0.7825   19.1963 C.ar    1  UNL1        0.0291
      2 C           5.3986   -1.2002   20.4717 C.ar    1  UNL1        0.0145
      3 C           5.9722   -2.5802   20.6006 C.ar    1  UNL1        0.0505
      4 C           5.8758   -3.5426   19.4540 C.ar    1  UNL1        0.0170
      5 C           5.2059   -3.1248   18.1786 C.ar    1  UNL1        0.0306
      6 C           4.6323   -1.7448   18.0497 C.ar    1  UNL1        0.1380
      7 F           3.9623   -1.3272   16.7743 F       1  UNL1       -0.2044
      8 C           0.4846   -0.1216   20.3943 C.3     1  UNL1        0.0150
      9 C           1.6781    0.6069   19.8514 C.3     1  UNL1        0.0893
     10 S           1.5882    2.0734   19.5496 S.3     1  UNL1       -0.0788
     11 C           2.7817    2.8020   19.0067 C.2     1  UNL1        0.1483
     12 N           2.6917    4.2686   18.7048 N.pl3   1  UNL1       -0.3380
     13 N           4.0651    2.0640   18.7656 N.2     1  UNL1       -0.2481
     14 C           4.1550    0.5975   19.0675 C.3     1  UNL1        0.1380
     15 C           5.5478    0.8467   18.5693 C.3     1  UNL1        0.0319
     16 C           2.9615   -0.1311   19.6104 C.3     1  UNL1        0.1954
     17 F           3.0515   -1.5977   19.9122 F       1  UNL1       -0.2340
     18 H           1.8493    4.7530   18.8630 H       1  UNL1        0.1442
     19 H           3.4750    4.7468   18.3485 H       1  UNL1        0.1442
     20 N           6.6421   -2.9979   21.8760 N.am    1  UNL1       -0.2791
     21 C           5.8202   -3.5050   23.0237 C.2     1  UNL1        0.2688
     22 O           4.3283   -3.5944   22.8960 O.2     1  UNL1       -0.2681
     23 H           7.6213   -2.9392   21.9598 H       1  UNL1        0.1552
     24 C           6.4900   -3.9226   24.2992 C.ar    1  UNL1        0.1541
     25 C           7.4542   -5.0717   24.2985 C.ar    1  UNL1        0.1258
     26 N           8.1241   -5.4895   25.5739 N.ar    1  UNL1       -0.2070
     27 C           7.8298   -4.7582   26.8500 C.ar    1  UNL1        0.2469
     28 C           6.8656   -3.6091   26.8507 C.ar    1  UNL1        0.1566
     29 N           6.1957   -3.1914   25.5754 N.ar    1  UNL1       -0.2328
     30 O           8.4997   -5.1759   28.1256 O.3     1  UNL1       -0.4265
     31 C           7.8196   -6.1439   29.0476 C.3     1  UNL1        0.4044
     32 F           6.5089   -5.7819   29.6810 F       1  UNL1       -0.1809
@<TRIPOS>BOND
     1     9     8    1
     2     9    10    1
     3    10    11    1
     4    11    12    1
     5    11    13    2
     6    13    14    1
     7    14    15    1
     8    14     1    1
     9     1     2   ar
    10     2     3   ar
    11     3    20    1
    12    20    21   am
    13    21    22    2
    14    21    24    1
    15    24    25   ar
    16    25    26   ar
    17    26    27   ar
    18    27    30    1
    19    30    31    1
    20    31    32    1
    21    27    28   ar
    22    28    29   ar
    23     3     4   ar
    24     4     5   ar
    25     5     6   ar
    26     6     7    1
    27    14    16    1
    28    16    17    1
    29    16     9    1
    30     6     1   ar
    31    29    24   ar
    32    12    18    1
    33    12    19    1
    34    20    23    1
@<TRIPOS>MOLECULE
*****
 32 34 0 0 0
SMALL
GASTEIGER

@<TRIPOS>ATOM
      1 C           3.0700    0.0045   20.2472 C.ar    1  UNL1        0.0291
      2 C           2.6482   -0.0257   21.6863 C.ar    1  UNL1        0.0145
      3 C           1.3354    0.5732   22.0960 C.ar    1  UNL1        0.0505
      4 C           0.4443    1.2024   21.0664 C.ar    1  UNL1        0.0170
      5 C           0.8661    1.2327   19.6272 C.ar    1  UNL1        0.0306
      6 C           2.1789    0.6338   19.2176 C.ar    1  UNL1        0.1380
      7 F           2.6006    0.6641   17.7785 F       1  UNL1       -0.2044
      8 C           3.1837   -4.3103   19.1278 C.3     1  UNL1        0.0150
      9 C           4.0710   -3.1080   19.2596 C.3     1  UNL1        0.0893
     10 S           5.5335   -3.2172   18.9451 S.3     1  UNL1       -0.0788
     11 C           6.4208   -2.0149   19.0769 C.2     1  UNL1        0.1483
     12 N           7.8834   -2.1241   18.7624 N.pl3   1  UNL1       -0.3380
     13 N           5.8454   -0.7035   19.5231 N.2     1  UNL1       -0.2481
     14 C           4.3829   -0.5944   19.8376 C.3     1  UNL1        0.1380
     15 C           4.8141    0.8159   20.1116 C.3     1  UNL1        0.0319
     16 C           3.4956   -1.7966   19.7058 C.3     1  UNL1        0.1954
     17 F           2.0330   -1.6875   20.0203 F       1  UNL1       -0.2340
     18 H           8.2610   -2.9848   18.4695 H       1  UNL1        0.1442
     19 H           8.4658   -1.3350   18.8489 H       1  UNL1        0.1442
     20 N           0.9137    0.5428   23.5351 N.am    1  UNL1       -0.2791
     21 C           1.5793    1.4458   24.5309 C.2     1  UNL1        0.2688
     22 O           2.6666    2.3792   24.0874 O.2     1  UNL1       -0.2681
     23 H           0.2001   -0.0697   23.8261 H       1  UNL1        0.1552
     24 C           1.1576    1.4156   25.9700 C.ar    1  UNL1        0.1541
     25 C          -0.2993    1.3664   26.3238 C.ar    1  UNL1        0.1258
     26 N          -0.7210    1.3362   27.7629 N.ar    1  UNL1       -0.2070
     27 C           0.3141    1.3551   28.8484 C.ar    1  UNL1        0.2469
     28 C           1.7710    1.4042   28.4946 C.ar    1  UNL1        0.1566
     29 N           2.1927    1.4345   27.0555 N.ar    1  UNL1       -0.2328
     30 O          -0.1076    1.3248   30.2876 O.3     1  UNL1       -0.4265
     31 C           0.6903    2.0667   31.3186 C.3     1  UNL1        0.4044
     32 F           1.8589    1.4018   31.9838 F       1  UNL1       -0.1809
@<TRIPOS>BOND
     1     9     8    1
     2     9    10    1
     3    10    11    1
     4    11    12    1
     5    11    13    2
     6    13    14    1
     7    14    15    1
     8    14     1    1
     9     1     2   ar
    10     2     3   ar
    11     3    20    1
    12    20    21   am
    13    21    22    2
    14    21    24    1
    15    24    25   ar
    16    25    26   ar
    17    26    27   ar
    18    27    30    1
    19    30    31    1
    20    31    32    1
    21    27    28   ar
    22    28    29   ar
    23     3     4   ar
    24     4     5   ar
    25     5     6   ar
    26     6     7    1
    27    14    16    1
    28    16    17    1
    29    16     9    1
    30     6     1   ar
    31    29    24   ar
    32    12    18    1
    33    12    19    1
    34    20    23    1
@<TRIPOS>MOLECULE
*****
 32 34 0 0 0
SMALL
GASTEIGER

@<TRIPOS>ATOM
      1 C          -2.4007    3.7949   20.6233 C.ar    1  UNL1        0.0291
      2 C          -1.4837    2.6253   20.4201 C.ar    1  UNL1        0.0145
      3 C          -0.0941    2.6548   20.9840 C.ar    1  UNL1        0.0505
      4 C           0.3786    3.8539   21.7513 C.ar    1  UNL1        0.0170
      5 C          -0.5383    5.0234   21.9546 C.ar    1  UNL1        0.0306
      6 C          -1.9280    4.9940   21.3907 C.ar    1  UNL1        0.1380
      7 F          -2.8448    6.1635   21.5940 F       1  UNL1       -0.2044
      8 C          -3.0286    5.1972   16.4373 C.3     1  UNL1        0.0150
      9 C          -3.7764    4.6477   17.6158 C.3     1  UNL1        0.0893
     10 S          -5.2581    4.4310   17.5291 S.3     1  UNL1       -0.0788
     11 C          -6.0059    3.8814   18.7076 C.2     1  UNL1        0.1483
     12 N          -7.4877    3.6647   18.6209 N.pl3   1  UNL1       -0.3380
     13 N          -5.2720    3.5487   19.9727 N.2     1  UNL1       -0.2481
     14 C          -3.7903    3.7654   20.0594 C.3     1  UNL1        0.1380
     15 C          -4.0554    3.2261   21.4337 C.3     1  UNL1        0.0319
     16 C          -3.0425    4.3149   18.8809 C.3     1  UNL1        0.1954
     17 F          -1.5607    4.5317   18.9676 F       1  UNL1       -0.2340
     18 H          -7.9693    3.8831   17.7905 H       1  UNL1        0.1442
     19 H          -7.9785    3.3040   19.3943 H       1  UNL1        0.1442
     20 N           0.8227    1.4852   20.7807 N.am    1  UNL1       -0.2791
     21 C           1.4406    1.2415   19.4358 C.2     1  UNL1        0.2688
     22 O           1.1416    2.1675   18.2942 O.2     1  UNL1       -0.2681
     23 H           1.0190    0.8775   21.5300 H       1  UNL1        0.1552
     24 C           2.3575    0.0720   19.2323 C.ar    1  UNL1        0.1541
     25 C           3.0180   -0.1408   17.9024 C.ar    1  UNL1        0.1258
     26 N           3.9349   -1.3103   17.6989 N.ar    1  UNL1       -0.2070
     27 C           4.1914   -2.2671   18.8253 C.ar    1  UNL1        0.2469
     28 C           3.5309   -2.0544   20.1552 C.ar    1  UNL1        0.1566
     29 N           2.6140   -0.8849   20.3587 N.ar    1  UNL1       -0.2328
     30 O           5.1083   -3.4367   18.6218 O.3     1  UNL1       -0.4265
     31 C           4.5950   -4.8336   18.8095 C.3     1  UNL1        0.4044
     32 F           3.1355   -5.0684   19.0642 F       1  UNL1       -0.1809
@<TRIPOS>BOND
     1     9     8    1
     2     9    10    1
     3    10    11    1
     4    11    12    1
     5    11    13    2
     6    13    14    1
     7    14    15    1
     8    14     1    1
     9     1     2   ar
    10     2     3   ar
    11     3    20    1
    12    20    21   am
    13    21    22    2
    14    21    24    1
    15    24    25   ar
    16    25    26   ar
    17    26    27   ar
    18    27    30    1
    19    30    31    1
    20    31    32    1
    21    27    28   ar
    22    28    29   ar
    23     3     4   ar
    24     4     5   ar
    25     5     6   ar
    26     6     7    1
    27    14    16    1
    28    16    17    1
    29    16     9    1
    30     6     1   ar
    31    29    24   ar
    32    12    18    1
    33    12    19    1
    34    20    23    1
@<TRIPOS>MOLECULE
*****
 32 34 0 0 0
SMALL
GASTEIGER

@<TRIPOS>ATOM
      1 C         -14.6650   -1.8581   18.5748 C.ar    1  UNL1        0.0291
      2 C         -15.3344   -1.2406   19.7667 C.ar    1  UNL1        0.0145
      3 C         -16.7025   -0.6407   19.6315 C.ar    1  UNL1        0.0505
      4 C         -17.4014   -0.6584   18.3043 C.ar    1  UNL1        0.0170
      5 C         -16.7320   -1.2759   17.1125 C.ar    1  UNL1        0.0306
      6 C         -15.3639   -1.8758   17.2477 C.ar    1  UNL1        0.1380
      7 F         -14.6946   -2.4934   16.0558 F       1  UNL1       -0.2044
      8 C         -14.3303   -6.2100   19.4875 C.3     1  UNL1        0.0150
      9 C         -13.4872   -4.9945   19.2392 C.3     1  UNL1        0.0893
     10 S         -11.9913   -5.0999   19.2719 S.3     1  UNL1       -0.0788
     11 C         -11.1481   -3.8843   19.0236 C.2     1  UNL1        0.1483
     12 N          -9.6522   -3.9898   19.0563 N.pl3   1  UNL1       -0.3380
     13 N         -11.8009   -2.5634   18.7427 N.2     1  UNL1       -0.2481
     14 C         -13.2968   -2.4580   18.7100 C.3     1  UNL1        0.1380
     15 C         -12.9290   -1.0341   18.4148 C.3     1  UNL1        0.0319
     16 C         -14.1400   -3.6736   18.9583 C.3     1  UNL1        0.1954
     17 F         -15.6359   -3.5681   18.9256 F       1  UNL1       -0.2340
     18 H          -9.2237   -4.8568   19.2407 H       1  UNL1        0.1442
     19 H          -9.0988   -3.1920   18.8933 H       1  UNL1        0.1442
     20 N         -17.3718   -0.0231   20.8234 N.am    1  UNL1       -0.2791
     21 C         -17.3518    1.4654   21.0072 C.2     1  UNL1        0.2688
     22 O         -16.6625    2.3364   19.9991 O.2     1  UNL1       -0.2681
     23 H         -17.8241   -0.5948   21.4850 H       1  UNL1        0.1552
     24 C         -18.0211    2.0831   22.1991 C.ar    1  UNL1        0.1541
     25 C         -17.3813    3.2446   22.9002 C.ar    1  UNL1        0.1258
     26 N         -18.0504    3.8623   24.0921 N.ar    1  UNL1       -0.2070
     27 C         -19.3594    3.3185   24.5829 C.ar    1  UNL1        0.2469
     28 C         -19.9992    2.1569   23.8817 C.ar    1  UNL1        0.1566
     29 N         -19.3300    1.5393   22.6899 N.ar    1  UNL1       -0.2328
     30 O         -20.0287    3.9362   25.7749 O.3     1  UNL1       -0.4265
     31 C         -19.5330    5.2428   26.3198 C.3     1  UNL1        0.4044
     32 F         -18.2159    5.3058   27.0350 F       1  UNL1       -0.1809
@<TRIPOS>BOND
     1     9     8    1
     2     9    10    1
     3    10    11    1
     4    11    12    1
     5    11    13    2
     6    13    14    1
     7    14    15    1
     8    14     1    1
     9     1     2   ar
    10     2     3   ar
    11     3    20    1
    12    20    21   am
    13    21    22    2
    14    21    24    1
    15    24    25   ar
    16    25    26   ar
    17    26    27   ar
    18    27    30    1
    19    30    31    1
    20    31    32    1
    21    27    28   ar
    22    28    29   ar
    23     3     4   ar
    24     4     5   ar
    25     5     6   ar
    26     6     7    1
    27    14    16    1
    28    16    17    1
    29    16     9    1
    30     6     1   ar
    31    29    24   ar
    32    12    18    1
    33    12    19    1
    34    20    23    1
@<TRIPOS>MOLECULE
*****
 32 34 0 0 0
SMALL
GASTEIGER

@<TRIPOS>ATOM
      1 C          -2.3452    4.1836   20.5054 C.ar    1  UNL1        0.0291
      2 C          -1.5914    2.9500   20.1056 C.ar    1  UNL1        0.0145
      3 C          -0.2447    3.0712   19.4563 C.ar    1  UNL1        0.0505
      4 C           0.3483    4.4263   19.2068 C.ar    1  UNL1        0.0170
      5 C          -0.4055    5.6600   19.6066 C.ar    1  UNL1        0.0306
      6 C          -1.7522    5.5387   20.2559 C.ar    1  UNL1        0.1380
      7 F          -2.5059    6.7724   20.6557 F       1  UNL1       -0.2044
      8 C          -2.5346    3.6397   24.9272 C.3     1  UNL1        0.0150
      9 C          -3.4174    3.7588   23.7203 C.3     1  UNL1        0.0893
     10 S          -4.9082    3.6935   23.8721 S.3     1  UNL1       -0.0788
     11 C          -5.7909    3.8126   22.6652 C.2     1  UNL1        0.1483
     12 N          -7.2818    3.7473   22.8170 N.pl3   1  UNL1       -0.3380
     13 N          -5.1828    3.9970   21.3065 N.2     1  UNL1       -0.2481
     14 C          -3.6920    4.0623   21.1547 C.3     1  UNL1        0.1380
     15 C          -4.1069    4.2236   19.7222 C.3     1  UNL1        0.0319
     16 C          -2.8092    3.9432   22.3616 C.3     1  UNL1        0.1954
     17 F          -1.3183    4.0085   22.2097 F       1  UNL1       -0.2340
     18 H          -7.6810    3.6263   23.7088 H       1  UNL1        0.1442
     19 H          -7.8612    3.8255   22.0249 H       1  UNL1        0.1442
     20 N           0.5090    1.8376   19.0566 N.am    1  UNL1       -0.2791
     21 C           1.6897    1.3854   19.8637 C.2     1  UNL1        0.2688
     22 O           2.1167    2.1671   21.0708 O.2     1  UNL1       -0.2681
     23 H           0.2288    1.3246   18.2644 H       1  UNL1        0.1552
     24 C           2.4435    0.1518   19.4640 C.ar    1  UNL1        0.1541
     25 C           2.4276   -1.0574   20.3517 C.ar    1  UNL1        0.1258
     26 N           3.1814   -2.2911   19.9521 N.ar    1  UNL1       -0.2070
     27 C           3.9510   -2.3158   18.6648 C.ar    1  UNL1        0.2469
     28 C           3.9669   -1.1066   17.7772 C.ar    1  UNL1        0.1566
     29 N           3.2132    0.1271   18.1768 N.ar    1  UNL1       -0.2328
     30 O           4.7049   -3.5496   18.2651 O.3     1  UNL1       -0.4265
     31 C           4.5249   -4.8219   19.0389 C.3     1  UNL1        0.4044
     32 F           4.9568   -6.1292   18.4435 F       1  UNL1       -0.1809
@<TRIPOS>BOND
     1     9     8    1
     2     9    10    1
     3    10    11    1
     4    11    12    1
     5    11    13    2
     6    13    14    1
     7    14    15    1
     8    14     1    1
     9     1     2   ar
    10     2     3   ar
    11     3    20    1
    12    20    21   am
    13    21    22    2
    14    21    24    1
    15    24    25   ar
    16    25    26   ar
    17    26    27   ar
    18    27    30    1
    19    30    31    1
    20    31    32    1
    21    27    28   ar
    22    28    29   ar
    23     3     4   ar
    24     4     5   ar
    25     5     6   ar
    26     6     7    1
    27    14    16    1
    28    16    17    1
    29    16     9    1
    30     6     1   ar
    31    29    24   ar
    32    12    18    1
    33    12    19    1
    34    20    23    1
