@<TRIPOS>MOLECULE
*****
 21 23 0 0 0
SMALL
GASTEIGER

@<TRIPOS>ATOM
      1 C          -8.3915  -17.6685   21.9824 C.ar    1  UNL1        0.0266
      2 C          -9.2550  -16.7020   22.7375 C.ar    1  UNL1        0.0994
      3 N          -8.6578  -15.8465   23.8151 N.ar    1  UNL1       -0.2423
      4 C          -7.1971  -15.9574   24.1376 C.ar    1  UNL1        0.0985
      5 C          -6.3339  -15.2498   25.1399 C.ar    1  UNL1        0.0392
      6 C          -4.9370  -15.7791   25.0041 C.ar    1  UNL1        0.0779
      7 N          -4.9368  -16.8137   23.9180 N.ar    1  UNL1       -0.3165
      8 C          -6.3336  -16.9239   23.3825 C.ar    1  UNL1        0.0782
      9 C          -6.9308  -17.7794   22.3049 C.ar    1  UNL1        0.0208
     10 C          -8.9009  -21.0565   17.9645 C.3     1  UNL1        0.0382
     11 C          -9.2229  -20.0813   19.0579 C.ar    1  UNL1        0.0076
     12 C         -10.5927  -19.6000   19.4348 C.ar    1  UNL1        0.0027
     13 C         -10.4479  -18.6375   20.5762 C.ar    1  UNL1        0.0067
     14 C          -8.9887  -18.5241   20.9047 C.ar    1  UNL1        0.0307
     15 S          -8.2316  -19.4164   19.9663 S.2     1  UNL1       -0.0912
     16 C          -3.7484  -17.6001   23.4497 C.3     1  UNL1        0.1920
     17 C          -2.9685  -17.1399   22.2538 C.2     1  UNL1        0.2488
     18 O          -2.8278  -15.6739   21.9690 O.2     1  UNL1       -0.2728
     19 N          -2.3293  -18.1456   21.3429 N.am    1  UNL1       -0.2744
     20 C          -1.5494  -17.6854   20.1471 C.3     1  UNL1        0.1150
     21 C          -2.4699  -19.6116   21.6277 C.3     1  UNL1        0.1150
@<TRIPOS>BOND
     1    10    11    1
     2    11    12   ar
     3    12    13   ar
     4    13    14   ar
     5    14     1    1
     6     1     2   ar
     7     2     3   ar
     8     3     4   ar
     9     4     5   ar
    10     5     6   ar
    11     6     7   ar
    12     7    16    1
    13    16    17    1
    14    17    18    2
    15    17    19   am
    16    19    20    1
    17    19    21    1
    18     7     8   ar
    19     8     9   ar
    20    14    15   ar
    21    15    11   ar
    22     9     1   ar
    23     8     4   ar
@<TRIPOS>MOLECULE
*****
 21 23 0 0 0
SMALL
GASTEIGER

@<TRIPOS>ATOM
      1 C          -7.5279  -18.9984   20.8060 C.ar    1  UNL1        0.0266
      2 C          -8.4786  -19.2914   19.6833 C.ar    1  UNL1        0.0994
      3 N          -9.8798  -18.7581   19.7287 N.ar    1  UNL1       -0.2423
      4 C         -10.3304  -17.9319   20.8967 C.ar    1  UNL1        0.0985
      5 C         -11.6411  -17.2759   21.2160 C.ar    1  UNL1        0.0392
      6 C         -11.5005  -16.5775   22.5359 C.ar    1  UNL1        0.0779
      7 N         -10.1029  -16.8018   23.0324 N.ar    1  UNL1       -0.3165
      8 C          -9.3798  -17.6388   22.0193 C.ar    1  UNL1        0.0782
      9 C          -7.9785  -18.1721   21.9740 C.ar    1  UNL1        0.0208
     10 C          -2.3546  -19.6035   21.6728 C.3     1  UNL1        0.0382
     11 C          -3.7487  -19.8098   21.1591 C.ar    1  UNL1        0.0076
     12 C          -4.1918  -20.8947   20.2228 C.ar    1  UNL1        0.0027
     13 C          -5.6614  -20.7227   19.9765 C.ar    1  UNL1        0.0067
     14 C          -6.1266  -19.5316   20.7607 C.ar    1  UNL1        0.0307
     15 S          -4.9445  -18.9674   21.4915 S.2     1  UNL1       -0.0912
     16 C          -9.5292  -16.2806   24.3166 C.3     1  UNL1        0.1920
     17 C          -8.1514  -15.6879   24.3366 C.2     1  UNL1        0.2488
     18 O          -7.5725  -15.0934   23.0870 O.2     1  UNL1       -0.2728
     19 N          -7.3524  -15.6898   25.6061 N.am    1  UNL1       -0.2744
     20 C          -5.9746  -15.0971   25.6260 C.3     1  UNL1        0.1150
     21 C          -7.9312  -16.2843   26.8557 C.3     1  UNL1        0.1150
@<TRIPOS>BOND
     1    10    11    1
     2    11    12   ar
     3    12    13   ar
     4    13    14   ar
     5    14     1    1
     6     1     2   ar
     7     2     3   ar
     8     3     4   ar
     9     4     5   ar
    10     5     6   ar
    11     6     7   ar
    12     7    16    1
    13    16    17    1
    14    17    18    2
    15    17    19   am
    16    19    20    1
    17    19    21    1
    18     7     8   ar
    19     8     9   ar
    20    14    15   ar
    21    15    11   ar
    22     9     1   ar
    23     8     4   ar
@<TRIPOS>MOLECULE
*****
 21 23 0 0 0
SMALL
GASTEIGER

@<TRIPOS>ATOM
      1 C          -4.7435  -17.1738   23.0593 C.ar    1  UNL1        0.0266
      2 C          -4.3517  -16.0559   23.9794 C.ar    1  UNL1        0.0994
      3 N          -5.4040  -15.3145   24.7493 N.ar    1  UNL1       -0.2423
      4 C          -6.8482  -15.6911   24.5992 C.ar    1  UNL1        0.0985
      5 C          -8.0980  -15.1452   25.2239 C.ar    1  UNL1        0.0392
      6 C          -9.2622  -15.9259   24.6899 C.ar    1  UNL1        0.0779
      7 N          -8.7319  -16.9542   23.7352 N.ar    1  UNL1       -0.3165
      8 C          -7.2400  -16.8090   23.6791 C.ar    1  UNL1        0.0782
      9 C          -6.1877  -17.5504   22.9092 C.ar    1  UNL1        0.0208
     10 C          -0.4796  -18.2443   20.1344 C.3     1  UNL1        0.0382
     11 C          -1.7313  -18.4073   20.9449 C.ar    1  UNL1        0.0076
     12 C          -2.4122  -19.7053   21.2641 C.ar    1  UNL1        0.0027
     13 C          -3.6235  -19.4011   22.0950 C.ar    1  UNL1        0.0067
     14 C          -3.6911  -17.9153   22.2893 C.ar    1  UNL1        0.0307
     15 S          -2.5217  -17.3011   21.5786 S.2     1  UNL1       -0.0912
     16 C          -9.5499  -17.9524   22.9707 C.3     1  UNL1        0.1920
     17 C          -9.9009  -17.6927   21.5356 C.2     1  UNL1        0.2488
     18 O          -9.0318  -18.2365   20.4407 O.2     1  UNL1       -0.2728
     19 N         -11.1211  -16.8893   21.1955 N.am    1  UNL1       -0.2744
     20 C         -11.4721  -16.6297   19.7604 C.3     1  UNL1        0.1150
     21 C         -11.9903  -16.3455   22.2903 C.3     1  UNL1        0.1150
@<TRIPOS>BOND
     1    10    11    1
     2    11    12   ar
     3    12    13   ar
     4    13    14   ar
     5    14     1    1
     6     1     2   ar
     7     2     3   ar
     8     3     4   ar
     9     4     5   ar
    10     5     6   ar
    11     6     7   ar
    12     7    16    1
    13    16    17    1
    14    17    18    2
    15    17    19   am
    16    19    20    1
    17    19    21    1
    18     7     8   ar
    19     8     9   ar
    20    14    15   ar
    21    15    11   ar
    22     9     1   ar
    23     8     4   ar
@<TRIPOS>MOLECULE
*****
 21 23 0 0 0
SMALL
GASTEIGER

@<TRIPOS>ATOM
      1 C          -9.0056  -16.3721   23.2887 C.ar    1  UNL1        0.0266
      2 C          -9.6108  -16.1274   24.6392 C.ar    1  UNL1        0.0994
      3 N          -8.7286  -15.8098   25.8100 N.ar    1  UNL1       -0.2423
      4 C          -7.2412  -15.7367   25.6303 C.ar    1  UNL1        0.0985
      5 C          -6.1271  -15.4466   26.5919 C.ar    1  UNL1        0.0392
      6 C          -4.8333  -15.5119   25.8357 C.ar    1  UNL1        0.0779
      7 N          -5.1478  -15.8425   24.4068 N.ar    1  UNL1       -0.3165
      8 C          -6.6360  -15.9814   24.2798 C.ar    1  UNL1        0.0782
      9 C          -7.5182  -16.2991   23.1090 C.ar    1  UNL1        0.0208
     10 C         -12.1328  -15.8416   19.0673 C.3     1  UNL1        0.0382
     11 C         -11.3252  -16.4460   20.1775 C.ar    1  UNL1        0.0076
     12 C         -11.1653  -17.9115   20.4547 C.ar    1  UNL1        0.0027
     13 C         -10.2769  -18.0621   21.6539 C.ar    1  UNL1        0.0067
     14 C          -9.8877  -16.6898   22.1178 C.ar    1  UNL1        0.0307
     15 S         -10.5356  -15.6910   21.2054 S.2     1  UNL1       -0.0912
     16 C          -4.1495  -16.0055   23.2992 C.3     1  UNL1        0.1920
     17 C          -3.6276  -17.3688   22.9545 C.2     1  UNL1        0.2488
     18 O          -4.2770  -18.5896   23.5360 O.2     1  UNL1       -0.2728
     19 N          -2.4563  -17.5115   22.0284 N.am    1  UNL1       -0.2744
     20 C          -1.9344  -18.8749   21.6837 C.3     1  UNL1        0.1150
     21 C          -1.8069  -16.2909   21.4469 C.3     1  UNL1        0.1150
@<TRIPOS>BOND
     1    10    11    1
     2    11    12   ar
     3    12    13   ar
     4    13    14   ar
     5    14     1    1
     6     1     2   ar
     7     2     3   ar
     8     3     4   ar
     9     4     5   ar
    10     5     6   ar
    11     6     7   ar
    12     7    16    1
    13    16    17    1
    14    17    18    2
    15    17    19   am
    16    19    20    1
    17    19    21    1
    18     7     8   ar
    19     8     9   ar
    20    14    15   ar
    21    15    11   ar
    22     9     1   ar
    23     8     4   ar
@<TRIPOS>MOLECULE
*****
 21 23 0 0 0
SMALL
GASTEIGER

@<TRIPOS>ATOM
      1 C         -15.8259   -5.8506   19.3289 C.ar    1  UNL1        0.0266
      2 C         -16.5101   -4.6605   19.9335 C.ar    1  UNL1        0.0994
      3 N         -15.8246   -3.3263   19.9436 N.ar    1  UNL1       -0.2423
      4 C         -14.4550   -3.1823   19.3491 C.ar    1  UNL1        0.0985
      5 C         -13.5381   -2.0027   19.2150 C.ar    1  UNL1        0.0392
      6 C         -12.2872   -2.4639   18.5276 C.ar    1  UNL1        0.0779
      7 N         -12.4311   -3.9284   18.2368 N.ar    1  UNL1       -0.3165
      8 C         -13.7709   -4.3723   18.7445 C.ar    1  UNL1        0.0782
      9 C         -14.4563   -5.7065   18.7344 C.ar    1  UNL1        0.0208
     10 C         -16.8124  -10.9840   18.5835 C.3     1  UNL1        0.0382
     11 C         -16.9648   -9.5444   18.9762 C.ar    1  UNL1        0.0076
     12 C         -18.1675   -8.9315   19.6304 C.ar    1  UNL1        0.0027
     13 C         -17.8872   -7.4732   19.8421 C.ar    1  UNL1        0.0067
     14 C         -16.5113   -7.1848   19.3188 C.ar    1  UNL1        0.0307
     15 S         -15.9413   -8.4649   18.7836 S.2     1  UNL1       -0.0912
     16 C         -11.4138   -4.7965   17.5575 C.3     1  UNL1        0.1920
     17 C         -10.4233   -5.5714   18.3751 C.2     1  UNL1        0.2488
     18 O          -9.5597   -4.8630   19.3763 O.2     1  UNL1       -0.2728
     19 N         -10.2963   -7.0547   18.1915 N.am    1  UNL1       -0.2744
     20 C          -9.3058   -7.8296   19.0090 C.3     1  UNL1        0.1150
     21 C         -11.1598   -7.7631   17.1903 C.3     1  UNL1        0.1150
@<TRIPOS>BOND
     1    10    11    1
     2    11    12   ar
     3    12    13   ar
     4    13    14   ar
     5    14     1    1
     6     1     2   ar
     7     2     3   ar
     8     3     4   ar
     9     4     5   ar
    10     5     6   ar
    11     6     7   ar
    12     7    16    1
    13    16    17    1
    14    17    18    2
    15    17    19   am
    16    19    20    1
    17    19    21    1
    18     7     8   ar
    19     8     9   ar
    20    14    15   ar
    21    15    11   ar
    22     9     1   ar
    23     8     4   ar
@<TRIPOS>MOLECULE
*****
 21 23 0 0 0
SMALL
GASTEIGER

@<TRIPOS>ATOM
      1 C         -13.3357   -7.0827   17.9456 C.ar    1  UNL1        0.0266
      2 C         -12.4265   -7.7879   16.9833 C.ar    1  UNL1        0.0994
      3 N         -11.1985   -7.0974   16.4685 N.ar    1  UNL1       -0.2423
      4 C         -10.8796   -5.7017   16.9160 C.ar    1  UNL1        0.0985
      5 C          -9.7491   -4.7741   16.5816 C.ar    1  UNL1        0.0392
      6 C          -9.9597   -3.4956   17.3373 C.ar    1  UNL1        0.0779
      7 N         -11.2202   -3.6330   18.1387 N.ar    1  UNL1       -0.3165
      8 C         -11.7887   -4.9964   17.8783 C.ar    1  UNL1        0.0782
      9 C         -13.0168   -5.6869   18.3931 C.ar    1  UNL1        0.0208
     10 C         -17.0634  -10.7227   18.8030 C.3     1  UNL1        0.0382
     11 C         -16.2773   -9.4463   18.8545 C.ar    1  UNL1        0.0076
     12 C         -16.6301   -8.2250   19.6509 C.ar    1  UNL1        0.0027
     13 C         -15.5711   -7.1910   19.4072 C.ar    1  UNL1        0.0067
     14 C         -14.5638   -7.7732   18.4604 C.ar    1  UNL1        0.0307
     15 S         -15.0003   -9.1670   18.1189 S.2     1  UNL1       -0.0912
     16 C         -11.8089   -2.5901   19.0419 C.3     1  UNL1        0.1920
     17 C         -13.2140   -2.1135   18.8214 C.2     1  UNL1        0.2488
     18 O         -13.5529   -1.3198   17.5946 O.2     1  UNL1       -0.2728
     19 N         -14.2802   -2.4306   19.8277 N.am    1  UNL1       -0.2744
     20 C         -15.6852   -1.9540   19.6072 C.3     1  UNL1        0.1150
     21 C         -13.9414   -3.2243   21.0546 C.3     1  UNL1        0.1150
@<TRIPOS>BOND
     1    10    11    1
     2    11    12   ar
     3    12    13   ar
     4    13    14   ar
     5    14     1    1
     6     1     2   ar
     7     2     3   ar
     8     3     4   ar
     9     4     5   ar
    10     5     6   ar
    11     6     7   ar
    12     7    16    1
    13    16    17    1
    14    17    18    2
    15    17    19   am
    16    19    20    1
    17    19    21    1
    18     7     8   ar
    19     8     9   ar
    20    14    15   ar
    21    15    11   ar
    22     9     1   ar
    23     8     4   ar
@<TRIPOS>MOLECULE
*****
 21 23 0 0 0
SMALL
GASTEIGER

@<TRIPOS>ATOM
      1 C          -8.5013  -15.5173   22.8480 C.ar    1  UNL1        0.0266
      2 C          -8.1937  -14.6782   21.6434 C.ar    1  UNL1        0.0994
      3 N          -9.1419  -14.6585   20.4813 N.ar    1  UNL1       -0.2423
      4 C         -10.3976  -15.4778   20.5238 C.ar    1  UNL1        0.0985
      5 C         -11.5128  -15.6575   19.5368 C.ar    1  UNL1        0.0392
      6 C         -12.5095  -16.6077   20.1315 C.ar    1  UNL1        0.0779
      7 N         -12.0104  -17.0152   21.4860 N.ar    1  UNL1       -0.3165
      8 C         -10.7052  -16.3169   21.7285 C.ar    1  UNL1        0.0782
      9 C          -9.7570  -16.3367   22.8906 C.ar    1  UNL1        0.0208
     10 C          -6.5895  -15.6863   27.7672 C.3     1  UNL1        0.0382
     11 C          -6.6743  -15.6148   26.2713 C.ar    1  UNL1        0.0076
     12 C          -5.5136  -15.5203   25.3258 C.ar    1  UNL1        0.0027
     13 C          -6.0567  -15.4723   23.9285 C.ar    1  UNL1        0.0067
     14 C          -7.5531  -15.5371   24.0102 C.ar    1  UNL1        0.0307
     15 S          -7.9348  -15.6251   25.4582 S.2     1  UNL1       -0.0912
     16 C         -12.6961  -17.9559   22.4321 C.3     1  UNL1        0.1920
     17 C         -11.8875  -18.7677   23.4001 C.2     1  UNL1        0.2488
     18 O         -12.0518  -18.5571   24.8761 O.2     1  UNL1       -0.2728
     19 N         -10.9146  -19.7902   22.8921 N.am    1  UNL1       -0.2744
     20 C         -10.1060  -20.6020   23.8602 C.3     1  UNL1        0.1150
     21 C         -10.7503  -20.0009   21.4162 C.3     1  UNL1        0.1150
@<TRIPOS>BOND
     1    10    11    1
     2    11    12   ar
     3    12    13   ar
     4    13    14   ar
     5    14     1    1
     6     1     2   ar
     7     2     3   ar
     8     3     4   ar
     9     4     5   ar
    10     5     6   ar
    11     6     7   ar
    12     7    16    1
    13    16    17    1
    14    17    18    2
    15    17    19   am
    16    19    20    1
    17    19    21    1
    18     7     8   ar
    19     8     9   ar
    20    14    15   ar
    21    15    11   ar
    22     9     1   ar
    23     8     4   ar
@<TRIPOS>MOLECULE
*****
 21 23 0 0 0
SMALL
GASTEIGER

@<TRIPOS>ATOM
      1 C         -13.3856   -4.3651   19.2974 C.ar    1  UNL1        0.0266
      2 C         -13.5486   -2.9968   19.8899 C.ar    1  UNL1        0.0994
      3 N         -14.9209   -2.4281   20.0977 N.ar    1  UNL1       -0.2423
      4 C         -16.1303   -3.2277   19.7130 C.ar    1  UNL1        0.0985
      5 C         -17.5983   -2.9316   19.7990 C.ar    1  UNL1        0.0392
      6 C         -18.3426   -4.1169   19.2596 C.ar    1  UNL1        0.0779
      7 N         -17.3346   -5.1456   18.8403 N.ar    1  UNL1       -0.3165
      8 C         -15.9673   -4.5960   19.1205 C.ar    1  UNL1        0.0782
      9 C         -14.5950   -5.1647   18.9127 C.ar    1  UNL1        0.0208
     10 C          -9.4060   -7.7788   18.6729 C.3     1  UNL1        0.0382
     11 C         -10.1840   -6.5029   18.8025 C.ar    1  UNL1        0.0076
     12 C          -9.6187   -5.1150   18.7369 C.ar    1  UNL1        0.0027
     13 C         -10.7493   -4.1453   18.9143 C.ar    1  UNL1        0.0067
     14 C         -12.0132   -4.9338   19.0896 C.ar    1  UNL1        0.0307
     15 S         -11.6638   -6.3909   19.0205 S.2     1  UNL1       -0.0912
     16 C         -17.6402   -6.4881   18.2452 C.3     1  UNL1        0.1920
     17 C         -16.8418   -7.6898   18.6558 C.2     1  UNL1        0.2488
     18 O         -16.9945   -8.2557   20.0365 O.2     1  UNL1       -0.2728
     19 N         -15.8908   -8.3256   17.6856 N.am    1  UNL1       -0.2744
     20 C         -15.0924   -9.5273   18.0962 C.3     1  UNL1        0.1150
     21 C         -15.7380   -7.7598   16.3049 C.3     1  UNL1        0.1150
@<TRIPOS>BOND
     1    10    11    1
     2    11    12   ar
     3    12    13   ar
     4    13    14   ar
     5    14     1    1
     6     1     2   ar
     7     2     3   ar
     8     3     4   ar
     9     4     5   ar
    10     5     6   ar
    11     6     7   ar
    12     7    16    1
    13    16    17    1
    14    17    18    2
    15    17    19   am
    16    19    20    1
    17    19    21    1
    18     7     8   ar
    19     8     9   ar
    20    14    15   ar
    21    15    11   ar
    22     9     1   ar
    23     8     4   ar
@<TRIPOS>MOLECULE
*****
 21 23 0 0 0
SMALL
GASTEIGER

@<TRIPOS>ATOM
      1 C         -13.0339   -2.9971   18.7350 C.ar    1  UNL1        0.0266
      2 C         -11.5544   -2.8636   18.9431 C.ar    1  UNL1        0.0994
      3 N         -10.6568   -4.0455   18.7254 N.ar    1  UNL1       -0.2423
      4 C         -11.2386   -5.3608   18.2996 C.ar    1  UNL1        0.0985
      5 C         -10.6080   -6.6908   18.0106 C.ar    1  UNL1        0.0392
      6 C         -11.6977   -7.6463   17.6239 C.ar    1  UNL1        0.0779
      7 N         -13.0018   -6.9068   17.6740 N.ar    1  UNL1       -0.3165
      8 C         -12.7181   -5.4944   18.0916 C.ar    1  UNL1        0.0782
      9 C         -13.6157   -4.3125   18.3092 C.ar    1  UNL1        0.0208
     10 C         -17.0050    0.0510   20.4144 C.3     1  UNL1        0.0382
     11 C         -15.7569   -0.4142   19.7246 C.ar    1  UNL1        0.0076
     12 C         -14.8690    0.4212   18.8506 C.ar    1  UNL1        0.0027
     13 C         -13.7409   -0.4447   18.3736 C.ar    1  UNL1        0.0067
     14 C         -13.9316   -1.8152   18.9527 C.ar    1  UNL1        0.0307
     15 S         -15.1775   -1.7963   19.7877 S.2     1  UNL1       -0.0912
     16 C         -14.3526   -7.4793   17.3613 C.3     1  UNL1        0.1920
     17 C         -14.9869   -8.4612   18.3012 C.2     1  UNL1        0.2488
     18 O         -14.5814   -9.9049   18.2636 O.2     1  UNL1       -0.2728
     19 N         -16.0266   -7.9995   19.2788 N.am    1  UNL1       -0.2744
     20 C         -16.6609   -8.9814   20.2188 C.3     1  UNL1        0.1150
     21 C         -16.4321   -6.5559   19.3165 C.3     1  UNL1        0.1150
@<TRIPOS>BOND
     1    10    11    1
     2    11    12   ar
     3    12    13   ar
     4    13    14   ar
     5    14     1    1
     6     1     2   ar
     7     2     3   ar
     8     3     4   ar
     9     4     5   ar
    10     5     6   ar
    11     6     7   ar
    12     7    16    1
    13    16    17    1
    14    17    18    2
    15    17    19   am
    16    19    20    1
    17    19    21    1
    18     7     8   ar
    19     8     9   ar
    20    14    15   ar
    21    15    11   ar
    22     9     1   ar
    23     8     4   ar
