@<TRIPOS>MOLECULE
*****
 19 20 0 0 0
SMALL
GASTEIGER

@<TRIPOS>ATOM
      1 C          -3.4665  -19.2762   20.9669 C.2     1  UNL1        0.0537
      2 C          -4.2292  -20.3961   20.3237 C.2     1  UNL1        0.0451
      3 C          -5.7143  -20.4962   20.5099 C.2     1  UNL1        0.1246
      4 O          -6.4770  -21.6162   19.8666 O.2     1  UNL1       -0.5089
      5 C          -6.4365  -19.4763   21.3394 C.3     1  UNL1        0.1569
      6 C          -5.6737  -18.3563   21.9827 C.2     1  UNL1        0.2562
      7 O          -6.3960  -17.3364   22.8122 O.2     1  UNL1       -0.2722
      8 N          -4.1887  -18.2563   21.7964 N.am    1  UNL1       -0.1829
      9 H          -6.0259  -22.2533   19.3484 H       1  UNL1        0.2917
     10 C          -7.9216  -19.5763   21.5256 C.ar    1  UNL1       -0.0067
     11 C          -8.4852  -19.9770   22.8567 C.ar    1  UNL1       -0.0034
     12 C          -9.9702  -20.0770   23.0429 C.ar    1  UNL1       -0.0003
     13 C         -10.8916  -19.7764   21.8981 C.ar    1  UNL1       -0.0000
     14 C         -10.3280  -19.3758   20.5670 C.ar    1  UNL1       -0.0003
     15 C          -8.8429  -19.2758   20.3808 C.ar    1  UNL1       -0.0034
     16 C          -1.9814  -19.1761   20.7807 C.3     1  UNL1        0.0433
     17 C           0.0128  -17.7177   19.9770 C.3     1  UNL1        0.0004
     18 C          -1.4112  -18.1657   19.8300 C.3     1  UNL1        0.0057
     19 C          -2.2648  -17.6034   18.7323 C.3     1  UNL1        0.0004
@<TRIPOS>BOND
     1    17    18    1
     2    18    19    1
     3    18    16    1
     4    16     1    1
     5     1     2    1
     6     2     3    2
     7     3     4    1
     8     3     5    1
     9     5    10    1
    10    10    11   ar
    11    11    12   ar
    12    12    13   ar
    13    13    14   ar
    14    14    15   ar
    15     5     6    1
    16     6     7    2
    17     6     8    1
    18     8     1    2
    19    15    10   ar
    20     4     9    1
@<TRIPOS>MOLECULE
*****
 19 20 0 0 0
SMALL
GASTEIGER

@<TRIPOS>ATOM
      1 C          -6.0338  -19.5071   20.5594 C.2     1  UNL1        0.0537
      2 C          -7.2927  -19.9265   19.8599 C.2     1  UNL1        0.0451
      3 C          -8.6180  -19.3932   20.3171 C.2     1  UNL1        0.1246
      4 O          -9.8769  -19.8127   19.6176 O.2     1  UNL1       -0.5089
      5 C          -8.6845  -18.4406   21.4738 C.3     1  UNL1        0.1569
      6 C          -7.4257  -18.0212   22.1733 C.2     1  UNL1        0.2562
      7 O          -7.4921  -17.0685   23.3301 O.2     1  UNL1       -0.2722
      8 N          -6.1003  -18.5545   21.7161 N.am    1  UNL1       -0.1829
      9 H          -9.8354  -20.4078   18.8950 H       1  UNL1        0.2917
     10 C         -10.0099  -17.9073   21.9310 C.ar    1  UNL1       -0.0067
     11 C         -10.4783  -16.5612   21.4638 C.ar    1  UNL1       -0.0034
     12 C         -11.8037  -16.0279   21.9210 C.ar    1  UNL1       -0.0003
     13 C         -12.6606  -16.8408   22.8455 C.ar    1  UNL1       -0.0000
     14 C         -12.1922  -18.1870   23.3127 C.ar    1  UNL1       -0.0003
     15 C         -10.8669  -18.7202   22.8555 C.ar    1  UNL1       -0.0034
     16 C          -4.7084  -20.0404   20.1022 C.3     1  UNL1        0.0433
     17 C          -3.0308  -18.1824   19.4070 C.3     1  UNL1        0.0004
     18 C          -3.4552  -19.2582   20.3622 C.3     1  UNL1        0.0057
     19 C          -2.6264  -19.5519   21.5775 C.3     1  UNL1        0.0004
@<TRIPOS>BOND
     1    17    18    1
     2    18    19    1
     3    18    16    1
     4    16     1    1
     5     1     2    1
     6     2     3    2
     7     3     4    1
     8     3     5    1
     9     5    10    1
    10    10    11   ar
    11    11    12   ar
    12    12    13   ar
    13    13    14   ar
    14    14    15   ar
    15     5     6    1
    16     6     7    2
    17     6     8    1
    18     8     1    2
    19    15    10   ar
    20     4     9    1
@<TRIPOS>MOLECULE
*****
 19 20 0 0 0
SMALL
GASTEIGER

@<TRIPOS>ATOM
      1 C          -5.1459  -17.1137   23.3046 C.2     1  UNL1        0.0537
      2 C          -5.9770  -16.0350   23.9337 C.2     1  UNL1        0.0451
      3 C          -7.4605  -16.0067   23.7136 C.2     1  UNL1        0.1246
      4 O          -8.2916  -14.9280   24.3427 O.2     1  UNL1       -0.5089
      5 C          -8.1129  -17.0571   22.8644 C.3     1  UNL1        0.1569
      6 C          -7.2818  -18.1357   22.2354 C.2     1  UNL1        0.2562
      7 O          -7.9342  -19.1862   21.3862 O.2     1  UNL1       -0.2722
      8 N          -5.7983  -18.1640   22.4555 N.am    1  UNL1       -0.1829
      9 H          -7.8840  -14.2718   24.8731 H       1  UNL1        0.2917
     10 C          -9.5964  -17.0288   22.6444 C.ar    1  UNL1       -0.0067
     11 C         -10.1746  -16.1982   21.5372 C.ar    1  UNL1       -0.0034
     12 C         -11.6581  -16.1700   21.3172 C.ar    1  UNL1       -0.0003
     13 C         -12.5634  -16.9722   22.2042 C.ar    1  UNL1       -0.0000
     14 C         -11.9851  -17.8028   23.3113 C.ar    1  UNL1       -0.0003
     15 C         -10.5016  -17.8311   23.5314 C.ar    1  UNL1       -0.0034
     16 C          -3.6624  -17.1419   23.5247 C.3     1  UNL1        0.0433
     17 C          -2.1094  -16.2565   21.6394 C.3     1  UNL1        0.0004
     18 C          -2.7381  -17.4041   22.3728 C.3     1  UNL1        0.0057
     19 C          -2.4426  -18.8139   21.9541 C.3     1  UNL1        0.0004
@<TRIPOS>BOND
     1    17    18    1
     2    18    19    1
     3    18    16    1
     4    16     1    1
     5     1     2    1
     6     2     3    2
     7     3     4    1
     8     3     5    1
     9     5    10    1
    10    10    11   ar
    11    11    12   ar
    12    12    13   ar
    13    13    14   ar
    14    14    15   ar
    15     5     6    1
    16     6     7    2
    17     6     8    1
    18     8     1    2
    19    15    10   ar
    20     4     9    1
@<TRIPOS>MOLECULE
*****
 19 20 0 0 0
SMALL
GASTEIGER

@<TRIPOS>ATOM
      1 C          -9.8598  -17.9657   21.9293 C.2     1  UNL1        0.0537
      2 C          -9.4997  -19.0439   20.9507 C.2     1  UNL1        0.0451
      3 C          -8.0592  -19.3802   20.7017 C.2     1  UNL1        0.1246
      4 O          -7.6991  -20.4585   19.7231 O.2     1  UNL1       -0.5089
      5 C          -6.9789  -18.6382   21.4313 C.3     1  UNL1        0.1569
      6 C          -7.3390  -17.5599   22.4098 C.2     1  UNL1        0.2562
      7 O          -6.2586  -16.8179   23.1394 O.2     1  UNL1       -0.2722
      8 N          -8.7794  -17.2237   22.6589 N.am    1  UNL1       -0.1829
      9 H          -8.3740  -20.9220   19.2674 H       1  UNL1        0.2917
     10 C          -5.5384  -18.9744   21.1822 C.ar    1  UNL1       -0.0067
     11 C          -4.6617  -19.4071   22.3198 C.ar    1  UNL1       -0.0034
     12 C          -3.2213  -19.7433   22.0708 C.ar    1  UNL1       -0.0003
     13 C          -2.6575  -19.6470   20.6842 C.ar    1  UNL1       -0.0000
     14 C          -3.5342  -19.2143   19.5466 C.ar    1  UNL1       -0.0003
     15 C          -4.9746  -18.8781   19.7956 C.ar    1  UNL1       -0.0034
     16 C         -11.3002  -17.6294   22.1783 C.3     1  UNL1        0.0433
     17 C         -13.4638  -17.9139   23.5884 C.3     1  UNL1        0.0004
     18 C         -12.0034  -18.1864   23.3805 C.3     1  UNL1        0.0057
     19 C         -11.2463  -19.0160   24.3748 C.3     1  UNL1        0.0004
@<TRIPOS>BOND
     1    17    18    1
     2    18    19    1
     3    18    16    1
     4    16     1    1
     5     1     2    1
     6     2     3    2
     7     3     4    1
     8     3     5    1
     9     5    10    1
    10    10    11   ar
    11    11    12   ar
    12    12    13   ar
    13    13    14   ar
    14    14    15   ar
    15     5     6    1
    16     6     7    2
    17     6     8    1
    18     8     1    2
    19    15    10   ar
    20     4     9    1
@<TRIPOS>MOLECULE
*****
 19 20 0 0 0
SMALL
GASTEIGER

@<TRIPOS>ATOM
      1 C          -9.8120  -17.9125   21.9992 C.2     1  UNL1        0.0537
      2 C          -8.7169  -17.1816   22.7178 C.2     1  UNL1        0.0451
      3 C          -7.2824  -17.5307   22.4524 C.2     1  UNL1        0.1246
      4 O          -6.1873  -16.7998   23.1710 O.2     1  UNL1       -0.5089
      5 C          -6.9431  -18.6108   21.4684 C.3     1  UNL1        0.1569
      6 C          -8.0383  -19.3417   20.7498 C.2     1  UNL1        0.2562
      7 O          -7.6990  -20.4219   19.7658 O.2     1  UNL1       -0.2722
      8 N          -9.4727  -18.9926   21.0153 N.am    1  UNL1       -0.1829
      9 H          -6.3992  -16.1251   23.7857 H       1  UNL1        0.2917
     10 C          -5.5087  -18.9600   21.2030 C.ar    1  UNL1       -0.0067
     11 C          -4.9592  -18.8661   19.8105 C.ar    1  UNL1       -0.0034
     12 C          -3.5248  -19.2152   19.5450 C.ar    1  UNL1       -0.0003
     13 C          -2.6398  -19.6583   20.6722 C.ar    1  UNL1       -0.0000
     14 C          -3.1893  -19.7522   22.0647 C.ar    1  UNL1       -0.0003
     15 C          -4.6237  -19.4030   22.3301 C.ar    1  UNL1       -0.0034
     16 C         -11.2465  -17.5633   22.2646 C.3     1  UNL1        0.0433
     17 C         -13.4342  -17.9327   23.6165 C.3     1  UNL1        0.0004
     18 C         -11.9696  -18.1901   23.4197 C.3     1  UNL1        0.0057
     19 C         -11.2281  -19.0743   24.3781 C.3     1  UNL1        0.0004
@<TRIPOS>BOND
     1    17    18    1
     2    18    19    1
     3    18    16    1
     4    16     1    1
     5     1     2    1
     6     2     3    2
     7     3     4    1
     8     3     5    1
     9     5    10    1
    10    10    11   ar
    11    11    12   ar
    12    12    13   ar
    13    13    14   ar
    14    14    15   ar
    15     5     6    1
    16     6     7    2
    17     6     8    1
    18     8     1    2
    19    15    10   ar
    20     4     9    1
@<TRIPOS>MOLECULE
*****
 19 20 0 0 0
SMALL
GASTEIGER

@<TRIPOS>ATOM
      1 C          -8.6444  -16.3354   25.3320 C.2     1  UNL1        0.0537
      2 C          -9.1891  -17.7328   25.3066 C.2     1  UNL1        0.0451
      3 C          -9.3370  -18.4565   24.0011 C.2     1  UNL1        0.1246
      4 O          -9.8816  -19.8539   23.9757 O.2     1  UNL1       -0.5089
      5 C          -8.9402  -17.7828   22.7209 C.3     1  UNL1        0.1569
      6 C          -8.3956  -16.3855   22.7463 C.2     1  UNL1        0.2562
      7 O          -7.9988  -15.7118   21.4662 O.2     1  UNL1       -0.2722
      8 N          -8.2477  -15.6618   24.0518 N.am    1  UNL1       -0.1829
      9 H         -10.1295  -20.2747   24.7754 H       1  UNL1        0.2917
     10 C          -9.0881  -18.5066   21.4154 C.ar    1  UNL1       -0.0067
     11 C         -10.4342  -18.6056   20.7611 C.ar    1  UNL1       -0.0034
     12 C         -10.5821  -19.3293   19.4556 C.ar    1  UNL1       -0.0003
     13 C          -9.3840  -19.9540   18.8044 C.ar    1  UNL1       -0.0000
     14 C          -8.0379  -19.8550   19.4587 C.ar    1  UNL1       -0.0003
     15 C          -7.8900  -19.1312   20.7642 C.ar    1  UNL1       -0.0034
     16 C          -8.4965  -15.6117   26.6375 C.3     1  UNL1        0.0433
     17 C          -7.0037  -14.1938   28.2221 C.3     1  UNL1        0.0004
     18 C          -7.1363  -15.1981   27.1158 C.3     1  UNL1        0.0057
     19 C          -5.9088  -15.7889   26.4880 C.3     1  UNL1        0.0004
@<TRIPOS>BOND
     1    17    18    1
     2    18    19    1
     3    18    16    1
     4    16     1    1
     5     1     2    1
     6     2     3    2
     7     3     4    1
     8     3     5    1
     9     5    10    1
    10    10    11   ar
    11    11    12   ar
    12    12    13   ar
    13    13    14   ar
    14    14    15   ar
    15     5     6    1
    16     6     7    2
    17     6     8    1
    18     8     1    2
    19    15    10   ar
    20     4     9    1
@<TRIPOS>MOLECULE
*****
 19 20 0 0 0
SMALL
GASTEIGER

@<TRIPOS>ATOM
      1 C         -10.7006  -17.3797   23.2618 C.2     1  UNL1        0.0537
      2 C          -9.8229  -16.3578   22.6020 C.2     1  UNL1        0.0451
      3 C          -8.4495  -16.7385   22.1342 C.2     1  UNL1        0.1246
      4 O          -7.5718  -15.7165   21.4744 O.2     1  UNL1       -0.5089
      5 C          -7.9537  -18.1411   22.3262 C.3     1  UNL1        0.1569
      6 C          -8.8314  -19.1630   22.9860 C.2     1  UNL1        0.2562
      7 O          -8.3357  -20.5656   23.1780 O.2     1  UNL1       -0.2722
      8 N         -10.2048  -18.7823   23.4538 N.am    1  UNL1       -0.1829
      9 H          -7.8815  -14.8403   21.3544 H       1  UNL1        0.2917
     10 C          -6.5803  -18.5217   21.8584 C.ar    1  UNL1       -0.0067
     11 C          -6.3869  -19.0898   20.4837 C.ar    1  UNL1       -0.0034
     12 C          -5.0135  -19.4705   20.0159 C.ar    1  UNL1       -0.0003
     13 C          -3.8335  -19.2831   20.9228 C.ar    1  UNL1       -0.0000
     14 C          -4.0270  -18.7150   22.2975 C.ar    1  UNL1       -0.0003
     15 C          -5.4004  -18.3343   22.7653 C.ar    1  UNL1       -0.0034
     16 C         -12.0740  -16.9990   23.7296 C.3     1  UNL1        0.0433
     17 C         -13.4169  -18.0607   21.7754 C.3     1  UNL1        0.0004
     18 C         -13.2710  -17.7569   23.2370 C.3     1  UNL1        0.0057
     19 C         -14.3221  -18.2111   24.2061 C.3     1  UNL1        0.0004
@<TRIPOS>BOND
     1    17    18    1
     2    18    19    1
     3    18    16    1
     4    16     1    1
     5     1     2    1
     6     2     3    2
     7     3     4    1
     8     3     5    1
     9     5    10    1
    10    10    11   ar
    11    11    12   ar
    12    12    13   ar
    13    13    14   ar
    14    14    15   ar
    15     5     6    1
    16     6     7    2
    17     6     8    1
    18     8     1    2
    19    15    10   ar
    20     4     9    1
@<TRIPOS>MOLECULE
*****
 19 20 0 0 0
SMALL
GASTEIGER

@<TRIPOS>ATOM
      1 C          -9.1963  -18.2363   22.2975 C.2     1  UNL1        0.0537
      2 C          -8.1362  -17.3028   22.8021 C.2     1  UNL1        0.0451
      3 C          -6.6993  -17.5324   22.4376 C.2     1  UNL1        0.1246
      4 O          -5.6392  -16.5987   22.9423 O.2     1  UNL1       -0.5089
      5 C          -6.3226  -18.6954   21.5686 C.3     1  UNL1        0.1569
      6 C          -7.3827  -19.6290   21.0640 C.2     1  UNL1        0.2562
      7 O          -7.0060  -20.7922   20.1950 O.2     1  UNL1       -0.2722
      8 N          -8.8195  -19.3994   21.4285 N.am    1  UNL1       -0.1829
      9 H          -5.8746  -15.8722   23.4851 H       1  UNL1        0.2917
     10 C          -4.8858  -18.9250   21.2042 C.ar    1  UNL1       -0.0067
     11 C          -3.9103  -19.3791   22.2492 C.ar    1  UNL1       -0.0034
     12 C          -2.4735  -19.6087   21.8847 C.ar    1  UNL1       -0.0003
     13 C          -2.0121  -19.3841   20.4753 C.ar    1  UNL1       -0.0000
     14 C          -2.9876  -18.9299   19.4302 C.ar    1  UNL1       -0.0003
     15 C          -4.4244  -18.7004   19.7947 C.ar    1  UNL1       -0.0034
     16 C         -10.6331  -18.0068   22.6620 C.3     1  UNL1        0.0433
     17 C         -10.1510  -18.5543   25.1555 C.3     1  UNL1        0.0004
     18 C         -11.1267  -18.3692   24.0313 C.3     1  UNL1        0.0057
     19 C         -12.5959  -18.5465   24.2764 C.3     1  UNL1        0.0004
@<TRIPOS>BOND
     1    17    18    1
     2    18    19    1
     3    18    16    1
     4    16     1    1
     5     1     2    1
     6     2     3    2
     7     3     4    1
     8     3     5    1
     9     5    10    1
    10    10    11   ar
    11    11    12   ar
    12    12    13   ar
    13    13    14   ar
    14    14    15   ar
    15     5     6    1
    16     6     7    2
    17     6     8    1
    18     8     1    2
    19    15    10   ar
    20     4     9    1
@<TRIPOS>MOLECULE
*****
 19 20 0 0 0
SMALL
GASTEIGER

@<TRIPOS>ATOM
      1 C         -12.8681   -5.3939   18.9475 C.2     1  UNL1        0.0537
      2 C         -12.8375   -6.8931   18.9828 C.2     1  UNL1        0.0451
      3 C         -14.1198   -7.6705   18.9460 C.2     1  UNL1        0.1246
      4 O         -14.0892   -9.1699   18.9812 O.2     1  UNL1       -0.5089
      5 C         -15.4327   -6.9487   18.8739 C.3     1  UNL1        0.1569
      6 C         -15.4633   -5.4495   18.8386 C.2     1  UNL1        0.2562
      7 O         -16.7763   -4.7276   18.7665 O.2     1  UNL1       -0.2722
      8 N         -14.1810   -4.6721   18.8754 N.am    1  UNL1       -0.1829
      9 H         -13.2690   -9.6208   19.0262 H       1  UNL1        0.2917
     10 C         -16.7150   -7.7261   18.8370 C.ar    1  UNL1       -0.0067
     11 C         -17.2450   -8.2372   17.5302 C.ar    1  UNL1       -0.0034
     12 C         -18.5272   -9.0146   17.4933 C.ar    1  UNL1       -0.0003
     13 C         -19.2796   -9.2810   18.7633 C.ar    1  UNL1       -0.0000
     14 C         -18.7496   -8.7699   20.0702 C.ar    1  UNL1       -0.0003
     15 C         -17.4673   -7.9925   20.1070 C.ar    1  UNL1       -0.0034
     16 C         -11.5858   -4.6165   18.9844 C.3     1  UNL1        0.0433
     17 C          -9.3933   -5.9644   19.3389 C.3     1  UNL1        0.0004
     18 C         -10.3276   -5.2186   18.4329 C.3     1  UNL1        0.0057
     19 C         -10.0036   -5.0750   16.9753 C.3     1  UNL1        0.0004
@<TRIPOS>BOND
     1    17    18    1
     2    18    19    1
     3    18    16    1
     4    16     1    1
     5     1     2    1
     6     2     3    2
     7     3     4    1
     8     3     5    1
     9     5    10    1
    10    10    11   ar
    11    11    12   ar
    12    12    13   ar
    13    13    14   ar
    14    14    15   ar
    15     5     6    1
    16     6     7    2
    17     6     8    1
    18     8     1    2
    19    15    10   ar
    20     4     9    1
