@<TRIPOS>MOLECULE
*****
 25 28 0 0 0
SMALL
GASTEIGER

@<TRIPOS>ATOM
      1 N          -8.6529  -15.7163   24.2628 N.3     1  UNL1       -0.3204
      2 C          -7.9331  -16.8392   23.5765 C.3     1  UNL1        0.0783
      3 C          -6.4444  -16.7802   23.4021 C.3     1  UNL1        0.1229
      4 N          -5.7246  -17.9031   22.7159 N.ar    1  UNL1       -0.3134
      5 C          -6.4934  -19.0849   22.2039 C.ar    1  UNL1        0.1207
      6 N          -5.5183  -20.0343   21.5732 N.ar    1  UNL1       -0.2294
      7 C          -4.1468  -19.4392   21.6953 C.ar    1  UNL1        0.1174
      8 C          -2.7984  -19.9265   21.2546 C.ar    1  UNL1        0.1194
      9 N          -1.5775  -19.0967   21.5202 N.ar    1  UNL1       -0.2406
     10 C          -1.7050  -17.7795   22.2264 C.ar    1  UNL1        0.1005
     11 C          -3.0534  -17.2921   22.6671 C.ar    1  UNL1        0.0394
     12 C          -4.2743  -18.1220   22.4015 C.ar    1  UNL1        0.0818
     13 C          -7.9821  -19.1439   22.3783 C.3     1  UNL1        0.0698
     14 C          -8.7020  -18.0211   23.0645 C.3     1  UNL1        0.0482
     15 H          -7.9805  -15.0024   24.5433 H       1  UNL1        0.1189
     16 H          -9.1329  -16.0744   25.0885 H       1  UNL1        0.1189
     17 C         -10.1906  -18.0801   23.2389 C.ar    1  UNL1        0.0091
     18 C         -11.0941  -17.6299   22.1294 C.ar    1  UNL1        0.0300
     19 C         -12.5828  -17.6889   22.3037 C.ar    1  UNL1        0.1672
     20 F         -13.4863  -17.2387   21.1942 F       1  UNL1       -0.2018
     21 C         -13.1679  -18.1980   23.5875 C.ar    1  UNL1        0.1696
     22 F         -14.6566  -18.2570   23.7619 F       1  UNL1       -0.2017
     23 C         -12.2644  -18.6482   24.6970 C.ar    1  UNL1        0.0612
     24 C         -10.7757  -18.5892   24.5227 C.ar    1  UNL1        0.1386
     25 F          -9.8723  -19.0394   25.6322 F       1  UNL1       -0.2044
@<TRIPOS>BOND
     1     2     1    1
     2     2     3    1
     3     3     4    1
     4     4     5   ar
     5     5     6   ar
     6     6     7   ar
     7     7     8   ar
     8     8     9   ar
     9     9    10   ar
    10    10    11   ar
    11    11    12   ar
    12     5    13    1
    13    13    14    1
    14    14    17    1
    15    17    18   ar
    16    18    19   ar
    17    19    20    1
    18    19    21   ar
    19    21    22    1
    20    21    23   ar
    21    23    24   ar
    22    24    25    1
    23    14     2    1
    24    24    17   ar
    25    12     4   ar
    26    12     7   ar
    27     1    15    1
    28     1    16    1
@<TRIPOS>MOLECULE
*****
 25 28 0 0 0
SMALL
GASTEIGER

@<TRIPOS>ATOM
      1 N          -9.4784  -19.5565   19.9097 N.3     1  UNL1       -0.3204
      2 C          -8.3153  -19.0999   20.7398 C.3     1  UNL1        0.0783
      3 C          -6.9149  -19.2889   20.2368 C.3     1  UNL1        0.1229
      4 N          -5.7518  -18.8324   21.0667 N.ar    1  UNL1       -0.3134
      5 C          -5.9892  -18.1868   22.3997 C.ar    1  UNL1        0.1207
      6 N          -4.6550  -17.8404   22.9911 N.ar    1  UNL1       -0.2294
      7 C          -3.5930  -18.2719   22.0237 C.ar    1  UNL1        0.1174
      8 C          -2.0963  -18.1858   22.0721 C.ar    1  UNL1        0.1194
      9 N          -1.2774  -18.7128   20.9312 N.ar    1  UNL1       -0.2406
     10 C          -1.9553  -19.3259   19.7418 C.ar    1  UNL1        0.1005
     11 C          -3.4520  -19.4120   19.6934 C.ar    1  UNL1        0.0394
     12 C          -4.2709  -18.8850   20.8343 C.ar    1  UNL1        0.0818
     13 C          -7.3897  -17.9977   22.9027 C.3     1  UNL1        0.0698
     14 C          -8.5528  -18.4542   22.0727 C.3     1  UNL1        0.0482
     15 H          -9.1358  -19.9689   19.0420 H       1  UNL1        0.1189
     16 H         -10.0762  -18.7587   19.6941 H       1  UNL1        0.1189
     17 C          -9.9532  -18.2652   22.5757 C.ar    1  UNL1        0.0091
     18 C         -10.7168  -17.0241   22.2198 C.ar    1  UNL1        0.0300
     19 C         -12.1173  -16.8350   22.7228 C.ar    1  UNL1        0.1672
     20 F         -12.8808  -15.5940   22.3670 F       1  UNL1       -0.2018
     21 C         -12.7541  -17.8871   23.5816 C.ar    1  UNL1        0.1696
     22 F         -14.1545  -17.6980   24.0846 F       1  UNL1       -0.2017
     23 C         -11.9905  -19.1281   23.9375 C.ar    1  UNL1        0.0612
     24 C         -10.5900  -19.3172   23.4345 C.ar    1  UNL1        0.1386
     25 F          -9.8265  -20.5583   23.7903 F       1  UNL1       -0.2044
@<TRIPOS>BOND
     1     2     1    1
     2     2     3    1
     3     3     4    1
     4     4     5   ar
     5     5     6   ar
     6     6     7   ar
     7     7     8   ar
     8     8     9   ar
     9     9    10   ar
    10    10    11   ar
    11    11    12   ar
    12     5    13    1
    13    13    14    1
    14    14    17    1
    15    17    18   ar
    16    18    19   ar
    17    19    20    1
    18    19    21   ar
    19    21    22    1
    20    21    23   ar
    21    23    24   ar
    22    24    25    1
    23    14     2    1
    24    24    17   ar
    25    12     4   ar
    26    12     7   ar
    27     1    15    1
    28     1    16    1
@<TRIPOS>MOLECULE
*****
 25 28 0 0 0
SMALL
GASTEIGER

@<TRIPOS>ATOM
      1 N          -9.5755  -19.6750   19.8800 N.3     1  UNL1       -0.3204
      2 C          -8.4285  -19.1612   20.6989 C.3     1  UNL1        0.0783
      3 C          -7.0183  -19.3964   20.2450 C.3     1  UNL1        0.1229
      4 N          -5.8713  -18.8827   21.0638 N.ar    1  UNL1       -0.3134
      5 C          -6.1346  -18.1338   22.3365 C.ar    1  UNL1        0.1207
      6 N          -4.8118  -17.7494   22.9302 N.ar    1  UNL1       -0.2294
      7 C          -3.7310  -18.2608   22.0244 C.ar    1  UNL1        0.1174
      8 C          -2.2352  -18.1791   22.1009 C.ar    1  UNL1        0.1194
      9 N          -1.3943  -18.7978   21.0239 N.ar    1  UNL1       -0.2406
     10 C          -2.0491  -19.4983   19.8704 C.ar    1  UNL1        0.1005
     11 C          -3.5449  -19.5799   19.7939 C.ar    1  UNL1        0.0394
     12 C          -4.3858  -18.9612   20.8709 C.ar    1  UNL1        0.0818
     13 C          -7.5448  -17.8986   22.7904 C.3     1  UNL1        0.0698
     14 C          -8.6918  -18.4123   21.9716 C.3     1  UNL1        0.0482
     15 H          -9.2161  -20.1557   19.0553 H       1  UNL1        0.1189
     16 H         -10.1626  -18.8933   19.5890 H       1  UNL1        0.1189
     17 C         -10.1020  -18.1771   22.4255 C.ar    1  UNL1        0.0091
     18 C         -10.5995  -18.8148   23.6888 C.ar    1  UNL1        0.0300
     19 C         -12.0097  -18.5796   24.1426 C.ar    1  UNL1        0.1672
     20 F         -12.5072  -19.2173   25.4059 F       1  UNL1       -0.2018
     21 C         -12.9223  -17.7068   23.3332 C.ar    1  UNL1        0.1696
     22 F         -14.3326  -17.4716   23.7871 F       1  UNL1       -0.2017
     23 C         -12.4248  -17.0692   22.0700 C.ar    1  UNL1        0.0612
     24 C         -11.0146  -17.3043   21.6161 C.ar    1  UNL1        0.1386
     25 F         -10.5171  -16.6667   20.3528 F       1  UNL1       -0.2044
@<TRIPOS>BOND
     1     2     1    1
     2     2     3    1
     3     3     4    1
     4     4     5   ar
     5     5     6   ar
     6     6     7   ar
     7     7     8   ar
     8     8     9   ar
     9     9    10   ar
    10    10    11   ar
    11    11    12   ar
    12     5    13    1
    13    13    14    1
    14    14    17    1
    15    17    18   ar
    16    18    19   ar
    17    19    20    1
    18    19    21   ar
    19    21    22    1
    20    21    23   ar
    21    23    24   ar
    22    24    25    1
    23    14     2    1
    24    24    17   ar
    25    12     4   ar
    26    12     7   ar
    27     1    15    1
    28     1    16    1
@<TRIPOS>MOLECULE
*****
 25 28 0 0 0
SMALL
GASTEIGER

@<TRIPOS>ATOM
      1 N          -8.2541  -15.9856   24.7489 N.3     1  UNL1       -0.3204
      2 C          -7.6732  -16.9762   23.7837 C.3     1  UNL1        0.0783
      3 C          -6.1863  -17.0705   23.6099 C.3     1  UNL1        0.1229
      4 N          -5.6054  -18.0610   22.6448 N.ar    1  UNL1       -0.3134
      5 C          -6.5114  -18.9572   21.8536 C.ar    1  UNL1        0.1207
      6 N          -5.6559  -19.8298   20.9837 N.ar    1  UNL1       -0.2294
      7 C          -4.2212  -19.4729   21.2373 C.ar    1  UNL1        0.1174
      8 C          -2.9392  -20.0022   20.6661 C.ar    1  UNL1        0.1194
      9 N          -1.6260  -19.4383   21.1215 N.ar    1  UNL1       -0.2406
     10 C          -1.5948  -18.3451   22.1481 C.ar    1  UNL1        0.1005
     11 C          -2.8767  -17.8158   22.7194 C.ar    1  UNL1        0.0394
     12 C          -4.1899  -18.3798   22.2640 C.ar    1  UNL1        0.0818
     13 C          -7.9983  -18.8628   22.0274 C.3     1  UNL1        0.0698
     14 C          -8.5792  -17.8723   22.9925 C.3     1  UNL1        0.0482
     15 H          -7.5001  -15.4643   25.1962 H       1  UNL1        0.1189
     16 H          -8.7940  -16.4796   25.4594 H       1  UNL1        0.1189
     17 C         -10.0661  -17.7779   23.1663 C.ar    1  UNL1        0.0091
     18 C         -10.7461  -18.5635   24.2483 C.ar    1  UNL1        0.0300
     19 C         -12.2330  -18.4691   24.4221 C.ar    1  UNL1        0.1672
     20 F         -12.9130  -19.2546   25.5040 F       1  UNL1       -0.2018
     21 C         -13.0399  -17.5893   23.5140 C.ar    1  UNL1        0.1696
     22 F         -14.5268  -17.4949   23.6879 F       1  UNL1       -0.2017
     23 C         -12.3599  -16.8037   22.4321 C.ar    1  UNL1        0.0612
     24 C         -10.8730  -16.8981   22.2583 C.ar    1  UNL1        0.1386
     25 F         -10.1930  -16.1126   21.1763 F       1  UNL1       -0.2044
@<TRIPOS>BOND
     1     2     1    1
     2     2     3    1
     3     3     4    1
     4     4     5   ar
     5     5     6   ar
     6     6     7   ar
     7     7     8   ar
     8     8     9   ar
     9     9    10   ar
    10    10    11   ar
    11    11    12   ar
    12     5    13    1
    13    13    14    1
    14    14    17    1
    15    17    18   ar
    16    18    19   ar
    17    19    20    1
    18    19    21   ar
    19    21    22    1
    20    21    23   ar
    21    23    24   ar
    22    24    25    1
    23    14     2    1
    24    24    17   ar
    25    12     4   ar
    26    12     7   ar
    27     1    15    1
    28     1    16    1
@<TRIPOS>MOLECULE
*****
 25 28 0 0 0
SMALL
GASTEIGER

@<TRIPOS>ATOM
      1 N          -6.2435  -21.1718   22.3393 N.3     1  UNL1       -0.3204
      2 C          -6.9782  -19.8675   22.2426 C.3     1  UNL1        0.0783
      3 C          -8.4278  -19.7934   22.6209 C.3     1  UNL1        0.1229
      4 N          -9.1624  -18.4892   22.5243 N.ar    1  UNL1       -0.3134
      5 C          -8.4474  -17.2590   22.0494 C.ar    1  UNL1        0.1207
      6 N          -9.4258  -16.1221   22.0573 N.ar    1  UNL1       -0.2294
      7 C         -10.7455  -16.6495   22.5371 C.ar    1  UNL1        0.1174
      8 C         -12.0744  -15.9867   22.7485 C.ar    1  UNL1        0.1194
      9 N         -13.2404  -16.7868   23.2485 N.ar    1  UNL1       -0.2406
     10 C         -13.0777  -18.2498   23.5371 C.ar    1  UNL1        0.1005
     11 C         -11.7488  -18.9126   23.3257 C.ar    1  UNL1        0.0394
     12 C         -10.5827  -18.1125   22.8257 C.ar    1  UNL1        0.0818
     13 C          -6.9977  -17.3331   21.6711 C.3     1  UNL1        0.0698
     14 C          -6.2631  -18.6373   21.7677 C.3     1  UNL1        0.0482
     15 H          -6.8783  -21.8953   22.6770 H       1  UNL1        0.1189
     16 H          -5.4625  -21.0748   22.9881 H       1  UNL1        0.1189
     17 C          -4.8135  -18.7114   21.3894 C.ar    1  UNL1        0.0091
     18 C          -4.4224  -18.9563   19.9622 C.ar    1  UNL1        0.0300
     19 C          -2.9727  -19.0304   19.5839 C.ar    1  UNL1        0.1672
     20 F          -2.5816  -19.2753   18.1567 F       1  UNL1       -0.2018
     21 C          -1.9143  -18.8596   20.6329 C.ar    1  UNL1        0.1696
     22 F          -0.4647  -18.9337   20.2546 F       1  UNL1       -0.2017
     23 C          -2.3054  -18.6148   22.0601 C.ar    1  UNL1        0.0612
     24 C          -3.7550  -18.5407   22.4384 C.ar    1  UNL1        0.1386
     25 F          -4.1461  -18.2958   23.8657 F       1  UNL1       -0.2044
@<TRIPOS>BOND
     1     2     1    1
     2     2     3    1
     3     3     4    1
     4     4     5   ar
     5     5     6   ar
     6     6     7   ar
     7     7     8   ar
     8     8     9   ar
     9     9    10   ar
    10    10    11   ar
    11    11    12   ar
    12     5    13    1
    13    13    14    1
    14    14    17    1
    15    17    18   ar
    16    18    19   ar
    17    19    20    1
    18    19    21   ar
    19    21    22    1
    20    21    23   ar
    21    23    24   ar
    22    24    25    1
    23    14     2    1
    24    24    17   ar
    25    12     4   ar
    26    12     7   ar
    27     1    15    1
    28     1    16    1
@<TRIPOS>MOLECULE
*****
 25 28 0 0 0
SMALL
GASTEIGER

@<TRIPOS>ATOM
      1 N          -4.8036  -21.0171   20.1575 N.3     1  UNL1       -0.3204
      2 C          -5.5150  -19.9899   20.9875 C.3     1  UNL1        0.0783
      3 C          -6.9071  -20.2558   21.4788 C.3     1  UNL1        0.1229
      4 N          -7.6185  -19.2286   22.3087 N.ar    1  UNL1       -0.3134
      5 C          -6.9378  -17.9356   22.6474 C.ar    1  UNL1        0.1207
      6 N          -7.8825  -17.1180   23.4775 N.ar    1  UNL1       -0.2294
      7 C          -9.1470  -17.9057   23.6519 C.ar    1  UNL1        0.1174
      8 C         -10.4259  -17.6037   24.3751 C.ar    1  UNL1        0.1194
      9 N         -11.5417  -18.6062   24.3760 N.ar    1  UNL1       -0.2406
     10 C         -11.3786  -19.9106   23.6536 C.ar    1  UNL1        0.1005
     11 C         -10.0997  -20.2126   22.9304 C.ar    1  UNL1        0.0394
     12 C          -8.9839  -19.2102   22.9295 C.ar    1  UNL1        0.0818
     13 C          -5.5456  -17.6697   22.1561 C.3     1  UNL1        0.0698
     14 C          -4.8342  -18.6969   21.3261 C.3     1  UNL1        0.0482
     15 H          -5.4096  -21.8270   20.0259 H       1  UNL1        0.1189
     16 H          -3.9487  -21.3059   20.6331 H       1  UNL1        0.1189
     17 C          -3.4421  -18.4310   20.8349 C.ar    1  UNL1        0.0091
     18 C          -3.1842  -18.2629   19.3668 C.ar    1  UNL1        0.0300
     19 C          -1.7921  -17.9970   18.8755 C.ar    1  UNL1        0.1672
     20 F          -1.5341  -17.8289   17.4075 F       1  UNL1       -0.2018
     21 C          -0.6580  -17.8993   19.8523 C.ar    1  UNL1        0.1696
     22 F           0.7342  -17.6334   19.3610 F       1  UNL1       -0.2017
     23 C          -0.9159  -18.0674   21.3203 C.ar    1  UNL1        0.0612
     24 C          -2.3080  -18.3333   21.8116 C.ar    1  UNL1        0.1386
     25 F          -2.5660  -18.5014   23.2797 F       1  UNL1       -0.2044
@<TRIPOS>BOND
     1     2     1    1
     2     2     3    1
     3     3     4    1
     4     4     5   ar
     5     5     6   ar
     6     6     7   ar
     7     7     8   ar
     8     8     9   ar
     9     9    10   ar
    10    10    11   ar
    11    11    12   ar
    12     5    13    1
    13    13    14    1
    14    14    17    1
    15    17    18   ar
    16    18    19   ar
    17    19    20    1
    18    19    21   ar
    19    21    22    1
    20    21    23   ar
    21    23    24   ar
    22    24    25    1
    23    14     2    1
    24    24    17   ar
    25    12     4   ar
    26    12     7   ar
    27     1    15    1
    28     1    16    1
@<TRIPOS>MOLECULE
*****
 25 28 0 0 0
SMALL
GASTEIGER

@<TRIPOS>ATOM
      1 N         -13.8172   -4.2101   19.9008 N.3     1  UNL1       -0.3204
      2 C         -13.2507   -3.1031   19.0618 C.3     1  UNL1        0.0783
      3 C         -13.8582   -1.7328   19.1187 C.3     1  UNL1        0.1229
      4 N         -13.2918   -0.6258   18.2798 N.ar    1  UNL1       -0.3134
      5 C         -12.1179   -0.8892   17.3839 C.ar    1  UNL1        0.1207
      6 N         -11.7777    0.3896   16.6777 N.ar    1  UNL1       -0.2294
      7 C         -12.7413    1.4434   17.1371 C.ar    1  UNL1        0.1174
      8 C         -12.8875    2.8933   16.7817 C.ar    1  UNL1        0.1194
      9 N         -13.9696    3.7156   17.4165 N.ar    1  UNL1       -0.2406
     10 C         -14.9053    3.0880   18.4067 C.ar    1  UNL1        0.1005
     11 C         -14.7591    1.6381   18.7621 C.ar    1  UNL1        0.0394
     12 C         -13.6771    0.8158   18.1273 C.ar    1  UNL1        0.0818
     13 C         -11.5104   -2.2595   17.3270 C.3     1  UNL1        0.0698
     14 C         -12.0768   -3.3665   18.1659 C.3     1  UNL1        0.0482
     15 H         -14.6049   -3.8563   20.4436 H       1  UNL1        0.1189
     16 H         -13.0976   -4.5593   20.5337 H       1  UNL1        0.1189
     17 C         -11.4693   -4.7368   18.1090 C.ar    1  UNL1        0.0091
     18 C         -10.3638   -5.1069   19.0528 C.ar    1  UNL1        0.0300
     19 C          -9.7563   -6.4772   18.9958 C.ar    1  UNL1        0.1672
     20 F          -8.6508   -6.8473   19.9396 F       1  UNL1       -0.2018
     21 C         -10.2544   -7.4774   17.9951 C.ar    1  UNL1        0.1696
     22 F          -9.6470   -8.8477   17.9382 F       1  UNL1       -0.2017
     23 C         -11.3600   -7.1073   17.0513 C.ar    1  UNL1        0.0612
     24 C         -11.9674   -5.7369   17.1082 C.ar    1  UNL1        0.1386
     25 F         -13.0730   -5.3668   16.1645 F       1  UNL1       -0.2044
@<TRIPOS>BOND
     1     2     1    1
     2     2     3    1
     3     3     4    1
     4     4     5   ar
     5     5     6   ar
     6     6     7   ar
     7     7     8   ar
     8     8     9   ar
     9     9    10   ar
    10    10    11   ar
    11    11    12   ar
    12     5    13    1
    13    13    14    1
    14    14    17    1
    15    17    18   ar
    16    18    19   ar
    17    19    20    1
    18    19    21   ar
    19    21    22    1
    20    21    23   ar
    21    23    24   ar
    22    24    25    1
    23    14     2    1
    24    24    17   ar
    25    12     4   ar
    26    12     7   ar
    27     1    15    1
    28     1    16    1
@<TRIPOS>MOLECULE
*****
 25 28 0 0 0
SMALL
GASTEIGER

@<TRIPOS>ATOM
      1 N          -4.7898  -17.0001   23.3246 N.3     1  UNL1       -0.3204
      2 C          -5.8920  -17.5933   22.4979 C.3     1  UNL1        0.0783
      3 C          -7.3230  -17.3899   22.8990 C.3     1  UNL1        0.1229
      4 N          -8.4252  -17.9830   22.0723 N.ar    1  UNL1       -0.3134
      5 C          -8.0964  -18.7795   20.8446 C.ar    1  UNL1        0.1207
      6 N          -9.3857  -19.2396   20.2315 N.ar    1  UNL1       -0.2294
      7 C         -10.5114  -18.7275   21.0803 C.ar    1  UNL1        0.1174
      8 C         -12.0003  -18.8680   20.9643 C.ar    1  UNL1        0.1194
      9 N         -12.8955  -18.2318   21.9860 N.ar    1  UNL1       -0.2406
     10 C         -12.3018  -17.4552   23.1237 C.ar    1  UNL1        0.1005
     11 C         -10.8130  -17.3147   23.2397 C.ar    1  UNL1        0.0394
     12 C          -9.9178  -17.9508   22.2180 C.ar    1  UNL1        0.0818
     13 C          -6.6653  -18.9829   20.4435 C.3     1  UNL1        0.0698
     14 C          -5.5632  -18.3898   21.2701 C.3     1  UNL1        0.0482
     15 H          -5.1914  -16.4955   24.1149 H       1  UNL1        0.1189
     16 H          -4.2441  -16.3561   22.7519 H       1  UNL1        0.1189
     17 C          -4.1322  -18.5932   20.8690 C.ar    1  UNL1        0.0091
     18 C          -3.6229  -18.0089   19.5848 C.ar    1  UNL1        0.0300
     19 C          -2.1919  -18.2123   19.1837 C.ar    1  UNL1        0.1672
     20 F          -1.6826  -17.6280   17.8995 F       1  UNL1       -0.2018
     21 C          -1.2702  -19.0000   20.0669 C.ar    1  UNL1        0.1696
     22 F           0.1608  -19.2034   19.6658 F       1  UNL1       -0.2017
     23 C          -1.7795  -19.5843   21.3511 C.ar    1  UNL1        0.0612
     24 C          -3.2105  -19.3809   21.7522 C.ar    1  UNL1        0.1386
     25 F          -3.7198  -19.9652   23.0364 F       1  UNL1       -0.2044
@<TRIPOS>BOND
     1     2     1    1
     2     2     3    1
     3     3     4    1
     4     4     5   ar
     5     5     6   ar
     6     6     7   ar
     7     7     8   ar
     8     8     9   ar
     9     9    10   ar
    10    10    11   ar
    11    11    12   ar
    12     5    13    1
    13    13    14    1
    14    14    17    1
    15    17    18   ar
    16    18    19   ar
    17    19    20    1
    18    19    21   ar
    19    21    22    1
    20    21    23   ar
    21    23    24   ar
    22    24    25    1
    23    14     2    1
    24    24    17   ar
    25    12     4   ar
    26    12     7   ar
    27     1    15    1
    28     1    16    1
@<TRIPOS>MOLECULE
*****
 25 28 0 0 0
SMALL
GASTEIGER

@<TRIPOS>ATOM
      1 N         -14.1840   -4.6935   20.1429 N.3     1  UNL1       -0.3204
      2 C         -14.7595   -5.8884   19.4421 C.3     1  UNL1        0.0783
      3 C         -16.1435   -6.3599   19.7772 C.3     1  UNL1        0.1229
      4 N         -16.7190   -7.5548   19.0765 N.ar    1  UNL1       -0.3134
      5 C         -15.9105   -8.2781   18.0406 C.ar    1  UNL1        0.1207
      6 N         -16.7366   -9.4166   17.5197 N.ar    1  UNL1       -0.2294
      7 C         -18.0557   -9.3969   18.2337 C.ar    1  UNL1        0.1174
      8 C         -19.2652  -10.2781   18.1320 C.ar    1  UNL1        0.1194
      9 N         -20.4639  -10.0086   18.9925 N.ar    1  UNL1       -0.2406
     10 C         -20.4530   -8.8579   19.9547 C.ar    1  UNL1        0.1005
     11 C         -19.2434   -7.9767   20.0564 C.ar    1  UNL1        0.0394
     12 C         -18.0448   -8.2462   19.1959 C.ar    1  UNL1        0.0818
     13 C         -14.5265   -7.8066   17.7054 C.3     1  UNL1        0.0698
     14 C         -13.9510   -6.6117   18.4062 C.3     1  UNL1        0.0482
     15 H         -14.8651   -4.3294   20.8092 H       1  UNL1        0.1189
     16 H         -13.9602   -3.9723   19.4572 H       1  UNL1        0.1189
     17 C         -12.5671   -6.1402   18.0710 C.ar    1  UNL1        0.0091
     18 C         -11.4116   -6.5223   18.9479 C.ar    1  UNL1        0.0300
     19 C         -10.0277   -6.0508   18.6127 C.ar    1  UNL1        0.1672
     20 F          -8.8722   -6.4329   19.4896 F       1  UNL1       -0.2018
     21 C          -9.7992   -5.1972   17.4007 C.ar    1  UNL1        0.1696
     22 F          -8.4152   -4.7257   17.0656 F       1  UNL1       -0.2017
     23 C         -10.9546   -4.8151   16.5238 C.ar    1  UNL1        0.0612
     24 C         -12.3386   -5.2866   16.8590 C.ar    1  UNL1        0.1386
     25 F         -13.4940   -4.9045   15.9821 F       1  UNL1       -0.2044
@<TRIPOS>BOND
     1     2     1    1
     2     2     3    1
     3     3     4    1
     4     4     5   ar
     5     5     6   ar
     6     6     7   ar
     7     7     8   ar
     8     8     9   ar
     9     9    10   ar
    10    10    11   ar
    11    11    12   ar
    12     5    13    1
    13    13    14    1
    14    14    17    1
    15    17    18   ar
    16    18    19   ar
    17    19    20    1
    18    19    21   ar
    19    21    22    1
    20    21    23   ar
    21    23    24   ar
    22    24    25    1
    23    14     2    1
    24    24    17   ar
    25    12     4   ar
    26    12     7   ar
    27     1    15    1
    28     1    16    1
