@<TRIPOS>MOLECULE
*****
 20 20 0 0 0
SMALL
GASTEIGER

@<TRIPOS>ATOM
      1 O          -8.7040  -19.9051   23.2553 O.2     1  UNL1       -0.2728
      2 C          -9.8426  -18.9418   23.4163 C.2     1  UNL1        0.2491
      3 N         -10.9774  -18.9514   22.4354 N.am    1  UNL1       -0.2728
      4 C          -9.8463  -17.9690   24.5580 C.3     1  UNL1        0.1985
      5 N          -8.8234  -16.8732   24.6131 N.ar    1  UNL1       -0.2422
      6 C          -8.2523  -16.2619   25.8581 C.ar    1  UNL1        0.1039
      7 C          -7.2679  -15.2073   25.4473 C.ar    1  UNL1        0.1255
      8 N          -7.2306  -15.1668   23.9483 N.ar    1  UNL1       -0.1607
      9 C          -8.1920  -16.1964   23.4327 C.ar    1  UNL1        0.4525
     10 N          -8.4726  -16.4965   21.9901 N.pl3   1  UNL1        0.1196
     11 O          -9.6448  -15.8584   21.3056 O.2     1  UNL1        0.0446
     12 O          -7.5809  -17.4346   21.2320 O.co2   1  UNL1       -0.5735
     13 C         -10.9736  -19.9242   21.2936 C.3     1  UNL1        0.1252
     14 C         -10.2000  -19.6140   20.0466 C.3     1  UNL1        0.1586
     15 O         -10.0052  -18.1893   19.6197 O.3     1  UNL1       -0.3802
     16 H         -10.8622  -17.8038   19.3792 H       1  UNL1        0.2105
     17 C         -12.1159  -17.9882   22.5963 C.3     1  UNL1        0.1252
     18 C         -12.9490  -17.6066   21.4088 C.3     1  UNL1        0.1586
     19 O         -12.3842  -16.6984   20.3571 O.3     1  UNL1       -0.3802
     20 H         -12.2313  -15.8192   20.7373 H       1  UNL1        0.2105
@<TRIPOS>UNITY_ATOM_ATTR
10 1
charge 1
12 1
charge -1
@<TRIPOS>BOND
     1     1     2    2
     2     2     4    1
     3     4     5    1
     4     5     6   ar
     5     6     7   ar
     6     7     8   ar
     7     8     9   ar
     8     9    10    1
     9    10    11    2
    10    10    12    1
    11     2     3   am
    12     3    13    1
    13    13    14    1
    14    14    15    1
    15     3    17    1
    16    17    18    1
    17    18    19    1
    18     9     5   ar
    19    15    16    1
    20    19    20    1
@<TRIPOS>MOLECULE
*****
 20 20 0 0 0
SMALL
GASTEIGER

@<TRIPOS>ATOM
      1 O          -9.8431  -19.9171   24.5018 O.2     1  UNL1       -0.2728
      2 C         -10.2648  -19.3149   23.1942 C.2     1  UNL1        0.2491
      3 N         -11.5764  -18.5947   23.0885 N.am    1  UNL1       -0.2728
      4 C          -9.3750  -19.4328   21.9925 C.3     1  UNL1        0.1985
      5 N          -7.9114  -19.1261   22.1100 N.ar    1  UNL1       -0.2422
      6 C          -6.7892  -20.1091   21.9536 C.ar    1  UNL1        0.1039
      7 C          -5.4973  -19.3731   22.1514 C.ar    1  UNL1        0.1255
      8 N          -5.8210  -17.9352   22.4301 N.ar    1  UNL1       -0.1607
      9 C          -7.3130  -17.7826   22.4045 C.ar    1  UNL1        0.4525
     10 N          -8.0731  -16.5098   22.6332 N.pl3   1  UNL1        0.1196
     11 O          -8.6880  -16.2340   23.9733 O.2     1  UNL1        0.0446
     12 O          -8.2182  -15.5129   21.5219 O.co2   1  UNL1       -0.5735
     13 C         -12.4662  -18.4767   24.2904 C.3     1  UNL1        0.1252
     14 C         -13.9035  -18.0814   24.1234 C.3     1  UNL1        0.1586
     15 O         -14.9301  -18.5509   25.1112 O.3     1  UNL1       -0.3802
     16 H         -15.0190  -19.5149   25.0516 H       1  UNL1        0.2105
     17 C         -11.9981  -17.9924   21.7811 C.3     1  UNL1        0.1252
     18 C         -11.7235  -16.5450   21.4988 C.3     1  UNL1        0.1586
     19 O         -11.2227  -15.6494   22.5928 O.3     1  UNL1       -0.3802
     20 H         -11.9081  -15.5550   23.2726 H       1  UNL1        0.2105
@<TRIPOS>UNITY_ATOM_ATTR
10 1
charge 1
12 1
charge -1
@<TRIPOS>BOND
     1     1     2    2
     2     2     4    1
     3     4     5    1
     4     5     6   ar
     5     6     7   ar
     6     7     8   ar
     7     8     9   ar
     8     9    10    1
     9    10    11    2
    10    10    12    1
    11     2     3   am
    12     3    13    1
    13    13    14    1
    14    14    15    1
    15     3    17    1
    16    17    18    1
    17    18    19    1
    18     9     5   ar
    19    15    16    1
    20    19    20    1
@<TRIPOS>MOLECULE
*****
 20 20 0 0 0
SMALL
GASTEIGER

@<TRIPOS>ATOM
      1 O          -8.7948  -18.9139   19.3015 O.2     1  UNL1       -0.2728
      2 C          -9.3255  -18.8891   20.7043 C.2     1  UNL1        0.2491
      3 N         -10.6368  -18.2227   20.9984 N.am    1  UNL1       -0.2728
      4 C          -8.5450  -19.5307   21.8129 C.3     1  UNL1        0.1985
      5 N          -7.1435  -19.0808   22.1013 N.ar    1  UNL1       -0.2422
      6 C          -5.9053  -19.9184   21.9772 C.ar    1  UNL1        0.1039
      7 C          -4.7306  -19.0695   22.3637 C.ar    1  UNL1        0.1255
      8 N          -5.2427  -17.7072   22.7267 N.ar    1  UNL1       -0.1607
      9 C          -6.7339  -17.7142   22.5646 C.ar    1  UNL1        0.4525
     10 N          -7.6540  -16.5575   22.8207 N.pl3   1  UNL1        0.1196
     11 O          -8.0991  -15.6871   21.6832 O.2     1  UNL1        0.0446
     12 O          -8.1290  -16.2714   24.2145 O.co2   1  UNL1       -0.5735
     13 C         -11.4173  -17.5811   19.8897 C.3     1  UNL1        0.1252
     14 C         -11.3404  -16.0979   19.6792 C.3     1  UNL1        0.1586
     15 O         -12.4212  -15.3917   18.9156 O.3     1  UNL1       -0.3802
     16 H         -12.4105  -15.6875   17.9918 H       1  UNL1        0.2105
     17 C         -11.1675  -18.1979   22.4011 C.3     1  UNL1        0.1252
     18 C         -11.6939  -16.9188   22.9814 C.3     1  UNL1        0.1586
     19 O         -10.8044  -15.7143   23.0718 O.3     1  UNL1       -0.3802
     20 H         -10.0833  -15.8911   23.6960 H       1  UNL1        0.2105
@<TRIPOS>UNITY_ATOM_ATTR
10 1
charge 1
12 1
charge -1
@<TRIPOS>BOND
     1     1     2    2
     2     2     4    1
     3     4     5    1
     4     5     6   ar
     5     6     7   ar
     6     7     8   ar
     7     8     9   ar
     8     9    10    1
     9    10    11    2
    10    10    12    1
    11     2     3   am
    12     3    13    1
    13    13    14    1
    14    14    15    1
    15     3    17    1
    16    17    18    1
    17    18    19    1
    18     9     5   ar
    19    15    16    1
    20    19    20    1
@<TRIPOS>MOLECULE
*****
 20 20 0 0 0
SMALL
GASTEIGER

@<TRIPOS>ATOM
      1 O          -7.5997  -16.8864   21.6616 O.2     1  UNL1       -0.2728
      2 C          -8.3184  -17.1467   22.9523 C.2     1  UNL1        0.2491
      3 N          -8.0827  -16.2546   24.1350 N.am    1  UNL1       -0.2728
      4 C          -9.2726  -18.2989   23.0603 C.3     1  UNL1        0.1985
      5 N         -10.7426  -18.0765   22.8613 N.ar    1  UNL1       -0.2422
      6 C         -11.8089  -18.2457   23.9026 C.ar    1  UNL1        0.1039
      7 C         -13.1298  -17.9196   23.2709 C.ar    1  UNL1        0.1255
      8 N         -12.8798  -17.5488   21.8391 N.ar    1  UNL1       -0.1607
      9 C         -11.4045  -17.6458   21.5860 C.ar    1  UNL1        0.4525
     10 N         -10.7125  -17.3618   20.2857 N.pl3   1  UNL1        0.1196
     11 O          -9.9283  -18.4422   19.6019 O.2     1  UNL1        0.0446
     12 O         -10.8048  -15.9974   19.6694 O.co2   1  UNL1       -0.5735
     13 C          -7.1284  -15.1024   24.0270 C.3     1  UNL1        0.1252
     14 C          -5.6512  -15.3394   24.1348 C.3     1  UNL1        0.1586
     15 O          -4.9905  -16.3650   23.2621 O.3     1  UNL1       -0.3802
     16 H          -5.3143  -17.2481   23.4992 H       1  UNL1        0.2105
     17 C          -8.8013  -16.5149   25.4257 C.3     1  UNL1        0.1252
     18 C          -8.1258  -16.2218   26.7325 C.3     1  UNL1        0.1586
     19 O          -8.2080  -14.8474   27.3277 O.3     1  UNL1       -0.3802
     20 H          -7.7375  -14.2195   26.7574 H       1  UNL1        0.2105
@<TRIPOS>UNITY_ATOM_ATTR
10 1
charge 1
12 1
charge -1
@<TRIPOS>BOND
     1     1     2    2
     2     2     4    1
     3     4     5    1
     4     5     6   ar
     5     6     7   ar
     6     7     8   ar
     7     8     9   ar
     8     9    10    1
     9    10    11    2
    10    10    12    1
    11     2     3   am
    12     3    13    1
    13    13    14    1
    14    14    15    1
    15     3    17    1
    16    17    18    1
    17    18    19    1
    18     9     5   ar
    19    15    16    1
    20    19    20    1
@<TRIPOS>MOLECULE
*****
 20 20 0 0 0
SMALL
GASTEIGER

@<TRIPOS>ATOM
      1 O         -10.7873  -16.2996   23.2184 O.2     1  UNL1       -0.2728
      2 C         -10.5707  -17.6639   22.6335 C.2     1  UNL1        0.2491
      3 N         -11.2910  -18.0657   21.3807 N.am    1  UNL1       -0.2728
      4 C          -9.6339  -18.6262   23.3015 C.3     1  UNL1        0.1985
      5 N          -8.2304  -18.7805   22.7950 N.ar    1  UNL1       -0.2422
      6 C          -7.5628  -20.0725   22.4275 C.ar    1  UNL1        0.1039
      7 C          -6.1679  -19.7605   21.9725 C.ar    1  UNL1        0.1255
      8 N          -5.9735  -18.2756   22.0586 N.ar    1  UNL1       -0.1607
      9 C          -7.2482  -17.6700   22.5670 C.ar    1  UNL1        0.4525
     10 N          -7.4970  -16.2101   22.8054 N.pl3   1  UNL1        0.1196
     11 O          -7.3363  -15.6370   24.1823 O.2     1  UNL1        0.0446
     12 O          -7.9064  -15.3233   21.6670 O.co2   1  UNL1       -0.5735
     13 C         -12.2279  -17.1033   20.7127 C.3     1  UNL1        0.1252
     14 C         -11.6902  -16.0561   19.7831 C.3     1  UNL1        0.1586
     15 O         -12.6164  -15.3355   18.8489 O.3     1  UNL1       -0.3802
     16 H         -12.9722  -15.9619   18.1993 H       1  UNL1        0.2105
     17 C         -11.0745  -19.4299   20.7958 C.3     1  UNL1        0.1252
     18 C         -10.0882  -19.6204   19.6818 C.3     1  UNL1        0.1586
     19 O          -8.9561  -18.6518   19.5086 O.3     1  UNL1       -0.3802
     20 H          -9.3094  -17.7817   19.2655 H       1  UNL1        0.2105
@<TRIPOS>UNITY_ATOM_ATTR
10 1
charge 1
12 1
charge -1
@<TRIPOS>BOND
     1     1     2    2
     2     2     4    1
     3     4     5    1
     4     5     6   ar
     5     6     7   ar
     6     7     8   ar
     7     8     9   ar
     8     9    10    1
     9    10    11    2
    10    10    12    1
    11     2     3   am
    12     3    13    1
    13    13    14    1
    14    14    15    1
    15     3    17    1
    16    17    18    1
    17    18    19    1
    18     9     5   ar
    19    15    16    1
    20    19    20    1
@<TRIPOS>MOLECULE
*****
 20 20 0 0 0
SMALL
GASTEIGER

@<TRIPOS>ATOM
      1 O          -7.1703  -18.8776   19.6928 O.2     1  UNL1       -0.2728
      2 C          -6.4839  -19.0579   21.0144 C.2     1  UNL1        0.2491
      3 N          -4.9918  -19.2014   21.0710 N.am    1  UNL1       -0.2728
      4 C          -7.2894  -19.0946   22.2791 C.3     1  UNL1        0.1985
      5 N          -8.6567  -18.4789   22.3156 N.ar    1  UNL1       -0.2422
      6 C          -9.9571  -19.2230   22.3887 C.ar    1  UNL1        0.1039
      7 C         -11.0678  -18.2149   22.4036 C.ar    1  UNL1        0.1255
      8 N         -10.4539  -16.8478   22.3398 N.ar    1  UNL1       -0.1607
      9 C          -8.9638  -17.0110   22.2854 C.ar    1  UNL1        0.4525
     10 N          -7.9574  -15.9010   22.2135 N.pl3   1  UNL1        0.1196
     11 O          -6.8239  -15.8515   23.1946 O.2     1  UNL1        0.0446
     12 O          -8.0845  -14.8404   21.1603 O.co2   1  UNL1       -0.5735
     13 C          -4.1862  -19.1647   19.8062 C.3     1  UNL1        0.1252
     14 C          -2.8460  -18.4913   19.7899 C.3     1  UNL1        0.1586
     15 O          -2.7433  -17.0186   20.0551 O.3     1  UNL1       -0.3802
     16 H          -3.1791  -16.5300   19.3393 H       1  UNL1        0.2105
     17 C          -4.3053  -19.3817   22.3924 C.3     1  UNL1        0.1252
     18 C          -3.8801  -18.1823   23.1865 C.3     1  UNL1        0.1586
     19 O          -4.1820  -16.8027   22.6811 O.3     1  UNL1       -0.3802
     20 H          -3.6841  -16.6414   21.8643 H       1  UNL1        0.2105
@<TRIPOS>UNITY_ATOM_ATTR
10 1
charge 1
12 1
charge -1
@<TRIPOS>BOND
     1     1     2    2
     2     2     4    1
     3     4     5    1
     4     5     6   ar
     5     6     7   ar
     6     7     8   ar
     7     8     9   ar
     8     9    10    1
     9    10    11    2
    10    10    12    1
    11     2     3   am
    12     3    13    1
    13    13    14    1
    14    14    15    1
    15     3    17    1
    16    17    18    1
    17    18    19    1
    18     9     5   ar
    19    15    16    1
    20    19    20    1
@<TRIPOS>MOLECULE
*****
 20 20 0 0 0
SMALL
GASTEIGER

@<TRIPOS>ATOM
      1 O          -9.7027  -17.8070   25.0131 O.2     1  UNL1       -0.2728
      2 C         -10.1763  -17.1349   23.7585 C.2     1  UNL1        0.2491
      3 N         -11.5507  -17.4187   23.2287 N.am    1  UNL1       -0.2728
      4 C          -9.2757  -16.1791   23.0338 C.3     1  UNL1        0.1985
      5 N          -7.7993  -16.1930   23.2980 N.ar    1  UNL1       -0.2422
      6 C          -7.0425  -15.1980   24.1270 C.ar    1  UNL1        0.1039
      7 C          -5.5958  -15.5943   24.1209 C.ar    1  UNL1        0.1255
      8 N          -5.4585  -16.8343   23.2882 N.ar    1  UNL1       -0.1607
      9 C          -6.8203  -17.2043   22.7796 C.ar    1  UNL1        0.4525
     10 N          -7.1459  -18.3794   21.9060 N.pl3   1  UNL1        0.1196
     11 O          -6.8639  -18.3205   20.4339 O.2     1  UNL1        0.0446
     12 O          -7.7534  -19.6134   22.5044 O.co2   1  UNL1       -0.5735
     13 C         -12.4513  -18.3746   23.9535 C.3     1  UNL1        0.1252
     14 C         -13.8989  -18.0362   24.1533 C.3     1  UNL1        0.1586
     15 O         -14.6341  -18.5631   25.3498 O.3     1  UNL1       -0.3802
     16 H         -14.7001  -19.5289   25.2892 H       1  UNL1        0.2105
     17 C         -12.0244  -16.7467   21.9741 C.3     1  UNL1        0.1252
     18 C         -11.9127  -17.4542   20.6562 C.3     1  UNL1        0.1586
     19 O         -10.6999  -17.2523   19.7970 O.3     1  UNL1       -0.3802
     20 H         -10.6703  -16.3325   19.4904 H       1  UNL1        0.2105
@<TRIPOS>UNITY_ATOM_ATTR
10 1
charge 1
12 1
charge -1
@<TRIPOS>BOND
     1     1     2    2
     2     2     4    1
     3     4     5    1
     4     5     6   ar
     5     6     7   ar
     6     7     8   ar
     7     8     9   ar
     8     9    10    1
     9    10    11    2
    10    10    12    1
    11     2     3   am
    12     3    13    1
    13    13    14    1
    14    14    15    1
    15     3    17    1
    16    17    18    1
    17    18    19    1
    18     9     5   ar
    19    15    16    1
    20    19    20    1
@<TRIPOS>MOLECULE
*****
 20 20 0 0 0
SMALL
GASTEIGER

@<TRIPOS>ATOM
      1 O          -8.6997  -15.0054   21.1604 O.2     1  UNL1       -0.2728
      2 C          -9.0327  -16.2013   22.0025 C.2     1  UNL1        0.2491
      3 N         -10.4392  -16.7207   22.0447 N.am    1  UNL1       -0.2728
      4 C          -7.9591  -16.8777   22.8023 C.3     1  UNL1        0.1985
      5 N          -7.5091  -16.2861   24.1052 N.ar    1  UNL1       -0.2422
      6 C          -8.3569  -16.0997   25.3285 C.ar    1  UNL1        0.1039
      7 C          -7.5041  -15.4754   26.3929 C.ar    1  UNL1        0.1255
      8 N          -6.1292  -15.2759   25.8274 N.ar    1  UNL1       -0.1607
      9 C          -6.1323  -15.7769   24.4135 C.ar    1  UNL1        0.4525
     10 N          -4.9637  -15.7700   23.4732 N.pl3   1  UNL1        0.1196
     11 O          -4.2231  -17.0428   23.1877 O.2     1  UNL1        0.0446
     12 O          -4.5356  -14.4902   22.8182 O.co2   1  UNL1       -0.5735
     13 C         -11.5129  -16.0442   21.2448 C.3     1  UNL1        0.1252
     14 C         -11.4888  -16.1146   19.7466 C.3     1  UNL1        0.1586
     15 O         -10.7640  -15.0646   18.9580 O.3     1  UNL1       -0.3802
     16 H         -11.2077  -14.2098   19.0732 H       1  UNL1        0.2105
     17 C         -10.7722  -17.9165   22.8867 C.3     1  UNL1        0.1252
     18 C         -11.1933  -19.1997   22.2340 C.3     1  UNL1        0.1586
     19 O         -10.7396  -19.5161   20.8397 O.3     1  UNL1       -0.3802
     20 H         -11.1330  -18.8820   20.2200 H       1  UNL1        0.2105
@<TRIPOS>UNITY_ATOM_ATTR
10 1
charge 1
12 1
charge -1
@<TRIPOS>BOND
     1     1     2    2
     2     2     4    1
     3     4     5    1
     4     5     6   ar
     5     6     7   ar
     6     7     8   ar
     7     8     9   ar
     8     9    10    1
     9    10    11    2
    10    10    12    1
    11     2     3   am
    12     3    13    1
    13    13    14    1
    14    14    15    1
    15     3    17    1
    16    17    18    1
    17    18    19    1
    18     9     5   ar
    19    15    16    1
    20    19    20    1
@<TRIPOS>MOLECULE
*****
 20 20 0 0 0
SMALL
GASTEIGER

@<TRIPOS>ATOM
      1 O          -7.8294  -15.3853   21.3742 O.2     1  UNL1       -0.2728
      2 C          -8.5198  -15.8703   22.6145 C.2     1  UNL1        0.2491
      3 N          -7.8254  -15.7849   23.9414 N.am    1  UNL1       -0.2728
      4 C          -9.9044  -16.4405   22.5279 C.3     1  UNL1        0.1985
      5 N         -10.2128  -17.5121   21.5246 N.ar    1  UNL1       -0.2422
      6 C          -9.8400  -18.9605   21.6387 C.ar    1  UNL1        0.1039
      7 C         -10.3450  -19.6669   20.4156 C.ar    1  UNL1        0.1255
      8 N         -11.0299  -18.6551   19.5455 N.ar    1  UNL1       -0.1607
      9 C         -10.9482  -17.3233   20.2309 C.ar    1  UNL1        0.4525
     10 N         -11.5043  -16.0299   19.7134 N.pl3   1  UNL1        0.1196
     11 O         -12.9799  -15.7684   19.7785 O.2     1  UNL1        0.0446
     12 O         -10.5848  -14.9978   19.1309 O.co2   1  UNL1       -0.5735
     13 C          -6.4407  -15.2146   24.0280 C.3     1  UNL1        0.1252
     14 C          -5.2608  -16.1290   24.1749 C.3     1  UNL1        0.1586
     15 O          -4.7186  -16.8521   22.9777 O.3     1  UNL1       -0.3802
     16 H          -5.3779  -17.4877   22.6580 H       1  UNL1        0.2105
     17 C          -8.5157  -16.2698   25.1817 C.3     1  UNL1        0.1252
     18 C          -7.9956  -15.8757   26.5323 C.3     1  UNL1        0.1586
     19 O          -8.5903  -16.4788   27.7703 O.3     1  UNL1       -0.3802
     20 H          -9.5117  -16.1893   27.8604 H       1  UNL1        0.2105
@<TRIPOS>UNITY_ATOM_ATTR
10 1
charge 1
12 1
charge -1
@<TRIPOS>BOND
     1     1     2    2
     2     2     4    1
     3     4     5    1
     4     5     6   ar
     5     6     7   ar
     6     7     8   ar
     7     8     9   ar
     8     9    10    1
     9    10    11    2
    10    10    12    1
    11     2     3   am
    12     3    13    1
    13    13    14    1
    14    14    15    1
    15     3    17    1
    16    17    18    1
    17    18    19    1
    18     9     5   ar
    19    15    16    1
    20    19    20    1
