@<TRIPOS>MOLECULE
*****
 32 36 0 0 0
SMALL
GASTEIGER

@<TRIPOS>ATOM
      1 O           5.3010    2.4193   34.3001 O.2     1  UNL1       -0.2522
      2 C           4.3670    1.2634   34.0958 C.2     1  UNL1        0.3078
      3 N           2.9215    1.3911   34.4754 N.am    1  UNL1       -0.2674
      4 N           4.8785   -0.0201   33.5120 N.am    1  UNL1       -0.2605
      5 C           6.3241   -0.1477   33.1323 C.3     1  UNL1        0.1165
      6 C           6.8356   -1.4313   32.5485 C.3     1  UNL1        0.1167
      7 N           5.9015   -2.5871   32.3442 N.pl3   1  UNL1       -0.2585
      8 C           4.4560   -2.4594   32.7238 C.3     1  UNL1        0.1167
      9 C           3.9445   -1.1759   33.3077 C.3     1  UNL1        0.1165
     10 H           2.3085    0.6325   34.3414 H       1  UNL1        0.1564
     11 C           2.4099    2.6747   35.0593 C.ar    1  UNL1        0.0622
     12 C           1.8379    3.7316   34.1617 C.ar    1  UNL1        0.0156
     13 C           1.3264    5.0151   34.7456 C.ar    1  UNL1        0.0013
     14 C           1.3868    5.2417   36.2272 C.ar    1  UNL1        0.0009
     15 C           1.9587    4.1848   37.1248 C.ar    1  UNL1        0.0126
     16 C           2.4703    2.9013   36.5409 C.ar    1  UNL1        0.0711
     17 CL          3.0423    1.8443   37.4386 Cl      1  UNL1       -0.0810
     18 C           6.4131   -3.8706   31.7603 C.ar    1  UNL1        0.3186
     19 N           6.9068   -4.0661   30.3574 N.ar    1  UNL1       -0.1721
     20 C           7.3195   -5.5003   30.2070 C.ar    1  UNL1        0.2224
     21 N           7.0809   -6.1912   31.5168 N.ar    1  UNL1       -0.0524
     22 O           6.5207   -5.1841   32.4768 O.2     1  UNL1       -0.3163
     23 C           7.8736   -6.1326   28.9646 C.ar    1  UNL1        0.1203
     24 C           8.8384   -7.2762   29.0714 C.ar    1  UNL1        0.0224
     25 C           9.3925   -7.9085   27.8292 C.ar    1  UNL1        0.0031
     26 C           8.9819   -7.3971   26.4801 C.ar    1  UNL1        0.0177
     27 C           9.5360   -8.0294   25.2379 C.ar    1  UNL1        0.0015
     28 C           9.1253   -7.5180   23.8889 C.ar    1  UNL1        0.0001
     29 C           8.1606   -6.3744   23.7821 C.ar    1  UNL1        0.0015
     30 C           7.6065   -5.7421   25.0243 C.ar    1  UNL1        0.0191
     31 C           8.0171   -6.2535   26.3733 C.ar    1  UNL1        0.0814
     32 N           7.4630   -5.6212   27.6156 N.ar    1  UNL1       -0.2422
@<TRIPOS>BOND
     1     1     2    2
     2     2     3   am
     3     3    11    1
     4    11    12   ar
     5    12    13   ar
     6    13    14   ar
     7    14    15   ar
     8    15    16   ar
     9    16    17    1
    10     2     4   am
    11     4     5    1
    12     5     6    1
    13     6     7    1
    14     7    18    1
    15    18    19   ar
    16    19    20   ar
    17    20    23    1
    18    23    24   ar
    19    24    25   ar
    20    25    26   ar
    21    26    27   ar
    22    27    28   ar
    23    28    29   ar
    24    29    30   ar
    25    30    31   ar
    26    31    32   ar
    27    20    21   ar
    28    21    22   ar
    29     7     8    1
    30     8     9    1
    31    16    11   ar
    32     9     4    1
    33    22    18   ar
    34    32    23   ar
    35    31    26   ar
    36     3    10    1
@<TRIPOS>MOLECULE
*****
 32 36 0 0 0
SMALL
GASTEIGER

@<TRIPOS>ATOM
      1 O           6.9248   -5.0413   22.7270 O.2     1  UNL1       -0.2522
      2 C           6.3203   -3.8685   23.4406 C.2     1  UNL1        0.3078
      3 N           5.5617   -2.8303   22.6682 N.am    1  UNL1       -0.2674
      4 N           6.4744   -3.7340   24.9266 N.am    1  UNL1       -0.2605
      5 C           7.2330   -4.7722   25.6989 C.3     1  UNL1        0.1165
      6 C           7.3871   -4.6377   27.1849 C.3     1  UNL1        0.1167
      7 N           6.7826   -3.4649   27.8985 N.pl3   1  UNL1       -0.2585
      8 C           6.0240   -2.4266   27.1261 C.3     1  UNL1        0.1167
      9 C           5.8699   -2.5612   25.6401 C.3     1  UNL1        0.1165
     10 H           5.1649   -2.0606   23.1366 H       1  UNL1        0.1564
     11 C           5.4075   -2.9649   21.1822 C.ar    1  UNL1        0.0622
     12 C           4.3103   -3.8166   20.6160 C.ar    1  UNL1        0.0156
     13 C           4.1562   -3.9512   19.1301 C.ar    1  UNL1        0.0013
     14 C           5.0993   -3.2339   18.2102 C.ar    1  UNL1        0.0009
     15 C           6.1965   -2.3821   18.7764 C.ar    1  UNL1        0.0126
     16 C           6.3506   -2.2476   20.2623 C.ar    1  UNL1        0.0711
     17 CL          7.4479   -1.3957   20.8286 Cl      1  UNL1       -0.0810
     18 C           6.9368   -3.3303   29.3844 C.ar    1  UNL1        0.3186
     19 N           6.1384   -2.4252   30.2753 N.ar    1  UNL1       -0.1721
     20 C           6.6246   -2.6128   31.6819 C.ar    1  UNL1        0.2224
     21 N           7.7233   -3.6337   31.6604 N.ar    1  UNL1       -0.0524
     22 O           7.9163   -4.0772   30.2405 O.2     1  UNL1       -0.3163
     23 C           6.1034   -1.9038   32.8968 C.ar    1  UNL1        0.1203
     24 C           4.6869   -2.1189   33.3407 C.ar    1  UNL1        0.0224
     25 C           4.1657   -1.4100   34.5555 C.ar    1  UNL1        0.0031
     26 C           5.0611   -0.4858   35.3264 C.ar    1  UNL1        0.0177
     27 C           4.5399    0.2231   36.5412 C.ar    1  UNL1        0.0015
     28 C           5.4353    1.1472   37.3121 C.ar    1  UNL1        0.0001
     29 C           6.8519    1.3623   36.8682 C.ar    1  UNL1        0.0015
     30 C           7.3731    0.6534   35.6534 C.ar    1  UNL1        0.0191
     31 C           6.4777   -0.2707   34.8825 C.ar    1  UNL1        0.0814
     32 N           6.9988   -0.9797   33.6677 N.ar    1  UNL1       -0.2422
@<TRIPOS>BOND
     1     1     2    2
     2     2     3   am
     3     3    11    1
     4    11    12   ar
     5    12    13   ar
     6    13    14   ar
     7    14    15   ar
     8    15    16   ar
     9    16    17    1
    10     2     4   am
    11     4     5    1
    12     5     6    1
    13     6     7    1
    14     7    18    1
    15    18    19   ar
    16    19    20   ar
    17    20    23    1
    18    23    24   ar
    19    24    25   ar
    20    25    26   ar
    21    26    27   ar
    22    27    28   ar
    23    28    29   ar
    24    29    30   ar
    25    30    31   ar
    26    31    32   ar
    27    20    21   ar
    28    21    22   ar
    29     7     8    1
    30     8     9    1
    31    16    11   ar
    32     9     4    1
    33    22    18   ar
    34    32    23   ar
    35    31    26   ar
    36     3    10    1
@<TRIPOS>MOLECULE
*****
 32 36 0 0 0
SMALL
GASTEIGER

@<TRIPOS>ATOM
      1 O           5.8643   -1.5754   22.0132 O.2     1  UNL1       -0.2522
      2 C           4.6691   -0.7643   22.4175 C.2     1  UNL1        0.3078
      3 N           3.8951   -0.0023   21.3829 N.am    1  UNL1       -0.2674
      4 N           4.2477   -0.7152   23.8562 N.am    1  UNL1       -0.2605
      5 C           5.0217   -1.4772   24.8907 C.3     1  UNL1        0.1165
      6 C           4.6004   -1.4281   26.3295 C.3     1  UNL1        0.1167
      7 N           3.4051   -0.6170   26.7337 N.pl3   1  UNL1       -0.2585
      8 C           2.6311    0.1450   25.6992 C.3     1  UNL1        0.1167
      9 C           3.0524    0.0959   24.2604 C.3     1  UNL1        0.1165
     10 H           3.1106    0.5301   21.6482 H       1  UNL1        0.1564
     11 C           4.3164   -0.0513   19.9441 C.ar    1  UNL1        0.0622
     12 C           5.1081    1.0786   19.3555 C.ar    1  UNL1        0.0156
     13 C           5.5294    1.0295   17.9167 C.ar    1  UNL1        0.0013
     14 C           5.1590   -0.1495   17.0665 C.ar    1  UNL1        0.0009
     15 C           4.3673   -1.2795   17.6552 C.ar    1  UNL1        0.0126
     16 C           3.9460   -1.2304   19.0939 C.ar    1  UNL1        0.0711
     17 CL          3.1543   -2.3603   19.6826 Cl      1  UNL1       -0.0810
     18 C           2.9837   -0.5679   28.1725 C.ar    1  UNL1        0.3186
     19 N           3.9004   -0.5573   29.3598 N.ar    1  UNL1       -0.1721
     20 C           3.0549   -0.5037   30.5977 C.ar    1  UNL1        0.2224
     21 N           1.6157   -0.4811   30.1754 N.ar    1  UNL1       -0.0524
     22 O           1.5717   -0.5208   28.6766 O.2     1  UNL1       -0.3163
     23 C           3.5600   -0.4772   32.0099 C.ar    1  UNL1        0.1203
     24 C           4.2888   -1.6635   32.5681 C.ar    1  UNL1        0.0224
     25 C           4.7939   -1.6371   33.9802 C.ar    1  UNL1        0.0031
     26 C           4.5702   -0.4243   34.8342 C.ar    1  UNL1        0.0177
     27 C           5.0753   -0.3979   36.2463 C.ar    1  UNL1        0.0015
     28 C           4.8516    0.8148   37.1003 C.ar    1  UNL1        0.0001
     29 C           4.1228    2.0011   36.5421 C.ar    1  UNL1        0.0015
     30 C           3.6177    1.9747   35.1300 C.ar    1  UNL1        0.0191
     31 C           3.8414    0.7620   34.2760 C.ar    1  UNL1        0.0814
     32 N           3.3363    0.7355   32.8638 N.ar    1  UNL1       -0.2422
@<TRIPOS>BOND
     1     1     2    2
     2     2     3   am
     3     3    11    1
     4    11    12   ar
     5    12    13   ar
     6    13    14   ar
     7    14    15   ar
     8    15    16   ar
     9    16    17    1
    10     2     4   am
    11     4     5    1
    12     5     6    1
    13     6     7    1
    14     7    18    1
    15    18    19   ar
    16    19    20   ar
    17    20    23    1
    18    23    24   ar
    19    24    25   ar
    20    25    26   ar
    21    26    27   ar
    22    27    28   ar
    23    28    29   ar
    24    29    30   ar
    25    30    31   ar
    26    31    32   ar
    27    20    21   ar
    28    21    22   ar
    29     7     8    1
    30     8     9    1
    31    16    11   ar
    32     9     4    1
    33    22    18   ar
    34    32    23   ar
    35    31    26   ar
    36     3    10    1
@<TRIPOS>MOLECULE
*****
 32 36 0 0 0
SMALL
GASTEIGER

@<TRIPOS>ATOM
      1 O           2.9565   -0.3418   21.8263 O.2     1  UNL1       -0.2522
      2 C           3.6388   -1.1281   22.9063 C.2     1  UNL1        0.3078
      3 N           4.5935   -2.2271   22.5448 N.am    1  UNL1       -0.2674
      4 N           3.3663   -0.8154   24.3478 N.am    1  UNL1       -0.2605
      5 C           2.4116    0.2836   24.7094 C.3     1  UNL1        0.1165
      6 C           2.1391    0.5963   26.1509 C.3     1  UNL1        0.1167
      7 N           2.8214   -0.1901   27.2308 N.pl3   1  UNL1       -0.2585
      8 C           3.7761   -1.2891   26.8693 C.3     1  UNL1        0.1167
      9 C           4.0485   -1.6017   25.4278 C.3     1  UNL1        0.1165
     10 H           5.0412   -2.7432   23.2536 H       1  UNL1        0.1564
     11 C           4.8660   -2.5398   21.1032 C.ar    1  UNL1        0.0622
     12 C           4.1189   -3.6479   20.4219 C.ar    1  UNL1        0.0156
     13 C           4.3915   -3.9606   18.9804 C.ar    1  UNL1        0.0013
     14 C           5.4110   -3.1652   18.2202 C.ar    1  UNL1        0.0009
     15 C           6.1581   -2.0571   18.9015 C.ar    1  UNL1        0.0126
     16 C           5.8855   -1.7445   20.3430 C.ar    1  UNL1        0.0711
     17 CL          6.6326   -0.6364   21.0243 Cl      1  UNL1       -0.0810
     18 C           2.5489    0.1226   28.6723 C.ar    1  UNL1        0.3186
     19 N           3.4579   -0.1785   29.8270 N.ar    1  UNL1       -0.1721
     20 C           2.7903    0.3041   31.0805 C.ar    1  UNL1        0.2224
     21 N           1.4688    0.9035   30.7007 N.ar    1  UNL1       -0.0524
     22 O           1.3195    0.7913   29.2124 O.2     1  UNL1       -0.3163
     23 C           3.3467    0.2048   32.4700 C.ar    1  UNL1        0.1203
     24 C           4.1048   -1.0201   32.8886 C.ar    1  UNL1        0.0224
     25 C           4.6612   -1.1194   34.2780 C.ar    1  UNL1        0.0031
     26 C           4.4595    0.0060   35.2489 C.ar    1  UNL1        0.0177
     27 C           5.0159   -0.0934   36.6383 C.ar    1  UNL1        0.0015
     28 C           4.8142    1.0321   37.6092 C.ar    1  UNL1        0.0001
     29 C           4.0562    2.2569   37.1907 C.ar    1  UNL1        0.0015
     30 C           3.4998    2.3563   35.8013 C.ar    1  UNL1        0.0191
     31 C           3.7015    1.2309   34.8304 C.ar    1  UNL1        0.0814
     32 N           3.1451    1.3302   33.4409 N.ar    1  UNL1       -0.2422
@<TRIPOS>BOND
     1     1     2    2
     2     2     3   am
     3     3    11    1
     4    11    12   ar
     5    12    13   ar
     6    13    14   ar
     7    14    15   ar
     8    15    16   ar
     9    16    17    1
    10     2     4   am
    11     4     5    1
    12     5     6    1
    13     6     7    1
    14     7    18    1
    15    18    19   ar
    16    19    20   ar
    17    20    23    1
    18    23    24   ar
    19    24    25   ar
    20    25    26   ar
    21    26    27   ar
    22    27    28   ar
    23    28    29   ar
    24    29    30   ar
    25    30    31   ar
    26    31    32   ar
    27    20    21   ar
    28    21    22   ar
    29     7     8    1
    30     8     9    1
    31    16    11   ar
    32     9     4    1
    33    22    18   ar
    34    32    23   ar
    35    31    26   ar
    36     3    10    1
@<TRIPOS>MOLECULE
*****
 32 36 0 0 0
SMALL
GASTEIGER

@<TRIPOS>ATOM
      1 O           5.6724   -4.2305   22.2781 O.2     1  UNL1       -0.2522
      2 C           5.6801   -3.5866   23.6329 C.2     1  UNL1        0.3078
      3 N           6.5735   -4.1216   24.7125 N.am    1  UNL1       -0.2674
      4 N           4.7945   -2.4076   23.9080 N.am    1  UNL1       -0.2605
      5 C           3.9012   -1.8726   22.8284 C.3     1  UNL1        0.1165
      6 C           3.0156   -0.6936   23.1035 C.3     1  UNL1        0.1167
      7 N           3.0233   -0.0497   24.4583 N.pl3   1  UNL1       -0.2585
      8 C           3.9167   -0.5847   25.5379 C.3     1  UNL1        0.1167
      9 C           4.8023   -1.7637   25.2628 C.3     1  UNL1        0.1165
     10 H           6.5786   -3.6990   25.6017 H       1  UNL1        0.1564
     11 C           7.4592   -5.3007   24.4374 C.ar    1  UNL1        0.0622
     12 C           8.2937   -5.3373   23.1915 C.ar    1  UNL1        0.0156
     13 C           9.1793   -6.5163   22.9165 C.ar    1  UNL1        0.0013
     14 C           9.2304   -7.6586   23.8873 C.ar    1  UNL1        0.0009
     15 C           8.3959   -7.6220   25.1332 C.ar    1  UNL1        0.0126
     16 C           7.5103   -6.4430   25.4083 C.ar    1  UNL1        0.0711
     17 CL          6.6757   -6.4063   26.6542 Cl      1  UNL1       -0.0810
     18 C           2.1377    1.1293   24.7334 C.ar    1  UNL1        0.3186
     19 N           0.6378    1.1290   24.7136 N.ar    1  UNL1       -0.1721
     20 C           0.1696    2.5151   25.0446 C.ar    1  UNL1        0.2224
     21 N           1.3801    3.3720   25.2690 N.ar    1  UNL1       -0.0524
     22 O           2.5965    2.5156   25.0767 O.2     1  UNL1       -0.3163
     23 C          -1.2584    2.9652   25.1353 C.ar    1  UNL1        0.1203
     24 C          -1.8667    3.2652   26.4732 C.ar    1  UNL1        0.0224
     25 C          -3.2947    3.7153   26.5639 C.ar    1  UNL1        0.0031
     26 C          -4.1144    3.8654   25.3166 C.ar    1  UNL1        0.0177
     27 C          -5.5424    4.3155   25.4074 C.ar    1  UNL1        0.0015
     28 C          -6.3621    4.4656   24.1602 C.ar    1  UNL1        0.0001
     29 C          -5.7538    4.1656   22.8223 C.ar    1  UNL1        0.0015
     30 C          -4.3258    3.7156   22.7315 C.ar    1  UNL1        0.0191
     31 C          -3.5061    3.5654   23.9787 C.ar    1  UNL1        0.0814
     32 N          -2.0781    3.1153   23.8881 N.ar    1  UNL1       -0.2422
@<TRIPOS>BOND
     1     1     2    2
     2     2     3   am
     3     3    11    1
     4    11    12   ar
     5    12    13   ar
     6    13    14   ar
     7    14    15   ar
     8    15    16   ar
     9    16    17    1
    10     2     4   am
    11     4     5    1
    12     5     6    1
    13     6     7    1
    14     7    18    1
    15    18    19   ar
    16    19    20   ar
    17    20    23    1
    18    23    24   ar
    19    24    25   ar
    20    25    26   ar
    21    26    27   ar
    22    27    28   ar
    23    28    29   ar
    24    29    30   ar
    25    30    31   ar
    26    31    32   ar
    27    20    21   ar
    28    21    22   ar
    29     7     8    1
    30     8     9    1
    31    16    11   ar
    32     9     4    1
    33    22    18   ar
    34    32    23   ar
    35    31    26   ar
    36     3    10    1
@<TRIPOS>MOLECULE
*****
 32 36 0 0 0
SMALL
GASTEIGER

@<TRIPOS>ATOM
      1 O           4.7812   -4.2475   20.5447 O.2     1  UNL1       -0.2522
      2 C           4.9643   -2.9275   21.2332 C.2     1  UNL1        0.3078
      3 N           6.1387   -2.7116   22.1411 N.am    1  UNL1       -0.2674
      4 N           3.9730   -1.8233   21.0139 N.am    1  UNL1       -0.2605
      5 C           2.7987   -2.0391   20.1060 C.3     1  UNL1        0.1165
      6 C           1.8074   -0.9350   19.8867 C.3     1  UNL1        0.1167
      7 N           1.9905    0.3851   20.5752 N.pl3   1  UNL1       -0.2585
      8 C           3.1649    0.6009   21.4830 C.3     1  UNL1        0.1167
      9 C           4.1561   -0.5033   21.7024 C.3     1  UNL1        0.1165
     10 H           6.2589   -1.8452   22.5930 H       1  UNL1        0.1564
     11 C           7.1300   -3.8158   22.3605 C.ar    1  UNL1        0.0622
     12 C           7.0476   -4.6633   23.5953 C.ar    1  UNL1        0.0156
     13 C           8.0390   -5.7675   23.8147 C.ar    1  UNL1        0.0013
     14 C           9.1127   -6.0241   22.7991 C.ar    1  UNL1        0.0009
     15 C           9.1951   -5.1766   21.5643 C.ar    1  UNL1        0.0126
     16 C           8.2038   -4.0725   21.3449 C.ar    1  UNL1        0.0711
     17 CL          8.2861   -3.2249   20.1100 Cl      1  UNL1       -0.0810
     18 C           0.9992    1.4892   20.3558 C.ar    1  UNL1        0.3186
     19 N          -0.4324    1.4908   20.8037 N.ar    1  UNL1       -0.1721
     20 C          -1.0509    2.7883   20.3748 C.ar    1  UNL1        0.2224
     21 N          -0.0016    3.5886   19.6618 N.ar    1  UNL1       -0.0524
     22 O           1.2654    2.7858   19.6501 O.2     1  UNL1       -0.3163
     23 C          -2.4697    3.2111   20.6164 C.ar    1  UNL1        0.1203
     24 C          -3.3331    3.6329   19.4646 C.ar    1  UNL1        0.0224
     25 C          -4.7518    4.0558   19.7062 C.ar    1  UNL1        0.0031
     26 C          -5.3072    4.0568   21.0996 C.ar    1  UNL1        0.0177
     27 C          -6.7259    4.4796   21.3412 C.ar    1  UNL1        0.0015
     28 C          -7.2812    4.4806   22.7346 C.ar    1  UNL1        0.0001
     29 C          -6.4178    4.0588   23.8864 C.ar    1  UNL1        0.0015
     30 C          -4.9991    3.6360   23.6448 C.ar    1  UNL1        0.0191
     31 C          -4.4438    3.6350   22.2514 C.ar    1  UNL1        0.0814
     32 N          -3.0250    3.2121   22.0098 N.ar    1  UNL1       -0.2422
@<TRIPOS>BOND
     1     1     2    2
     2     2     3   am
     3     3    11    1
     4    11    12   ar
     5    12    13   ar
     6    13    14   ar
     7    14    15   ar
     8    15    16   ar
     9    16    17    1
    10     2     4   am
    11     4     5    1
    12     5     6    1
    13     6     7    1
    14     7    18    1
    15    18    19   ar
    16    19    20   ar
    17    20    23    1
    18    23    24   ar
    19    24    25   ar
    20    25    26   ar
    21    26    27   ar
    22    27    28   ar
    23    28    29   ar
    24    29    30   ar
    25    30    31   ar
    26    31    32   ar
    27    20    21   ar
    28    21    22   ar
    29     7     8    1
    30     8     9    1
    31    16    11   ar
    32     9     4    1
    33    22    18   ar
    34    32    23   ar
    35    31    26   ar
    36     3    10    1
@<TRIPOS>MOLECULE
*****
 32 36 0 0 0
SMALL
GASTEIGER

@<TRIPOS>ATOM
      1 O           5.3870    2.0751   32.3394 O.2     1  UNL1       -0.2522
      2 C           4.2204    1.2018   31.9840 C.2     1  UNL1        0.3078
      3 N           3.4693    0.4781   33.0620 N.am    1  UNL1       -0.2674
      4 N           3.8049    1.0520   30.5505 N.am    1  UNL1       -0.2605
      5 C           4.5559    1.7756   29.4724 C.3     1  UNL1        0.1165
      6 C           4.1404    1.6259   28.0390 C.3     1  UNL1        0.1167
      7 N           2.9738    0.7526   27.6836 N.pl3   1  UNL1       -0.2585
      8 C           2.2227    0.0289   28.7616 C.3     1  UNL1        0.1167
      9 C           2.6382    0.1787   30.1951 C.3     1  UNL1        0.1165
     10 H           2.7036   -0.0950   32.8288 H       1  UNL1        0.1564
     11 C           3.8849    0.6279   34.4956 C.ar    1  UNL1        0.0622
     12 C           4.8760   -0.3266   35.0928 C.ar    1  UNL1        0.0156
     13 C           5.2915   -0.1769   36.5263 C.ar    1  UNL1        0.0013
     14 C           4.7159    0.9273   37.3626 C.ar    1  UNL1        0.0009
     15 C           3.7248    1.8818   36.7654 C.ar    1  UNL1        0.0126
     16 C           3.3093    1.7321   35.3319 C.ar    1  UNL1        0.0711
     17 CL          2.3181    2.6866   34.7347 Cl      1  UNL1       -0.0810
     18 C           2.5582    0.6028   26.2501 C.ar    1  UNL1        0.3186
     19 N           3.2534   -0.2284   25.2127 N.ar    1  UNL1       -0.1721
     20 C           2.4993   -0.0869   23.9238 C.ar    1  UNL1        0.2224
     21 N           1.3382    0.8317   24.1645 N.ar    1  UNL1       -0.0524
     22 O           1.3745    1.2580   25.6021 O.2     1  UNL1       -0.3163
     23 C           2.8456   -0.7480   22.6226 C.ar    1  UNL1        0.1203
     24 C           2.1334   -0.3472   21.3648 C.ar    1  UNL1        0.0224
     25 C           2.4797   -1.0083   20.0637 C.ar    1  UNL1        0.0031
     26 C           3.5382   -2.0702   20.0203 C.ar    1  UNL1        0.0177
     27 C           3.8845   -2.7312   18.7191 C.ar    1  UNL1        0.0015
     28 C           4.9431   -3.7931   18.6758 C.ar    1  UNL1        0.0001
     29 C           5.6553   -4.1939   19.9336 C.ar    1  UNL1        0.0015
     30 C           5.3090   -3.5329   21.2347 C.ar    1  UNL1        0.0191
     31 C           4.2505   -2.4710   21.2781 C.ar    1  UNL1        0.0814
     32 N           3.9041   -1.8099   22.5793 N.ar    1  UNL1       -0.2422
@<TRIPOS>BOND
     1     1     2    2
     2     2     3   am
     3     3    11    1
     4    11    12   ar
     5    12    13   ar
     6    13    14   ar
     7    14    15   ar
     8    15    16   ar
     9    16    17    1
    10     2     4   am
    11     4     5    1
    12     5     6    1
    13     6     7    1
    14     7    18    1
    15    18    19   ar
    16    19    20   ar
    17    20    23    1
    18    23    24   ar
    19    24    25   ar
    20    25    26   ar
    21    26    27   ar
    22    27    28   ar
    23    28    29   ar
    24    29    30   ar
    25    30    31   ar
    26    31    32   ar
    27    20    21   ar
    28    21    22   ar
    29     7     8    1
    30     8     9    1
    31    16    11   ar
    32     9     4    1
    33    22    18   ar
    34    32    23   ar
    35    31    26   ar
    36     3    10    1
@<TRIPOS>MOLECULE
*****
 32 36 0 0 0
SMALL
GASTEIGER

@<TRIPOS>ATOM
      1 O           4.1811    0.3863   21.5901 O.2     1  UNL1       -0.2522
      2 C           4.5262   -0.6442   22.6241 C.2     1  UNL1        0.3078
      3 N           5.3797   -1.8210   22.2544 N.am    1  UNL1       -0.2674
      4 N           4.0177   -0.4979   24.0276 N.am    1  UNL1       -0.2605
      5 C           3.1642    0.6789   24.3973 C.3     1  UNL1        0.1165
      6 C           2.6558    0.8252   25.8009 C.3     1  UNL1        0.1167
      7 N           3.0009   -0.2053   26.8348 N.pl3   1  UNL1       -0.2585
      8 C           3.8544   -1.3821   26.4651 C.3     1  UNL1        0.1167
      9 C           4.3628   -1.5284   25.0616 C.3     1  UNL1        0.1165
     10 H           5.6061   -2.4973   22.9330 H       1  UNL1        0.1564
     11 C           5.8882   -1.9673   20.8507 C.ar    1  UNL1        0.0622
     12 C           7.3015   -1.5878   20.5217 C.ar    1  UNL1        0.0156
     13 C           7.8100   -1.7341   19.1181 C.ar    1  UNL1        0.0013
     14 C           6.9050   -2.2600   18.0436 C.ar    1  UNL1        0.0009
     15 C           5.4916   -2.6394   18.3726 C.ar    1  UNL1        0.0126
     16 C           4.9832   -2.4931   19.7762 C.ar    1  UNL1        0.0711
     17 CL          3.5697   -2.8726   20.1054 Cl      1  UNL1       -0.0810
     18 C           2.4924   -0.0590   28.2384 C.ar    1  UNL1        0.3186
     19 N           3.3131    0.3057   29.4399 N.ar    1  UNL1       -0.1721
     20 C           2.4018    0.3383   30.6310 C.ar    1  UNL1        0.2224
     21 N           1.0181   -0.0062   30.1657 N.ar    1  UNL1       -0.0524
     22 O           1.0741   -0.2518   28.6870 O.2     1  UNL1       -0.3163
     23 C           2.8039    0.6592   32.0401 C.ar    1  UNL1        0.1203
     24 C           2.1702    1.8151   32.7560 C.ar    1  UNL1        0.0224
     25 C           2.5722    2.1360   34.1651 C.ar    1  UNL1        0.0031
     26 C           3.6079    1.3011   34.8582 C.ar    1  UNL1        0.0177
     27 C           4.0099    1.6220   36.2672 C.ar    1  UNL1        0.0015
     28 C           5.0455    0.7871   36.9603 C.ar    1  UNL1        0.0001
     29 C           5.6792   -0.3687   36.2443 C.ar    1  UNL1        0.0015
     30 C           5.2772   -0.6896   34.8353 C.ar    1  UNL1        0.0191
     31 C           4.2416    0.1452   34.1422 C.ar    1  UNL1        0.0814
     32 N           3.8395   -0.1757   32.7331 N.ar    1  UNL1       -0.2422
@<TRIPOS>BOND
     1     1     2    2
     2     2     3   am
     3     3    11    1
     4    11    12   ar
     5    12    13   ar
     6    13    14   ar
     7    14    15   ar
     8    15    16   ar
     9    16    17    1
    10     2     4   am
    11     4     5    1
    12     5     6    1
    13     6     7    1
    14     7    18    1
    15    18    19   ar
    16    19    20   ar
    17    20    23    1
    18    23    24   ar
    19    24    25   ar
    20    25    26   ar
    21    26    27   ar
    22    27    28   ar
    23    28    29   ar
    24    29    30   ar
    25    30    31   ar
    26    31    32   ar
    27    20    21   ar
    28    21    22   ar
    29     7     8    1
    30     8     9    1
    31    16    11   ar
    32     9     4    1
    33    22    18   ar
    34    32    23   ar
    35    31    26   ar
    36     3    10    1
@<TRIPOS>MOLECULE
*****
 32 36 0 0 0
SMALL
GASTEIGER

@<TRIPOS>ATOM
      1 O           5.5513    2.5828   34.2646 O.2     1  UNL1       -0.2522
      2 C           4.4777    1.6611   33.7666 C.2     1  UNL1        0.3078
      3 N           3.2551    1.4144   34.5998 N.am    1  UNL1       -0.2674
      4 N           4.6268    0.9862   32.4353 N.am    1  UNL1       -0.2605
      5 C           5.8495    1.2329   31.6021 C.3     1  UNL1        0.1165
      6 C           5.9985    0.5580   30.2709 C.3     1  UNL1        0.1167
      7 N           4.9250   -0.3638   29.7729 N.pl3   1  UNL1       -0.2585
      8 C           3.7024   -0.6105   30.6061 C.3     1  UNL1        0.1167
      9 C           3.5533    0.0645   31.9374 C.3     1  UNL1        0.1165
     10 H           2.5505    0.8094   34.2729 H       1  UNL1        0.1564
     11 C           3.1060    2.0894   35.9311 C.ar    1  UNL1        0.0622
     12 C           2.3215    3.3630   36.0425 C.ar    1  UNL1        0.0156
     13 C           2.1724    4.0379   37.3738 C.ar    1  UNL1        0.0013
     14 C           2.8078    3.4392   38.5936 C.ar    1  UNL1        0.0009
     15 C           3.5922    2.1655   38.4821 C.ar    1  UNL1        0.0126
     16 C           3.7413    1.4906   37.1509 C.ar    1  UNL1        0.0711
     17 CL          4.5258    0.2169   37.0394 Cl      1  UNL1       -0.0810
     18 C           5.0741   -1.0387   28.4417 C.ar    1  UNL1        0.3186
     19 N           4.3504   -0.6704   27.1804 N.ar    1  UNL1       -0.1721
     20 C           4.8022   -1.6046   26.0972 C.ar    1  UNL1        0.2224
     21 N           5.8049   -2.5502   26.6890 N.ar    1  UNL1       -0.0524
     22 O           5.9730   -2.2005   28.1379 O.2     1  UNL1       -0.3163
     23 C           4.3333   -1.5948   24.6723 C.ar    1  UNL1        0.1203
     24 C           3.4771   -0.4692   24.1723 C.ar    1  UNL1        0.0224
     25 C           3.0083   -0.4594   22.7475 C.ar    1  UNL1        0.0031
     26 C           3.3957   -1.5751   21.8227 C.ar    1  UNL1        0.0177
     27 C           2.9268   -1.5653   20.3979 C.ar    1  UNL1        0.0015
     28 C           3.3142   -2.6810   19.4732 C.ar    1  UNL1        0.0001
     29 C           4.1704   -3.8065   19.9733 C.ar    1  UNL1        0.0015
     30 C           4.6392   -3.8164   21.3981 C.ar    1  UNL1        0.0191
     31 C           4.2519   -2.7007   22.3228 C.ar    1  UNL1        0.0814
     32 N           4.7207   -2.7105   23.7476 N.ar    1  UNL1       -0.2422
@<TRIPOS>BOND
     1     1     2    2
     2     2     3   am
     3     3    11    1
     4    11    12   ar
     5    12    13   ar
     6    13    14   ar
     7    14    15   ar
     8    15    16   ar
     9    16    17    1
    10     2     4   am
    11     4     5    1
    12     5     6    1
    13     6     7    1
    14     7    18    1
    15    18    19   ar
    16    19    20   ar
    17    20    23    1
    18    23    24   ar
    19    24    25   ar
    20    25    26   ar
    21    26    27   ar
    22    27    28   ar
    23    28    29   ar
    24    29    30   ar
    25    30    31   ar
    26    31    32   ar
    27    20    21   ar
    28    21    22   ar
    29     7     8    1
    30     8     9    1
    31    16    11   ar
    32     9     4    1
    33    22    18   ar
    34    32    23   ar
    35    31    26   ar
    36     3    10    1
