@<TRIPOS>MOLECULE
*****
 20 21 0 0 0
SMALL
GASTEIGER

@<TRIPOS>ATOM
      1 C         -10.0949  -18.4559   22.6539 C.ar    1  UNL1        0.0078
      2 C         -10.2519  -17.6417   21.4040 C.ar    1  UNL1        0.0050
      3 C         -11.5658  -16.9873   21.0953 C.ar    1  UNL1        0.0349
      4 BR        -11.7228  -16.1730   19.8453 Br      1  UNL1       -0.0490
      5 C         -12.7228  -17.1472   22.0365 C.ar    1  UNL1        0.0146
      6 C         -12.5658  -17.9614   23.2864 C.ar    1  UNL1        0.0477
      7 BR        -13.7228  -18.1213   24.2276 Br      1  UNL1       -0.0477
      8 C         -11.2519  -18.6158   23.5951 C.ar    1  UNL1        0.0451
      9 N         -11.0949  -19.4300   24.8451 N.pl3   1  UNL1       -0.3568
     10 H         -11.8542  -19.5350   25.4628 H       1  UNL1        0.1424
     11 H         -10.2325  -19.8595   25.0477 H       1  UNL1        0.1424
     12 C          -8.7810  -19.1103   22.9627 C.3     1  UNL1        0.1004
     13 C          -7.3404  -16.9602   23.1907 C.3     1  UNL1        0.0899
     14 N          -7.4988  -18.3731   22.7125 N.3     1  UNL1       -0.2690
     15 C          -6.3750  -19.0488   21.9840 C.3     1  UNL1        0.0578
     16 C          -6.6735  -20.0654   20.9222 C.3     1  UNL1        0.0160
     17 C          -5.5498  -20.7411   20.1938 C.3     1  UNL1        0.0014
     18 C          -4.1276  -20.4002   20.5271 C.3     1  UNL1        0.0001
     19 C          -3.8291  -19.3836   21.5889 C.3     1  UNL1        0.0014
     20 C          -4.9529  -18.7079   22.3174 C.3     1  UNL1        0.0160
@<TRIPOS>BOND
     1    13    14    1
     2    14    12    1
     3    12     1    1
     4     1     2   ar
     5     2     3   ar
     6     3     4    1
     7     3     5   ar
     8     5     6   ar
     9     6     7    1
    10     6     8   ar
    11     8     9    1
    12    14    15    1
    13    15    16    1
    14    16    17    1
    15    17    18    1
    16    18    19    1
    17    19    20    1
    18     8     1   ar
    19    20    15    1
    20     9    10    1
    21     9    11    1
@<TRIPOS>MOLECULE
*****
 20 21 0 0 0
SMALL
GASTEIGER

@<TRIPOS>ATOM
      1 C          -8.2472  -17.9619   21.7327 C.ar    1  UNL1        0.0078
      2 C          -9.6992  -18.2580   21.5008 C.ar    1  UNL1        0.0050
      3 C         -10.7395  -17.6617   22.4020 C.ar    1  UNL1        0.0349
      4 BR        -12.1916  -17.9578   22.1701 Br      1  UNL1       -0.0490
      5 C         -10.3277  -16.7692   23.5351 C.ar    1  UNL1        0.0146
      6 C          -8.8756  -16.4731   23.7670 C.ar    1  UNL1        0.0477
      7 BR         -8.4638  -15.5807   24.9002 Br      1  UNL1       -0.0477
      8 C          -7.8354  -17.0694   22.8658 C.ar    1  UNL1        0.0451
      9 N          -6.3832  -16.7733   23.0977 N.pl3   1  UNL1       -0.3568
     10 H          -6.1129  -16.1876   23.8414 H       1  UNL1        0.1424
     11 H          -5.7005  -17.1647   22.5062 H       1  UNL1        0.1424
     12 C          -7.2068  -18.5582   20.8315 C.3     1  UNL1        0.1004
     13 C          -6.5760  -20.6295   22.2674 C.3     1  UNL1        0.0899
     14 N          -6.1664  -19.4805   21.3944 N.3     1  UNL1       -0.2690
     15 C          -4.7164  -19.2539   21.0843 C.3     1  UNL1        0.0578
     16 C          -4.2774  -19.0393   19.6661 C.3     1  UNL1        0.0160
     17 C          -2.8274  -18.8127   19.3560 C.3     1  UNL1        0.0014
     18 C          -1.8165  -18.8006   20.4641 C.3     1  UNL1        0.0001
     19 C          -2.2555  -19.0152   21.8823 C.3     1  UNL1        0.0014
     20 C          -3.7055  -19.2418   22.1924 C.3     1  UNL1        0.0160
@<TRIPOS>BOND
     1    13    14    1
     2    14    12    1
     3    12     1    1
     4     1     2   ar
     5     2     3   ar
     6     3     4    1
     7     3     5   ar
     8     5     6   ar
     9     6     7    1
    10     6     8   ar
    11     8     9    1
    12    14    15    1
    13    15    16    1
    14    16    17    1
    15    17    18    1
    16    18    19    1
    17    19    20    1
    18     8     1   ar
    19    20    15    1
    20     9    10    1
    21     9    11    1
@<TRIPOS>MOLECULE
*****
 20 21 0 0 0
SMALL
GASTEIGER

@<TRIPOS>ATOM
      1 C         -10.2825  -18.7048   22.7234 C.ar    1  UNL1        0.0078
      2 C         -11.3228  -18.8453   23.7948 C.ar    1  UNL1        0.0050
      3 C         -12.6583  -18.1814   23.6351 C.ar    1  UNL1        0.0349
      4 BR        -13.6987  -18.3219   24.7066 Br      1  UNL1       -0.0490
      5 C         -12.9535  -17.3769   22.4040 C.ar    1  UNL1        0.0146
      6 C         -11.9132  -17.2363   21.3326 C.ar    1  UNL1        0.0477
      7 BR        -12.2085  -16.4319   20.1015 Br      1  UNL1       -0.0477
      8 C         -10.5777  -17.9003   21.4923 C.ar    1  UNL1        0.0451
      9 N          -9.5374  -17.7597   20.4208 N.pl3   1  UNL1       -0.3568
     10 H          -9.7311  -17.2317   19.6128 H       1  UNL1        0.1424
     11 H          -8.6608  -18.1955   20.5257 H       1  UNL1        0.1424
     12 C          -8.9469  -19.3687   22.8831 C.3     1  UNL1        0.1004
     13 C          -7.6051  -17.1852   23.3095 C.3     1  UNL1        0.0899
     14 N          -7.6881  -18.5672   22.7321 N.3     1  UNL1       -0.2690
     15 C          -6.5121  -19.1476   22.0038 C.3     1  UNL1        0.0578
     16 C          -6.7271  -20.1651   20.9229 C.3     1  UNL1        0.0160
     17 C          -5.5513  -20.7456   20.1946 C.3     1  UNL1        0.0014
     18 C          -4.1604  -20.3084   20.5473 C.3     1  UNL1        0.0001
     19 C          -3.9454  -19.2909   21.6282 C.3     1  UNL1        0.0014
     20 C          -5.1213  -18.7105   22.3565 C.3     1  UNL1        0.0160
@<TRIPOS>BOND
     1    13    14    1
     2    14    12    1
     3    12     1    1
     4     1     2   ar
     5     2     3   ar
     6     3     4    1
     7     3     5   ar
     8     5     6   ar
     9     6     7    1
    10     6     8   ar
    11     8     9    1
    12    14    15    1
    13    15    16    1
    14    16    17    1
    15    17    18    1
    16    18    19    1
    17    19    20    1
    18     8     1   ar
    19    20    15    1
    20     9    10    1
    21     9    11    1
@<TRIPOS>MOLECULE
*****
 20 21 0 0 0
SMALL
GASTEIGER

@<TRIPOS>ATOM
      1 C          -6.7996  -18.5075   22.1729 C.ar    1  UNL1        0.0078
      2 C          -6.7279  -17.3007   23.0609 C.ar    1  UNL1        0.0050
      3 C          -5.3984  -16.8073   23.5497 C.ar    1  UNL1        0.0349
      4 BR         -5.3266  -15.6004   24.4377 Br      1  UNL1       -0.0490
      5 C          -4.1407  -17.5206   23.1505 C.ar    1  UNL1        0.0146
      6 C          -4.2124  -18.7274   22.2626 C.ar    1  UNL1        0.0477
      7 BR         -2.9547  -19.4407   21.8634 Br      1  UNL1       -0.0477
      8 C          -5.5419  -19.2208   21.7738 C.ar    1  UNL1        0.0451
      9 N          -5.6137  -20.4277   20.8858 N.pl3   1  UNL1       -0.3568
     10 H          -4.7882  -20.8959   20.6238 H       1  UNL1        0.1424
     11 H          -6.4862  -20.7515   20.5650 H       1  UNL1        0.1424
     12 C          -8.1291  -19.0011   21.6841 C.3     1  UNL1        0.1004
     13 C          -9.1965  -20.3323   23.6433 C.3     1  UNL1        0.0899
     14 N          -9.2552  -19.2069   22.6533 N.3     1  UNL1       -0.2690
     15 C         -10.4402  -18.2874   22.6325 C.3     1  UNL1        0.0578
     16 C         -11.7285  -18.7096   23.2744 C.3     1  UNL1        0.0160
     17 C         -12.9135  -17.7902   23.2536 C.3     1  UNL1        0.0014
     18 C         -12.8101  -16.4484   22.5911 C.3     1  UNL1        0.0001
     19 C         -11.5218  -16.0262   21.9492 C.3     1  UNL1        0.0014
     20 C         -10.3369  -16.9457   21.9699 C.3     1  UNL1        0.0160
@<TRIPOS>BOND
     1    13    14    1
     2    14    12    1
     3    12     1    1
     4     1     2   ar
     5     2     3   ar
     6     3     4    1
     7     3     5   ar
     8     5     6   ar
     9     6     7    1
    10     6     8   ar
    11     8     9    1
    12    14    15    1
    13    15    16    1
    14    16    17    1
    15    17    18    1
    16    18    19    1
    17    19    20    1
    18     8     1   ar
    19    20    15    1
    20     9    10    1
    21     9    11    1
@<TRIPOS>MOLECULE
*****
 20 21 0 0 0
SMALL
GASTEIGER

@<TRIPOS>ATOM
      1 C          -8.8259  -17.7399   22.2600 C.ar    1  UNL1        0.0078
      2 C          -8.9477  -18.9173   23.1812 C.ar    1  UNL1        0.0050
      3 C         -10.2315  -19.1644   23.9167 C.ar    1  UNL1        0.0349
      4 BR        -10.3534  -20.3419   24.8380 Br      1  UNL1       -0.0490
      5 C         -11.3933  -18.2340   23.7310 C.ar    1  UNL1        0.0146
      6 C         -11.2714  -17.0566   22.8098 C.ar    1  UNL1        0.0477
      7 BR        -12.4333  -16.1262   22.6240 Br      1  UNL1       -0.0477
      8 C          -9.9877  -16.8095   22.0743 C.ar    1  UNL1        0.0451
      9 N          -9.8658  -15.6320   21.1530 N.pl3   1  UNL1       -0.3568
     10 H         -10.6284  -15.0213   21.0311 H       1  UNL1        0.1424
     11 H          -9.0232  -15.4698   20.6703 H       1  UNL1        0.1424
     12 C          -7.5421  -17.4927   21.5245 C.3     1  UNL1        0.1004
     13 C          -7.6409  -19.3621   19.7229 C.3     1  UNL1        0.0899
     14 N          -6.8801  -18.6106   20.7748 N.3     1  UNL1       -0.2690
     15 C          -5.4572  -18.9770   21.0770 C.3     1  UNL1        0.0578
     16 C          -4.8222  -18.5247   22.3585 C.3     1  UNL1        0.0160
     17 C          -3.3994  -18.8911   22.6607 C.3     1  UNL1        0.0014
     18 C          -2.6116  -19.7097   21.6813 C.3     1  UNL1        0.0001
     19 C          -3.2466  -20.1620   20.3998 C.3     1  UNL1        0.0014
     20 C          -4.6694  -19.7956   20.0976 C.3     1  UNL1        0.0160
@<TRIPOS>BOND
     1    13    14    1
     2    14    12    1
     3    12     1    1
     4     1     2   ar
     5     2     3   ar
     6     3     4    1
     7     3     5   ar
     8     5     6   ar
     9     6     7    1
    10     6     8   ar
    11     8     9    1
    12    14    15    1
    13    15    16    1
    14    16    17    1
    15    17    18    1
    16    18    19    1
    17    19    20    1
    18     8     1   ar
    19    20    15    1
    20     9    10    1
    21     9    11    1
@<TRIPOS>MOLECULE
*****
 20 21 0 0 0
SMALL
GASTEIGER

@<TRIPOS>ATOM
      1 C          -7.9758  -18.4206   21.9438 C.ar    1  UNL1        0.0078
      2 C          -6.5058  -18.7151   21.9918 C.ar    1  UNL1        0.0050
      3 C          -5.8699  -19.5367   20.9099 C.ar    1  UNL1        0.0349
      4 BR         -4.3998  -19.8311   20.9578 Br      1  UNL1       -0.0490
      5 C          -6.7039  -20.0638   19.7801 C.ar    1  UNL1        0.0146
      6 C          -8.1739  -19.7694   19.7322 C.ar    1  UNL1        0.0477
      7 BR         -9.0079  -20.2966   18.6023 Br      1  UNL1       -0.0477
      8 C          -8.8099  -18.9478   20.8140 C.ar    1  UNL1        0.0451
      9 N         -10.2800  -18.6534   20.7661 N.pl3   1  UNL1       -0.3568
     10 H         -10.8274  -18.9994   20.0246 H       1  UNL1        0.1424
     11 H         -10.6974  -18.1141   21.4762 H       1  UNL1        0.1424
     12 C          -8.6119  -17.5990   23.0257 C.3     1  UNL1        0.1004
     13 C          -8.1172  -15.1797   22.2183 C.3     1  UNL1        0.0899
     14 N          -8.1129  -16.2125   23.3060 N.3     1  UNL1       -0.2690
     15 C          -7.6095  -15.8588   24.6741 C.3     1  UNL1        0.0578
     16 C          -8.5590  -15.8155   25.8346 C.3     1  UNL1        0.0160
     17 C          -8.0557  -15.4618   27.2026 C.3     1  UNL1        0.0014
     18 C          -6.6029  -15.1515   27.4102 C.3     1  UNL1        0.0001
     19 C          -5.6534  -15.1949   26.2497 C.3     1  UNL1        0.0014
     20 C          -6.1567  -15.5485   24.8817 C.3     1  UNL1        0.0160
@<TRIPOS>BOND
     1    13    14    1
     2    14    12    1
     3    12     1    1
     4     1     2   ar
     5     2     3   ar
     6     3     4    1
     7     3     5   ar
     8     5     6   ar
     9     6     7    1
    10     6     8   ar
    11     8     9    1
    12    14    15    1
    13    15    16    1
    14    16    17    1
    15    17    18    1
    16    18    19    1
    17    19    20    1
    18     8     1   ar
    19    20    15    1
    20     9    10    1
    21     9    11    1
@<TRIPOS>MOLECULE
*****
 20 21 0 0 0
SMALL
GASTEIGER

@<TRIPOS>ATOM
      1 C          -8.9016  -17.1019   22.6159 C.ar    1  UNL1        0.0078
      2 C          -8.8805  -18.3016   23.5159 C.ar    1  UNL1        0.0050
      3 C         -10.1219  -19.1233   23.6997 C.ar    1  UNL1        0.0349
      4 BR        -10.1009  -20.3231   24.5997 Br      1  UNL1       -0.0490
      5 C         -11.3845  -18.7451   22.9834 C.ar    1  UNL1        0.0146
      6 C         -11.4056  -17.5453   22.0833 C.ar    1  UNL1        0.0477
      7 BR        -12.6681  -17.1672   21.3670 Br      1  UNL1       -0.0477
      8 C         -10.1641  -16.7237   21.8996 C.ar    1  UNL1        0.0451
      9 N         -10.1852  -15.5239   20.9996 N.pl3   1  UNL1       -0.3568
     10 H         -11.0138  -15.2757   20.5294 H       1  UNL1        0.1424
     11 H          -9.3704  -14.9846   20.8790 H       1  UNL1        0.1424
     12 C          -7.6602  -16.2802   22.4322 C.3     1  UNL1        0.1004
     13 C          -6.4705  -15.7540   24.6811 C.3     1  UNL1        0.0899
     14 N          -6.4956  -16.4632   23.3596 N.3     1  UNL1       -0.2690
     15 C          -5.3559  -17.3554   22.9655 C.3     1  UNL1        0.0578
     16 C          -5.6263  -18.6449   22.2485 C.3     1  UNL1        0.0160
     17 C          -4.4867  -19.5371   21.8544 C.3     1  UNL1        0.0014
     18 C          -3.0768  -19.1398   22.1773 C.3     1  UNL1        0.0001
     19 C          -2.8065  -17.8503   22.8943 C.3     1  UNL1        0.0014
     20 C          -3.9460  -16.9581   23.2884 C.3     1  UNL1        0.0160
@<TRIPOS>BOND
     1    13    14    1
     2    14    12    1
     3    12     1    1
     4     1     2   ar
     5     2     3   ar
     6     3     4    1
     7     3     5   ar
     8     5     6   ar
     9     6     7    1
    10     6     8   ar
    11     8     9    1
    12    14    15    1
    13    15    16    1
    14    16    17    1
    15    17    18    1
    16    18    19    1
    17    19    20    1
    18     8     1   ar
    19    20    15    1
    20     9    10    1
    21     9    11    1
@<TRIPOS>MOLECULE
*****
 20 21 0 0 0
SMALL
GASTEIGER

@<TRIPOS>ATOM
      1 C         -15.8779   -7.0360   19.4014 C.ar    1  UNL1        0.0078
      2 C         -17.2113   -6.3624   19.5367 C.ar    1  UNL1        0.0050
      3 C         -18.4729   -7.1592   19.3840 C.ar    1  UNL1        0.0349
      4 BR        -19.8064   -6.4856   19.5192 Br      1  UNL1       -0.0490
      5 C         -18.4012   -8.6295   19.0960 C.ar    1  UNL1        0.0146
      6 C         -17.0679   -9.3031   18.9607 C.ar    1  UNL1        0.0477
      7 BR        -16.9962  -10.7735   18.6727 Br      1  UNL1       -0.0477
      8 C         -15.8062   -8.5064   19.1135 C.ar    1  UNL1        0.0451
      9 N         -14.4727   -9.1800   18.9782 N.pl3   1  UNL1       -0.3568
     10 H         -14.4257  -10.1450   18.7892 H       1  UNL1        0.1424
     11 H         -13.6447   -8.6571   19.0784 H       1  UNL1        0.1424
     12 C         -14.6162   -6.2393   19.5542 C.3     1  UNL1        0.1004
     13 C         -14.2545   -5.9368   16.9993 C.3     1  UNL1        0.0899
     14 N         -13.6936   -6.0641   18.3846 N.3     1  UNL1       -0.2690
     15 C         -12.2099   -6.0163   18.6002 C.3     1  UNL1        0.0578
     16 C         -11.5310   -4.7032   18.8552 C.3     1  UNL1        0.0160
     17 C         -10.0474   -4.6553   19.0708 C.3     1  UNL1        0.0014
     18 C          -9.2426   -5.9205   19.0315 C.3     1  UNL1        0.0001
     19 C          -9.9215   -7.2336   18.7765 C.3     1  UNL1        0.0014
     20 C         -11.4051   -7.2815   18.5609 C.3     1  UNL1        0.0160
@<TRIPOS>BOND
     1    13    14    1
     2    14    12    1
     3    12     1    1
     4     1     2   ar
     5     2     3   ar
     6     3     4    1
     7     3     5   ar
     8     5     6   ar
     9     6     7    1
    10     6     8   ar
    11     8     9    1
    12    14    15    1
    13    15    16    1
    14    16    17    1
    15    17    18    1
    16    18    19    1
    17    19    20    1
    18     8     1   ar
    19    20    15    1
    20     9    10    1
    21     9    11    1
@<TRIPOS>MOLECULE
*****
 20 21 0 0 0
SMALL
GASTEIGER

@<TRIPOS>ATOM
      1 C         -13.3446   -5.1775   19.1710 C.ar    1  UNL1        0.0078
      2 C         -13.0039   -3.7201   19.0711 C.ar    1  UNL1        0.0050
      3 C         -11.5802   -3.2952   18.8650 C.ar    1  UNL1        0.0349
      4 BR        -11.2395   -1.8378   18.7651 Br      1  UNL1       -0.0490
      5 C         -10.4973   -4.3276   18.7587 C.ar    1  UNL1        0.0146
      6 C         -10.8379   -5.7850   18.8586 C.ar    1  UNL1        0.0477
      7 BR         -9.7550   -6.8174   18.7523 Br      1  UNL1       -0.0477
      8 C         -12.2616   -6.2099   19.0648 C.ar    1  UNL1        0.0451
      9 N         -12.6024   -7.6673   19.1647 N.pl3   1  UNL1       -0.3568
     10 H         -11.8916   -8.3449   19.0949 H       1  UNL1        0.1424
     11 H         -13.5368   -7.9462   19.3000 H       1  UNL1        0.1424
     12 C         -14.7683   -5.6025   19.3772 C.3     1  UNL1        0.1004
     13 C         -15.4750   -5.8735   16.8919 C.3     1  UNL1        0.0899
     14 N         -15.4839   -6.3718   18.3067 N.3     1  UNL1       -0.2690
     15 C         -16.2084   -7.6393   18.6509 C.3     1  UNL1        0.0578
     16 C         -15.7934   -8.9354   18.0201 C.3     1  UNL1        0.0160
     17 C         -16.5178  -10.2029   18.3643 C.3     1  UNL1        0.0014
     18 C         -17.6574  -10.1744   19.3393 C.3     1  UNL1        0.0001
     19 C         -18.0724   -8.8783   19.9701 C.3     1  UNL1        0.0014
     20 C         -17.3480   -7.6108   19.6259 C.3     1  UNL1        0.0160
@<TRIPOS>BOND
     1    13    14    1
     2    14    12    1
     3    12     1    1
     4     1     2   ar
     5     2     3   ar
     6     3     4    1
     7     3     5   ar
     8     5     6   ar
     9     6     7    1
    10     6     8   ar
    11     8     9    1
    12    14    15    1
    13    15    16    1
    14    16    17    1
    15    17    18    1
    16    18    19    1
    17    19    20    1
    18     8     1   ar
    19    20    15    1
    20     9    10    1
    21     9    11    1
