@<TRIPOS>MOLECULE
*****
 26 26 0 0 0
SMALL
GASTEIGER

@<TRIPOS>ATOM
      1 C          -7.3048  -19.8661   22.0224 C.3     1  UNL1        0.2972
      2 F          -7.4322  -18.6576   21.1430 F       1  UNL1       -0.1981
      3 F          -7.1773  -21.0745   22.9017 F       1  UNL1       -0.1981
      4 C         -10.2920  -17.6237   23.3633 C.ar    1  UNL1        0.1384
      5 C         -10.9359  -18.5633   24.3392 C.ar    1  UNL1        0.0369
      6 C         -10.3694  -19.9372   24.5428 C.ar    1  UNL1        0.0030
      7 C          -9.1590  -20.3715   23.7706 C.ar    1  UNL1        0.0012
      8 C          -8.5152  -19.4318   22.7947 C.ar    1  UNL1        0.0422
      9 C          -9.0817  -18.0579   22.5910 C.ar    1  UNL1        0.0379
     10 O         -10.8585  -16.2498   23.1596 O.3     1  UNL1       -0.4755
     11 C         -12.1847  -16.0785   22.4800 C.3     1  UNL1        0.2054
     12 C         -12.5350  -16.9276   21.2942 C.3     1  UNL1        0.0473
     13 C         -11.5468  -15.6603   19.2527 C.3     1  UNL1        0.0001
     14 C         -11.6616  -16.9097   20.0747 C.3     1  UNL1        0.0038
     15 C          -6.0944  -20.3003   21.2501 C.3     1  UNL1        0.1444
     16 N          -4.7988  -19.5611   21.4082 N.3     1  UNL1       -0.2579
     17 C          -4.3906  -19.0427   22.7554 C.3     1  UNL1        0.1051
     18 C          -4.4200  -17.5688   23.0322 C.3     1  UNL1        0.1595
     19 O          -5.7329  -16.8499   23.1296 O.3     1  UNL1       -0.3496
     20 C          -5.9111  -15.7459   24.1293 C.3     1  UNL1        0.1742
     21 C          -3.9114  -19.3402   20.2192 C.3     1  UNL1        0.1589
     22 C          -2.4271  -19.2246   20.4023 C.2     1  UNL1        0.2421
     23 O          -1.7126  -20.1523   21.3397 O.2     1  UNL1       -0.2734
     24 N          -1.6574  -18.1812   19.6480 N.am    1  UNL1       -0.2749
     25 C          -0.1731  -18.0656   19.8311 C.3     1  UNL1        0.1149
     26 C          -2.3720  -17.2534   18.7107 C.3     1  UNL1        0.1149
@<TRIPOS>BOND
     1    13    14    1
     2    14    12    1
     3    12    11    1
     4    11    10    1
     5    10     4    1
     6     4     5   ar
     7     5     6   ar
     8     6     7   ar
     9     7     8   ar
    10     8     1    1
    11     1     2    1
    12     1     3    1
    13     1    15    1
    14    15    16    1
    15    16    17    1
    16    17    18    1
    17    18    19    1
    18    19    20    1
    19    16    21    1
    20    21    22    1
    21    22    23    2
    22    22    24   am
    23    24    25    1
    24    24    26    1
    25     8     9   ar
    26     9     4   ar
@<TRIPOS>MOLECULE
*****
 26 26 0 0 0
SMALL
GASTEIGER

@<TRIPOS>ATOM
      1 C          -6.6877  -19.4091   21.2929 C.3     1  UNL1        0.2972
      2 F          -6.7698  -20.3092   22.4900 F       1  UNL1       -0.1981
      3 F          -6.6056  -18.5090   20.0959 F       1  UNL1       -0.1981
      4 C         -10.5476  -19.6712   22.1777 C.ar    1  UNL1        0.1384
      5 C         -11.1549  -19.6486   20.8064 C.ar    1  UNL1        0.0369
      6 C         -10.2732  -19.5462   19.5972 C.ar    1  UNL1        0.0030
      7 C          -8.7842  -19.4664   19.7594 C.ar    1  UNL1        0.0012
      8 C          -8.1768  -19.4890   21.1307 C.ar    1  UNL1        0.0422
      9 C          -9.0585  -19.5913   22.3399 C.ar    1  UNL1        0.0379
     10 O         -11.4293  -19.7736   23.3869 O.3     1  UNL1       -0.4755
     11 C         -11.9309  -18.5288   24.0569 C.3     1  UNL1        0.2054
     12 C         -13.0277  -17.7257   23.4229 C.3     1  UNL1        0.0473
     13 C         -11.2958  -16.1018   22.3678 C.3     1  UNL1        0.0001
     14 C         -12.6927  -16.6436   22.4397 C.3     1  UNL1        0.0038
     15 C          -5.1987  -19.3293   21.4551 C.3     1  UNL1        0.1444
     16 N          -4.6019  -18.3670   22.4389 N.3     1  UNL1       -0.2579
     17 C          -5.4588  -17.3072   23.0656 C.3     1  UNL1        0.1051
     18 C          -4.8310  -16.2353   23.9064 C.3     1  UNL1        0.1595
     19 O          -5.5719  -14.9577   24.1689 O.3     1  UNL1       -0.3496
     20 C          -7.0342  -14.9934   24.5011 C.3     1  UNL1        0.1742
     21 C          -3.1483  -18.4645   22.7961 C.3     1  UNL1        0.1589
     22 C          -2.1365  -18.7929   21.7385 C.2     1  UNL1        0.2421
     23 O          -1.8112  -20.2243   21.4304 O.2     1  UNL1       -0.2734
     24 N          -1.4501  -17.6896   20.9890 N.am    1  UNL1       -0.2749
     25 C          -0.4383  -18.0180   19.9314 C.3     1  UNL1        0.1149
     26 C          -1.7754  -16.2581   21.2970 C.3     1  UNL1        0.1149
@<TRIPOS>BOND
     1    13    14    1
     2    14    12    1
     3    12    11    1
     4    11    10    1
     5    10     4    1
     6     4     5   ar
     7     5     6   ar
     8     6     7   ar
     9     7     8   ar
    10     8     1    1
    11     1     2    1
    12     1     3    1
    13     1    15    1
    14    15    16    1
    15    16    17    1
    16    17    18    1
    17    18    19    1
    18    19    20    1
    19    16    21    1
    20    21    22    1
    21    22    23    2
    22    22    24   am
    23    24    25    1
    24    24    26    1
    25     8     9   ar
    26     9     4   ar
@<TRIPOS>MOLECULE
*****
 26 26 0 0 0
SMALL
GASTEIGER

@<TRIPOS>ATOM
      1 C          -7.6341  -18.7744   22.5257 C.3     1  UNL1        0.2972
      2 F          -8.4017  -19.9400   21.9759 F       1  UNL1       -0.1981
      3 F          -6.8666  -17.6089   23.0755 F       1  UNL1       -0.1981
      4 C          -3.7957  -19.3441   21.6937 C.ar    1  UNL1        0.1384
      5 C          -3.8941  -20.3022   20.5438 C.ar    1  UNL1        0.0369
      6 C          -5.2392  -20.7511   20.0545 C.ar    1  UNL1        0.0030
      7 C          -6.4858  -20.2418   20.7151 C.ar    1  UNL1        0.0012
      8 C          -6.3874  -19.2837   21.8650 C.ar    1  UNL1        0.0422
      9 C          -5.0424  -18.8349   22.3543 C.ar    1  UNL1        0.0379
     10 O          -2.4507  -18.8953   22.1830 O.3     1  UNL1       -0.4755
     11 C          -2.1756  -17.4349   22.3864 C.3     1  UNL1        0.2054
     12 C          -1.8569  -16.5607   21.2099 C.3     1  UNL1        0.0473
     13 C          -1.7438  -17.7374   18.8963 C.3     1  UNL1        0.0001
     14 C          -1.0518  -17.1052   20.0673 C.3     1  UNL1        0.0038
     15 C          -8.8808  -18.2651   23.1864 C.3     1  UNL1        0.1444
     16 N          -9.2429  -16.8129   23.0863 N.3     1  UNL1       -0.2579
     17 C          -9.5003  -16.1949   21.7440 C.3     1  UNL1        0.1051
     18 C         -10.9067  -16.0452   21.2445 C.3     1  UNL1        0.1595
     19 O         -11.4091  -16.9294   20.1419 O.3     1  UNL1       -0.3496
     20 C         -10.7640  -18.2610   19.8955 C.3     1  UNL1        0.1742
     21 C          -9.3477  -15.9788   24.3286 C.3     1  UNL1        0.1589
     22 C          -8.1066  -15.4461   24.9812 C.2     1  UNL1        0.2421
     23 O          -7.2325  -14.4723   24.2480 O.2     1  UNL1       -0.2734
     24 N          -7.7395  -15.8873   26.3671 N.am    1  UNL1       -0.2749
     25 C          -6.4984  -15.3547   27.0198 C.3     1  UNL1        0.1149
     26 C          -8.6136  -16.8612   27.1003 C.3     1  UNL1        0.1149
@<TRIPOS>BOND
     1    13    14    1
     2    14    12    1
     3    12    11    1
     4    11    10    1
     5    10     4    1
     6     4     5   ar
     7     5     6   ar
     8     6     7   ar
     9     7     8   ar
    10     8     1    1
    11     1     2    1
    12     1     3    1
    13     1    15    1
    14    15    16    1
    15    16    17    1
    16    17    18    1
    17    18    19    1
    18    19    20    1
    19    16    21    1
    20    21    22    1
    21    22    23    2
    22    22    24   am
    23    24    25    1
    24    24    26    1
    25     8     9   ar
    26     9     4   ar
@<TRIPOS>MOLECULE
*****
 26 26 0 0 0
SMALL
GASTEIGER

@<TRIPOS>ATOM
      1 C          -6.1265  -19.9205   20.2544 C.3     1  UNL1        0.2972
      2 F          -6.2817  -21.3002   20.8222 F       1  UNL1       -0.1981
      3 F          -5.9713  -18.5409   19.6867 F       1  UNL1       -0.1981
      4 C          -9.7255  -19.0716   21.6953 C.ar    1  UNL1        0.1384
      5 C         -10.5804  -19.3229   20.4887 C.ar    1  UNL1        0.0369
      6 C          -9.9507  -19.7733   19.2040 C.ar    1  UNL1        0.0030
      7 C          -8.4661  -19.9726   19.1259 C.ar    1  UNL1        0.0012
      8 C          -7.6112  -19.7213   20.3325 C.ar    1  UNL1        0.0422
      9 C          -8.2409  -19.2708   21.6172 C.ar    1  UNL1        0.0379
     10 O         -10.3553  -18.6212   22.9801 O.3     1  UNL1       -0.4755
     11 C         -11.8101  -18.8831   23.2345 C.3     1  UNL1        0.2054
     12 C         -12.8107  -17.7772   23.0734 C.3     1  UNL1        0.0473
     13 C         -12.3347  -16.2674   21.0133 C.3     1  UNL1        0.0001
     14 C         -12.3847  -16.4580   22.5003 C.3     1  UNL1        0.0038
     15 C          -4.6418  -20.1197   20.1763 C.3     1  UNL1        0.1444
     16 N          -3.7671  -19.6953   21.3186 N.3     1  UNL1       -0.2579
     17 C          -2.2745  -19.7672   21.1871 C.3     1  UNL1        0.1051
     18 C          -1.5374  -18.7095   20.4204 C.3     1  UNL1        0.1595
     19 O          -1.8198  -18.5068   18.9612 O.3     1  UNL1       -0.3496
     20 C          -2.6640  -17.3502   18.5143 C.3     1  UNL1        0.1742
     21 C          -4.3848  -19.1991   22.5922 C.3     1  UNL1        0.1589
     22 C          -4.0513  -17.8289   23.1034 C.2     1  UNL1        0.2421
     23 O          -2.6213  -17.4459   23.3446 O.2     1  UNL1       -0.2734
     24 N          -5.1480  -16.8417   23.3733 N.am    1  UNL1       -0.2749
     25 C          -4.8145  -15.4715   23.8845 C.3     1  UNL1        0.1149
     26 C          -6.5780  -17.2247   23.1321 C.3     1  UNL1        0.1149
@<TRIPOS>BOND
     1    13    14    1
     2    14    12    1
     3    12    11    1
     4    11    10    1
     5    10     4    1
     6     4     5   ar
     7     5     6   ar
     8     6     7   ar
     9     7     8   ar
    10     8     1    1
    11     1     2    1
    12     1     3    1
    13     1    15    1
    14    15    16    1
    15    16    17    1
    16    17    18    1
    17    18    19    1
    18    19    20    1
    19    16    21    1
    20    21    22    1
    21    22    23    2
    22    22    24   am
    23    24    25    1
    24    24    26    1
    25     8     9   ar
    26     9     4   ar
@<TRIPOS>MOLECULE
*****
 26 26 0 0 0
SMALL
GASTEIGER

@<TRIPOS>ATOM
      1 C          -7.1171  -19.1058   21.9821 C.3     1  UNL1        0.2972
      2 F          -6.8300  -20.4569   22.5671 F       1  UNL1       -0.1981
      3 F          -7.4041  -17.7548   21.3972 F       1  UNL1       -0.1981
      4 C         -10.5561  -17.7732   23.4474 C.ar    1  UNL1        0.1384
      5 C         -11.0438  -18.9897   24.1769 C.ar    1  UNL1        0.0369
      6 C         -10.2226  -20.2449   24.1749 C.ar    1  UNL1        0.0030
      7 C          -8.9137  -20.2836   23.4433 C.ar    1  UNL1        0.0012
      8 C          -8.4260  -19.0671   22.7138 C.ar    1  UNL1        0.0422
      9 C          -9.2472  -17.8119   22.7158 C.ar    1  UNL1        0.0379
     10 O         -11.3774  -16.5179   23.4494 O.3     1  UNL1       -0.4755
     11 C         -12.3515  -16.2572   22.3390 C.3     1  UNL1        0.2054
     12 C         -12.4946  -17.2452   21.2195 C.3     1  UNL1        0.0473
     13 C         -11.4653  -15.7012   19.4010 C.3     1  UNL1        0.0001
     14 C         -11.6966  -17.0734   19.9610 C.3     1  UNL1        0.0038
     15 C          -5.8082  -19.1445   21.2505 C.3     1  UNL1        0.1444
     16 N          -4.5518  -18.6968   21.9369 N.3     1  UNL1       -0.2579
     17 C          -3.3946  -19.6414   22.0737 C.3     1  UNL1        0.1051
     18 C          -2.3988  -19.7737   20.9597 C.3     1  UNL1        0.1595
     19 O          -1.1815  -18.8977   20.9339 O.3     1  UNL1       -0.3496
     20 C          -1.0153  -17.8765   19.8478 C.3     1  UNL1        0.1742
     21 C          -4.4526  -17.3047   22.4865 C.3     1  UNL1        0.1589
     22 C          -4.4702  -17.0809   23.9696 C.2     1  UNL1        0.2421
     23 O          -3.5896  -17.9035   24.8627 O.2     1  UNL1       -0.2734
     24 N          -5.3683  -16.0343   24.5596 N.am    1  UNL1       -0.2749
     25 C          -5.3859  -15.8104   26.0427 C.3     1  UNL1        0.1149
     26 C          -6.2489  -15.2116   23.6664 C.3     1  UNL1        0.1149
@<TRIPOS>BOND
     1    13    14    1
     2    14    12    1
     3    12    11    1
     4    11    10    1
     5    10     4    1
     6     4     5   ar
     7     5     6   ar
     8     6     7   ar
     9     7     8   ar
    10     8     1    1
    11     1     2    1
    12     1     3    1
    13     1    15    1
    14    15    16    1
    15    16    17    1
    16    17    18    1
    17    18    19    1
    18    19    20    1
    19    16    21    1
    20    21    22    1
    21    22    23    2
    22    22    24   am
    23    24    25    1
    24    24    26    1
    25     8     9   ar
    26     9     4   ar
@<TRIPOS>MOLECULE
*****
 26 26 0 0 0
SMALL
GASTEIGER

@<TRIPOS>ATOM
      1 C          -5.6058  -18.4205   22.6990 C.3     1  UNL1        0.2972
      2 F          -6.8320  -19.2832   22.7465 F       1  UNL1       -0.1981
      3 F          -4.3797  -17.5578   22.6515 F       1  UNL1       -0.1981
      4 C          -8.6621  -16.1409   23.8003 C.ar    1  UNL1        0.1384
      5 C          -7.9428  -15.0019   24.4600 C.ar    1  UNL1        0.0369
      6 C          -6.4446  -15.0024   24.5327 C.ar    1  UNL1        0.0030
      7 C          -5.6656  -16.1419   23.9457 C.ar    1  UNL1        0.0012
      8 C          -6.3848  -17.2809   23.2860 C.ar    1  UNL1        0.0422
      9 C          -7.8831  -17.2805   23.2133 C.ar    1  UNL1        0.0379
     10 O         -10.1603  -16.1405   23.7276 O.3     1  UNL1       -0.4755
     11 C         -10.8770  -17.2495   23.0161 C.3     1  UNL1        0.2054
     12 C         -11.6804  -18.2463   23.7978 C.3     1  UNL1        0.0473
     13 C          -9.9243  -20.1602   23.8568 C.3     1  UNL1        0.0001
     14 C         -10.9882  -19.3519   24.5386 C.3     1  UNL1        0.0038
     15 C          -4.8268  -19.5600   22.1120 C.3     1  UNL1        0.1444
     16 N          -4.9971  -19.9185   20.6654 N.3     1  UNL1       -0.2579
     17 C          -6.3099  -20.4532   20.1747 C.3     1  UNL1        0.1051
     18 C          -7.2745  -19.5442   19.4724 C.3     1  UNL1        0.1595
     19 O          -8.4109  -18.9259   20.2316 O.3     1  UNL1       -0.3496
     20 C          -9.8255  -19.2966   19.8978 C.3     1  UNL1        0.1742
     21 C          -3.8546  -19.7423   19.7096 C.3     1  UNL1        0.1589
     22 C          -2.4942  -19.3780   20.2258 C.2     1  UNL1        0.2421
     23 O          -1.8408  -20.2225   21.2792 O.2     1  UNL1       -0.2734
     24 N          -1.7872  -18.1690   19.6886 N.am    1  UNL1       -0.2749
     25 C          -0.4267  -17.8046   20.2048 C.3     1  UNL1        0.1149
     26 C          -2.4406  -17.3244   18.6352 C.3     1  UNL1        0.1149
@<TRIPOS>BOND
     1    13    14    1
     2    14    12    1
     3    12    11    1
     4    11    10    1
     5    10     4    1
     6     4     5   ar
     7     5     6   ar
     8     6     7   ar
     9     7     8   ar
    10     8     1    1
    11     1     2    1
    12     1     3    1
    13     1    15    1
    14    15    16    1
    15    16    17    1
    16    17    18    1
    17    18    19    1
    18    19    20    1
    19    16    21    1
    20    21    22    1
    21    22    23    2
    22    22    24   am
    23    24    25    1
    24    24    26    1
    25     8     9   ar
    26     9     4   ar
@<TRIPOS>MOLECULE
*****
 26 26 0 0 0
SMALL
GASTEIGER

@<TRIPOS>ATOM
      1 C          -7.2105  -18.1124   21.5271 C.3     1  UNL1        0.2972
      2 F          -8.1836  -18.4640   20.4411 F       1  UNL1       -0.1981
      3 F          -6.2374  -17.7608   22.6131 F       1  UNL1       -0.1981
      4 C          -3.9487  -19.5293   19.7655 C.ar    1  UNL1        0.1384
      5 C          -4.2295  -21.0025   19.7919 C.ar    1  UNL1        0.0369
      6 C          -5.5039  -21.5124   20.3967 C.ar    1  UNL1        0.0030
      7 C          -6.4976  -20.5490   20.9751 C.ar    1  UNL1        0.0012
      8 C          -6.2168  -19.0758   20.9487 C.ar    1  UNL1        0.0422
      9 C          -4.9423  -18.5659   20.3439 C.ar    1  UNL1        0.0379
     10 O          -2.6742  -19.0194   19.1608 O.3     1  UNL1       -0.4755
     11 C          -2.3251  -17.5642   19.2631 C.3     1  UNL1        0.2054
     12 C          -1.4578  -17.0781   20.3863 C.3     1  UNL1        0.0473
     13 C          -2.5234  -17.3777   22.7368 C.3     1  UNL1        0.0001
     14 C          -2.0831  -16.4855   21.6143 C.3     1  UNL1        0.0038
     15 C          -8.2041  -17.1490   22.1055 C.3     1  UNL1        0.1444
     16 N          -9.1556  -17.6032   23.1724 N.3     1  UNL1       -0.2579
     17 C          -9.0713  -17.0183   24.5511 C.3     1  UNL1        0.1051
     18 C          -8.5541  -15.6235   24.7436 C.3     1  UNL1        0.1595
     19 O          -7.5209  -15.3451   25.7948 O.3     1  UNL1       -0.3496
     20 C          -7.8834  -15.4423   27.2471 C.3     1  UNL1        0.1742
     21 C         -10.1915  -18.6423   22.8606 C.3     1  UNL1        0.1589
     22 C         -11.4506  -18.7134   23.6727 C.2     1  UNL1        0.2421
     23 O         -11.4819  -19.5165   24.9392 O.2     1  UNL1       -0.2734
     24 N         -12.6785  -17.9814   23.2183 N.am    1  UNL1       -0.2749
     25 C         -13.9377  -18.0525   24.0304 C.3     1  UNL1        0.1149
     26 C         -12.6472  -17.1783   21.9518 C.3     1  UNL1        0.1149
@<TRIPOS>BOND
     1    13    14    1
     2    14    12    1
     3    12    11    1
     4    11    10    1
     5    10     4    1
     6     4     5   ar
     7     5     6   ar
     8     6     7   ar
     9     7     8   ar
    10     8     1    1
    11     1     2    1
    12     1     3    1
    13     1    15    1
    14    15    16    1
    15    16    17    1
    16    17    18    1
    17    18    19    1
    18    19    20    1
    19    16    21    1
    20    21    22    1
    21    22    23    2
    22    22    24   am
    23    24    25    1
    24    24    26    1
    25     8     9   ar
    26     9     4   ar
@<TRIPOS>MOLECULE
*****
 26 26 0 0 0
SMALL
GASTEIGER

@<TRIPOS>ATOM
      1 C          -7.0530  -16.7528   23.1975 C.3     1  UNL1        0.2972
      2 F          -7.6745  -18.0621   22.8113 F       1  UNL1       -0.1981
      3 F          -6.4315  -15.4434   23.5837 F       1  UNL1       -0.1981
      4 C          -4.1076  -19.0817   21.9127 C.ar    1  UNL1        0.1384
      5 C          -2.9578  -18.5557   22.7195 C.ar    1  UNL1        0.0369
      6 C          -3.1729  -17.4286   23.6857 C.ar    1  UNL1        0.0030
      7 C          -4.5380  -16.8276   23.8450 C.ar    1  UNL1        0.0012
      8 C          -5.6878  -17.3537   23.0382 C.ar    1  UNL1        0.0422
      9 C          -5.4727  -18.4808   22.0721 C.ar    1  UNL1        0.0379
     10 O          -3.8924  -20.2088   20.9466 O.3     1  UNL1       -0.4755
     11 C          -3.6210  -19.9157   19.5008 C.3     1  UNL1        0.2054
     12 C          -3.3868  -18.5035   19.0529 C.3     1  UNL1        0.0473
     13 C          -0.9097  -18.3579   19.8227 C.3     1  UNL1        0.0001
     14 C          -1.9876  -18.0062   18.8407 C.3     1  UNL1        0.0038
     15 C          -8.4180  -16.1518   23.3568 C.3     1  UNL1        0.1444
     16 N          -9.4536  -16.8518   24.1860 N.3     1  UNL1       -0.2579
     17 C          -9.1868  -17.1382   25.6341 C.3     1  UNL1        0.1051
     18 C          -8.6145  -16.0691   26.5170 C.3     1  UNL1        0.1595
     19 O          -7.2530  -16.2449   27.1214 O.3     1  UNL1       -0.3496
     20 C          -6.1552  -15.2775   26.7912 C.3     1  UNL1        0.1742
     21 C         -10.7559  -17.2654   23.5672 C.3     1  UNL1        0.1589
     22 C         -10.7631  -18.1491   22.3552 C.2     1  UNL1        0.2421
     23 O         -10.6547  -19.6370   22.5111 O.2     1  UNL1       -0.2734
     24 N         -10.8789  -17.5448   20.9871 N.am    1  UNL1       -0.2749
     25 C         -10.8862  -18.4285   19.7751 C.3     1  UNL1        0.1149
     26 C         -10.9874  -16.0569   20.8312 C.3     1  UNL1        0.1149
@<TRIPOS>BOND
     1    13    14    1
     2    14    12    1
     3    12    11    1
     4    11    10    1
     5    10     4    1
     6     4     5   ar
     7     5     6   ar
     8     6     7   ar
     9     7     8   ar
    10     8     1    1
    11     1     2    1
    12     1     3    1
    13     1    15    1
    14    15    16    1
    15    16    17    1
    16    17    18    1
    17    18    19    1
    18    19    20    1
    19    16    21    1
    20    21    22    1
    21    22    23    2
    22    22    24   am
    23    24    25    1
    24    24    26    1
    25     8     9   ar
    26     9     4   ar
@<TRIPOS>MOLECULE
*****
 26 26 0 0 0
SMALL
GASTEIGER

@<TRIPOS>ATOM
      1 C          -7.0306  -16.5808   23.6120 C.3     1  UNL1        0.2972
      2 F          -7.7214  -17.3173   22.5028 F       1  UNL1       -0.1981
      3 F          -6.3398  -15.8443   24.7212 F       1  UNL1       -0.1981
      4 C          -4.4963  -19.2499   22.1278 C.ar    1  UNL1        0.1384
      5 C          -3.1909  -18.7158   22.6383 C.ar    1  UNL1        0.0369
      6 C          -3.1654  -17.4700   23.4734 C.ar    1  UNL1        0.0030
      7 C          -4.4453  -16.7583   23.7979 C.ar    1  UNL1        0.0012
      8 C          -5.7506  -17.2925   23.2874 C.ar    1  UNL1        0.0422
      9 C          -5.7761  -18.5383   22.4524 C.ar    1  UNL1        0.0379
     10 O          -4.5217  -20.4958   21.2928 O.3     1  UNL1       -0.4755
     11 C          -4.0939  -20.4445   19.8561 C.3     1  UNL1        0.2054
     12 C          -3.6949  -19.1371   19.2385 C.3     1  UNL1        0.0473
     13 C          -1.8308  -17.5216   18.4229 C.3     1  UNL1        0.0001
     14 C          -2.2491  -18.7401   19.1910 C.3     1  UNL1        0.0038
     15 C          -8.3105  -15.8691   23.9365 C.3     1  UNL1        0.1444
     16 N          -9.5979  -16.6357   24.0070 N.3     1  UNL1       -0.2579
     17 C          -9.7041  -17.8438   24.8898 C.3     1  UNL1        0.1051
     18 C          -9.7132  -19.2164   24.2848 C.3     1  UNL1        0.1595
     19 O         -10.9298  -19.7074   23.5576 O.3     1  UNL1       -0.3496
     20 C         -10.8039  -20.2450   22.1629 C.3     1  UNL1        0.1742
     21 C         -10.7791  -16.1943   23.1947 C.3     1  UNL1        0.1589
     22 C         -10.6889  -16.1590   21.6978 C.2     1  UNL1        0.2421
     23 O          -9.5502  -15.4452   21.0316 O.2     1  UNL1       -0.2734
     24 N         -11.7375  -16.8377   20.8671 N.am    1  UNL1       -0.2749
     25 C         -11.6473  -16.8024   19.3702 C.3     1  UNL1        0.1149
     26 C         -12.8762  -17.5515   21.5332 C.3     1  UNL1        0.1149
@<TRIPOS>BOND
     1    13    14    1
     2    14    12    1
     3    12    11    1
     4    11    10    1
     5    10     4    1
     6     4     5   ar
     7     5     6   ar
     8     6     7   ar
     9     7     8   ar
    10     8     1    1
    11     1     2    1
    12     1     3    1
    13     1    15    1
    14    15    16    1
    15    16    17    1
    16    17    18    1
    17    18    19    1
    18    19    20    1
    19    16    21    1
    20    21    22    1
    21    22    23    2
    22    22    24   am
    23    24    25    1
    24    24    26    1
    25     8     9   ar
    26     9     4   ar
