@<TRIPOS>MOLECULE
*****
 30 33 0 0 0
SMALL
GASTEIGER

@<TRIPOS>ATOM
      1 C          -8.0538  -19.3641   20.3712 C.ar    1  UNL1        0.1317
      2 C          -9.2838  -19.5849   19.5416 C.ar    1  UNL1        0.0548
      3 C         -10.5901  -18.9785   19.9611 C.ar    1  UNL1        0.1049
      4 N         -10.6663  -18.1515   21.2101 N.ar    1  UNL1       -0.2105
      5 N         -11.8056  -17.4326   21.8700 N.ar    1  UNL1       -0.1621
      6 C         -11.2796  -16.7675   23.1073 C.ar    1  UNL1        0.1236
      7 C          -9.8153  -17.0754   23.2122 C.ar    1  UNL1        0.0569
      8 C          -9.4362  -17.9307   22.0397 C.ar    1  UNL1        0.1666
      9 N          -8.1300  -18.5370   21.6202 N.ar    1  UNL1       -0.2120
     10 C          -8.8920  -16.6097   24.2988 C.ar    1  UNL1        0.0075
     11 C          -9.2933  -16.7541   25.7370 C.ar    1  UNL1        0.0003
     12 C          -8.3701  -16.2884   26.8236 C.ar    1  UNL1        0.0031
     13 C          -7.0456  -15.6784   26.4722 C.ar    1  UNL1        0.0372
     14 C          -6.6443  -15.5340   25.0341 C.ar    1  UNL1        0.1468
     15 C          -7.5675  -15.9997   23.9475 C.ar    1  UNL1        0.0373
     16 O          -5.3197  -14.9240   24.6826 O.3     1  UNL1       -0.4045
     17 C          -4.3989  -15.6277   23.7303 C.3     1  UNL1        0.5753
     18 F          -3.4781  -16.3315   22.7780 F       1  UNL1       -0.1328
     19 F          -4.3832  -16.8267   24.6316 F       1  UNL1       -0.1328
     20 F          -4.4147  -14.4287   22.8291 F       1  UNL1       -0.1328
     21 N          -6.7474  -19.9705   19.9517 N.pl3   1  UNL1       -0.3180
     22 H          -6.6055  -20.2335   19.0137 H       1  UNL1        0.1482
     23 C          -5.6574  -20.1761   20.9614 C.3     1  UNL1        0.0882
     24 C          -0.2475  -17.7376   20.0746 C.3     1  UNL1        0.0896
     25 N          -1.6000  -18.3473   20.2963 N.3     1  UNL1       -0.2715
     26 C          -1.9343  -18.9698   21.6194 C.3     1  UNL1        0.0722
     27 C          -3.2868  -19.5794   21.8411 C.3     1  UNL1        0.0191
     28 C          -4.3049  -19.5665   20.7397 C.3     1  UNL1        0.0223
     29 C          -3.9706  -18.9440   19.4166 C.3     1  UNL1        0.0191
     30 C          -2.6181  -18.3344   19.1948 C.3     1  UNL1        0.0722
@<TRIPOS>BOND
     1    24    25    1
     2    25    26    1
     3    26    27    1
     4    27    28    1
     5    28    23    1
     6    23    21    1
     7    21     1    1
     8     1     2   ar
     9     2     3   ar
    10     3     4   ar
    11     4     5   ar
    12     5     6   ar
    13     6     7   ar
    14     7    10    1
    15    10    11   ar
    16    11    12   ar
    17    12    13   ar
    18    13    14   ar
    19    14    16    1
    20    16    17    1
    21    17    18    1
    22    17    19    1
    23    17    20    1
    24    14    15   ar
    25     7     8   ar
    26     8     9   ar
    27    28    29    1
    28    29    30    1
    29    30    25    1
    30     9     1   ar
    31     8     4   ar
    32    15    10   ar
    33    21    22    1
@<TRIPOS>MOLECULE
*****
 30 33 0 0 0
SMALL
GASTEIGER

@<TRIPOS>ATOM
      1 C          -3.6717  -17.6234   22.3830 C.ar    1  UNL1        0.1317
      2 C          -2.4623  -18.4323   22.0184 C.ar    1  UNL1        0.0548
      3 C          -2.6160  -19.6938   21.2217 C.ar    1  UNL1        0.1049
      4 N          -3.9792  -20.1464   20.7894 N.ar    1  UNL1       -0.2105
      5 N          -4.4384  -21.3377   20.0019 N.ar    1  UNL1       -0.1621
      6 C          -5.9316  -21.2650   19.8798 C.ar    1  UNL1        0.1236
      7 C          -6.3953  -20.0288   20.5918 C.ar    1  UNL1        0.0569
      8 C          -5.1887  -19.3375   21.1540 C.ar    1  UNL1        0.1666
      9 N          -5.0349  -18.0760   21.9507 N.ar    1  UNL1       -0.2120
     10 C          -7.8162  -19.5653   20.7192 C.ar    1  UNL1        0.0075
     11 C          -8.7332  -19.6232   19.5335 C.ar    1  UNL1        0.0003
     12 C         -10.1541  -19.1597   19.6610 C.ar    1  UNL1        0.0031
     13 C         -10.6580  -18.6383   20.9740 C.ar    1  UNL1        0.0372
     14 C          -9.7410  -18.5804   22.1596 C.ar    1  UNL1        0.1468
     15 C          -8.3201  -19.0439   22.0322 C.ar    1  UNL1        0.0373
     16 O         -10.2449  -18.0589   23.4728 O.3     1  UNL1       -0.4045
     17 C         -11.7083  -18.1272   23.7951 C.3     1  UNL1        0.5753
     18 F         -13.1717  -18.1957   24.1175 F       1  UNL1       -0.1328
     19 F         -11.9022  -16.7621   23.2045 F       1  UNL1       -0.1328
     20 F         -11.5144  -19.4924   24.3857 F       1  UNL1       -0.1328
     21 N          -3.5180  -16.3618   23.1798 N.pl3   1  UNL1       -0.3180
     22 H          -2.6917  -16.1992   23.6897 H       1  UNL1        0.1482
     23 C          -4.6232  -15.3479   23.1996 C.3     1  UNL1        0.0882
     24 C          -8.6755  -15.4134   27.6241 C.3     1  UNL1        0.0896
     25 N          -7.6624  -15.3970   26.5179 N.3     1  UNL1       -0.2715
     26 C          -6.1984  -15.3569   26.8422 C.3     1  UNL1        0.0722
     27 C          -5.1854  -15.3405   25.7362 C.3     1  UNL1        0.0191
     28 C          -5.6363  -15.3643   24.3058 C.3     1  UNL1        0.0223
     29 C          -7.1003  -15.4044   23.9815 C.3     1  UNL1        0.0191
     30 C          -8.1133  -15.4208   25.0875 C.3     1  UNL1        0.0722
@<TRIPOS>BOND
     1    24    25    1
     2    25    26    1
     3    26    27    1
     4    27    28    1
     5    28    23    1
     6    23    21    1
     7    21     1    1
     8     1     2   ar
     9     2     3   ar
    10     3     4   ar
    11     4     5   ar
    12     5     6   ar
    13     6     7   ar
    14     7    10    1
    15    10    11   ar
    16    11    12   ar
    17    12    13   ar
    18    13    14   ar
    19    14    16    1
    20    16    17    1
    21    17    18    1
    22    17    19    1
    23    17    20    1
    24    14    15   ar
    25     7     8   ar
    26     8     9   ar
    27    28    29    1
    28    29    30    1
    29    30    25    1
    30     9     1   ar
    31     8     4   ar
    32    15    10   ar
    33    21    22    1
@<TRIPOS>MOLECULE
*****
 30 33 0 0 0
SMALL
GASTEIGER

@<TRIPOS>ATOM
      1 C         -10.1729  -17.2515   21.3323 C.ar    1  UNL1        0.1317
      2 C         -11.2876  -17.7890   20.4847 C.ar    1  UNL1        0.0548
      3 C         -11.0246  -18.9080   19.5211 C.ar    1  UNL1        0.1049
      4 N          -9.6467  -19.4895   19.4050 N.ar    1  UNL1       -0.2105
      5 N          -9.0903  -20.5894   18.5501 N.ar    1  UNL1       -0.1621
      6 C          -7.6316  -20.7316   18.8694 C.ar    1  UNL1        0.1236
      7 C          -7.2865  -19.7197   19.9216 C.ar    1  UNL1        0.0569
      8 C          -8.5320  -18.9520   20.2525 C.ar    1  UNL1        0.1666
      9 N          -8.7951  -17.8330   21.2162 N.ar    1  UNL1       -0.2120
     10 C          -5.9336  -19.5118   20.5350 C.ar    1  UNL1        0.0075
     11 C          -5.7681  -19.5731   22.0246 C.ar    1  UNL1        0.0003
     12 C          -4.4152  -19.3653   22.6381 C.ar    1  UNL1        0.0031
     13 C          -3.2277  -19.0962   21.7621 C.ar    1  UNL1        0.0372
     14 C          -3.3932  -19.0350   20.2725 C.ar    1  UNL1        0.1468
     15 C          -4.7461  -19.2428   19.6590 C.ar    1  UNL1        0.0373
     16 O          -2.2057  -18.7659   19.3963 O.3     1  UNL1       -0.4045
     17 C          -1.2409  -17.6747   19.7550 C.3     1  UNL1        0.5753
     18 F          -0.2761  -16.5836   20.1136 F       1  UNL1       -0.1328
     19 F          -2.3755  -16.6965   19.8306 F       1  UNL1       -0.1328
     20 F          -0.1064  -18.6531   19.6793 F       1  UNL1       -0.1328
     21 N         -10.4359  -16.1325   22.2960 N.pl3   1  UNL1       -0.3180
     22 H         -10.7590  -15.2635   21.9649 H       1  UNL1        0.1482
     23 C         -10.2066  -16.3376   23.7641 C.3     1  UNL1        0.0882
     24 C          -4.9088  -14.9226   26.1996 C.3     1  UNL1        0.0896
     25 N          -6.2333  -15.2764   25.5907 N.3     1  UNL1       -0.2715
     26 C          -6.4127  -15.2234   24.1024 C.3     1  UNL1        0.0722
     27 C          -7.7371  -15.5771   23.4935 C.3     1  UNL1        0.0191
     28 C          -8.8821  -15.9838   24.3729 C.3     1  UNL1        0.0223
     29 C          -8.7028  -16.0368   25.8612 C.3     1  UNL1        0.0191
     30 C          -7.3784  -15.6831   26.4701 C.3     1  UNL1        0.0722
@<TRIPOS>BOND
     1    24    25    1
     2    25    26    1
     3    26    27    1
     4    27    28    1
     5    28    23    1
     6    23    21    1
     7    21     1    1
     8     1     2   ar
     9     2     3   ar
    10     3     4   ar
    11     4     5   ar
    12     5     6   ar
    13     6     7   ar
    14     7    10    1
    15    10    11   ar
    16    11    12   ar
    17    12    13   ar
    18    13    14   ar
    19    14    16    1
    20    16    17    1
    21    17    18    1
    22    17    19    1
    23    17    20    1
    24    14    15   ar
    25     7     8   ar
    26     8     9   ar
    27    28    29    1
    28    29    30    1
    29    30    25    1
    30     9     1   ar
    31     8     4   ar
    32    15    10   ar
    33    21    22    1
@<TRIPOS>MOLECULE
*****
 30 33 0 0 0
SMALL
GASTEIGER

@<TRIPOS>ATOM
      1 C          -5.7288  -20.1573   20.5634 C.ar    1  UNL1        0.1317
      2 C          -4.5191  -20.7586   19.9115 C.ar    1  UNL1        0.0548
      3 C          -3.1463  -20.3424   20.3497 C.ar    1  UNL1        0.1049
      4 N          -2.9831  -19.3250   21.4397 N.ar    1  UNL1       -0.2105
      5 N          -1.7658  -18.7236   22.0773 N.ar    1  UNL1       -0.1621
      6 C          -2.2232  -17.7506   23.1233 C.ar    1  UNL1        0.1236
      7 C          -3.7232  -17.7507   23.1321 C.ar    1  UNL1        0.0569
      8 C          -4.1928  -18.7237   22.0916 C.ar    1  UNL1        0.1666
      9 N          -5.5657  -19.1398   21.6534 N.ar    1  UNL1       -0.2120
     10 C          -4.5996  -16.9230   24.0247 C.ar    1  UNL1        0.0075
     11 C          -4.2827  -16.8042   25.4860 C.ar    1  UNL1        0.0003
     12 C          -5.1592  -15.9765   26.3786 C.ar    1  UNL1        0.0031
     13 C          -6.3526  -15.2677   25.8100 C.ar    1  UNL1        0.0372
     14 C          -6.6695  -15.3866   24.3487 C.ar    1  UNL1        0.1468
     15 C          -5.7931  -16.2143   23.4561 C.ar    1  UNL1        0.0373
     16 O          -7.8630  -14.6778   23.7800 O.3     1  UNL1       -0.4045
     17 C          -8.6994  -15.3433   22.7275 C.3     1  UNL1        0.5753
     18 F          -9.5357  -16.0088   21.6750 F       1  UNL1       -0.1328
     19 F          -9.4831  -16.0472   23.7954 F       1  UNL1       -0.1328
     20 F          -7.9156  -14.6394   21.6597 F       1  UNL1       -0.1328
     21 N          -7.1018  -20.5735   20.1253 N.pl3   1  UNL1       -0.3180
     22 H          -7.3485  -21.5265   20.1183 H       1  UNL1        0.1482
     23 C          -8.0988  -19.5375   19.6979 C.3     1  UNL1        0.0882
     24 C         -12.7103  -18.1544   23.2786 C.3     1  UNL1        0.0896
     25 N         -11.5574  -18.5002   22.3834 N.3     1  UNL1       -0.2715
     26 C         -10.2742  -19.0044   22.9741 C.3     1  UNL1        0.0722
     27 C          -9.1213  -19.3502   22.0790 C.3     1  UNL1        0.0191
     28 C          -9.2517  -19.1918   20.5931 C.3     1  UNL1        0.0223
     29 C         -10.5350  -18.6876   20.0024 C.3     1  UNL1        0.0191
     30 C         -11.6879  -18.3418   20.8975 C.3     1  UNL1        0.0722
@<TRIPOS>BOND
     1    24    25    1
     2    25    26    1
     3    26    27    1
     4    27    28    1
     5    28    23    1
     6    23    21    1
     7    21     1    1
     8     1     2   ar
     9     2     3   ar
    10     3     4   ar
    11     4     5   ar
    12     5     6   ar
    13     6     7   ar
    14     7    10    1
    15    10    11   ar
    16    11    12   ar
    17    12    13   ar
    18    13    14   ar
    19    14    16    1
    20    16    17    1
    21    17    18    1
    22    17    19    1
    23    17    20    1
    24    14    15   ar
    25     7     8   ar
    26     8     9   ar
    27    28    29    1
    28    29    30    1
    29    30    25    1
    30     9     1   ar
    31     8     4   ar
    32    15    10   ar
    33    21    22    1
@<TRIPOS>MOLECULE
*****
 30 33 0 0 0
SMALL
GASTEIGER

@<TRIPOS>ATOM
      1 C          -5.7691  -18.8837   22.2803 C.ar    1  UNL1        0.1317
      2 C          -4.6397  -18.0442   22.7994 C.ar    1  UNL1        0.0548
      3 C          -4.9298  -16.8031   23.5902 C.ar    1  UNL1        0.1049
      4 N          -6.3492  -16.4015   23.8619 N.ar    1  UNL1       -0.2105
      5 N          -6.9389  -15.2399   24.6058 N.ar    1  UNL1       -0.1621
      6 C          -8.4327  -15.3617   24.5464 C.ar    1  UNL1        0.1236
      7 C          -8.7663  -16.5984   23.7658 C.ar    1  UNL1        0.0569
      8 C          -7.4787  -17.2410   23.3428 C.ar    1  UNL1        0.1666
      9 N          -7.1886  -18.4821   22.5520 N.ar    1  UNL1       -0.2120
     10 C         -10.1455  -17.1038   23.4617 C.ar    1  UNL1        0.0075
     11 C         -10.8893  -17.9140   24.4817 C.ar    1  UNL1        0.0003
     12 C         -12.2684  -18.4194   24.1775 C.ar    1  UNL1        0.0031
     13 C         -12.9038  -18.1146   22.8534 C.ar    1  UNL1        0.0372
     14 C         -12.1600  -17.3045   21.8334 C.ar    1  UNL1        0.1468
     15 C         -10.7809  -16.7991   22.1376 C.ar    1  UNL1        0.0373
     16 O         -12.7954  -16.9997   20.5092 O.3     1  UNL1       -0.4045
     17 C         -12.1067  -16.0858   19.5394 C.3     1  UNL1        0.5753
     18 F         -11.4179  -15.1718   18.5697 F       1  UNL1       -0.1328
     19 F         -11.0135  -17.0975   19.3623 F       1  UNL1       -0.1328
     20 F         -13.1999  -15.0740   19.7166 F       1  UNL1       -0.1328
     21 N          -5.4791  -20.1249   21.4895 N.pl3   1  UNL1       -0.3180
     22 H          -5.7610  -21.0039   21.8319 H       1  UNL1        0.1482
     23 C          -4.7597  -20.0270   20.1770 C.3     1  UNL1        0.0882
     24 C           0.5380  -17.2277   19.8612 C.3     1  UNL1        0.0896
     25 N          -0.7865  -17.9275   19.9402 N.3     1  UNL1       -0.2715
     26 C          -1.0092  -18.9978   20.9672 C.3     1  UNL1        0.0722
     27 C          -2.3335  -19.6976   21.0462 C.3     1  UNL1        0.0191
     28 C          -3.4352  -19.3271   20.0980 C.3     1  UNL1        0.0223
     29 C          -3.2125  -18.2568   19.0710 C.3     1  UNL1        0.0191
     30 C          -1.8882  -17.5570   18.9920 C.3     1  UNL1        0.0722
@<TRIPOS>BOND
     1    24    25    1
     2    25    26    1
     3    26    27    1
     4    27    28    1
     5    28    23    1
     6    23    21    1
     7    21     1    1
     8     1     2   ar
     9     2     3   ar
    10     3     4   ar
    11     4     5   ar
    12     5     6   ar
    13     6     7   ar
    14     7    10    1
    15    10    11   ar
    16    11    12   ar
    17    12    13   ar
    18    13    14   ar
    19    14    16    1
    20    16    17    1
    21    17    18    1
    22    17    19    1
    23    17    20    1
    24    14    15   ar
    25     7     8   ar
    26     8     9   ar
    27    28    29    1
    28    29    30    1
    29    30    25    1
    30     9     1   ar
    31     8     4   ar
    32    15    10   ar
    33    21    22    1
@<TRIPOS>MOLECULE
*****
 30 33 0 0 0
SMALL
GASTEIGER

@<TRIPOS>ATOM
      1 C          -5.6531  -18.9711   22.1537 C.ar    1  UNL1        0.1317
      2 C          -4.5251  -18.3266   22.9035 C.ar    1  UNL1        0.0548
      3 C          -4.7515  -17.0373   23.6359 C.ar    1  UNL1        0.1049
      4 N          -6.1058  -16.3926   23.6186 N.ar    1  UNL1       -0.2105
      5 N          -6.6251  -15.1314   24.2430 N.ar    1  UNL1       -0.1621
      6 C          -8.0740  -14.9966   23.8790 C.ar    1  UNL1        0.1236
      7 C          -8.4501  -16.1745   23.0297 C.ar    1  UNL1        0.0569
      8 C          -7.2337  -17.0372   22.8688 C.ar    1  UNL1        0.1666
      9 N          -7.0073  -18.3265   22.1363 N.ar    1  UNL1       -0.2120
     10 C          -9.8049  -16.4425   22.4442 C.ar    1  UNL1        0.0075
     11 C         -10.2366  -15.7312   21.1961 C.ar    1  UNL1        0.0003
     12 C         -11.5913  -15.9992   20.6105 C.ar    1  UNL1        0.0031
     13 C         -12.5143  -16.9785   21.2730 C.ar    1  UNL1        0.0372
     14 C         -12.0826  -17.6898   22.5210 C.ar    1  UNL1        0.1468
     15 C         -10.7279  -17.4218   23.1066 C.ar    1  UNL1        0.0373
     16 O         -13.0057  -18.6692   23.1836 O.3     1  UNL1       -0.4045
     17 C         -13.3775  -18.4918   24.6259 C.3     1  UNL1        0.5753
     18 F         -13.7494  -18.3143   26.0683 F       1  UNL1       -0.1328
     19 F         -12.1809  -19.2992   25.0337 F       1  UNL1       -0.1328
     20 F         -14.5742  -17.6844   24.2180 F       1  UNL1       -0.1328
     21 N          -5.4267  -20.2605   21.4212 N.pl3   1  UNL1       -0.3180
     22 H          -5.8146  -21.0971   21.7659 H       1  UNL1        0.1482
     23 C          -4.6094  -20.2750   20.1635 C.3     1  UNL1        0.0882
     24 C           0.4571  -17.0770   19.8410 C.3     1  UNL1        0.0896
     25 N          -0.8096  -17.8765   19.9216 N.3     1  UNL1       -0.2715
     26 C          -0.9333  -18.9867   20.9227 C.3     1  UNL1        0.0722
     27 C          -2.1998  -19.7862   21.0033 C.3     1  UNL1        0.0191
     28 C          -3.3427  -19.4755   20.0829 C.3     1  UNL1        0.0223
     29 C          -3.2190  -18.3653   19.0818 C.3     1  UNL1        0.0191
     30 C          -1.9525  -17.5658   19.0011 C.3     1  UNL1        0.0722
@<TRIPOS>BOND
     1    24    25    1
     2    25    26    1
     3    26    27    1
     4    27    28    1
     5    28    23    1
     6    23    21    1
     7    21     1    1
     8     1     2   ar
     9     2     3   ar
    10     3     4   ar
    11     4     5   ar
    12     5     6   ar
    13     6     7   ar
    14     7    10    1
    15    10    11   ar
    16    11    12   ar
    17    12    13   ar
    18    13    14   ar
    19    14    16    1
    20    16    17    1
    21    17    18    1
    22    17    19    1
    23    17    20    1
    24    14    15   ar
    25     7     8   ar
    26     8     9   ar
    27    28    29    1
    28    29    30    1
    29    30    25    1
    30     9     1   ar
    31     8     4   ar
    32    15    10   ar
    33    21    22    1
@<TRIPOS>MOLECULE
*****
 30 33 0 0 0
SMALL
GASTEIGER

@<TRIPOS>ATOM
      1 C          -6.4368  -16.0158   24.0476 C.ar    1  UNL1        0.1317
      2 C          -7.2893  -15.1922   24.9666 C.ar    1  UNL1        0.0548
      3 C          -8.7844  -15.2721   24.8754 C.ar    1  UNL1        0.1049
      4 N          -9.4269  -16.1757   23.8651 N.ar    1  UNL1       -0.2105
      5 N         -10.8641  -16.4613   23.5442 N.ar    1  UNL1       -0.1621
      6 C         -10.8997  -17.4614   22.4269 C.ar    1  UNL1        0.1236
      7 C          -9.4846  -17.7939   22.0572 C.ar    1  UNL1        0.0569
      8 C          -8.5743  -16.9994   22.9460 C.ar    1  UNL1        0.1666
      9 N          -7.0792  -16.9194   23.0372 N.ar    1  UNL1       -0.2120
     10 C          -9.0550  -18.7527   20.9865 C.ar    1  UNL1        0.0075
     11 C          -9.9870  -19.0845   19.8590 C.ar    1  UNL1        0.0003
     12 C          -9.5575  -20.0433   18.7884 C.ar    1  UNL1        0.0031
     13 C          -8.1960  -20.6703   18.8453 C.ar    1  UNL1        0.0372
     14 C          -7.2641  -20.3385   19.9728 C.ar    1  UNL1        0.1468
     15 C          -7.6936  -19.3797   21.0434 C.ar    1  UNL1        0.0373
     16 O          -5.9025  -20.9656   20.0298 O.3     1  UNL1       -0.4045
     17 C          -4.6964  -20.1789   19.6098 C.3     1  UNL1        0.5753
     18 F          -3.4901  -19.3923   19.1899 F       1  UNL1       -0.1328
     19 F          -5.5680  -18.9897   19.3340 F       1  UNL1       -0.1328
     20 F          -3.8248  -21.3682   19.8857 F       1  UNL1       -0.1328
     21 N          -4.9416  -15.9358   24.1388 N.pl3   1  UNL1       -0.3180
     22 H          -4.5006  -15.0613   24.2380 H       1  UNL1        0.1482
     23 C          -4.1185  -17.1884   24.0788 C.3     1  UNL1        0.0882
     24 C          -0.1804  -17.9797   19.6218 C.3     1  UNL1        0.0896
     25 N          -1.1649  -17.7819   20.7361 N.3     1  UNL1       -0.2715
     26 C          -1.6958  -18.9669   21.4871 C.3     1  UNL1        0.0722
     27 C          -2.6803  -18.7690   22.6013 C.3     1  UNL1        0.0191
     28 C          -3.1340  -17.3862   22.9645 C.3     1  UNL1        0.0223
     29 C          -2.6031  -16.2012   22.2135 C.3     1  UNL1        0.0191
     30 C          -1.6186  -16.3991   21.0993 C.3     1  UNL1        0.0722
@<TRIPOS>BOND
     1    24    25    1
     2    25    26    1
     3    26    27    1
     4    27    28    1
     5    28    23    1
     6    23    21    1
     7    21     1    1
     8     1     2   ar
     9     2     3   ar
    10     3     4   ar
    11     4     5   ar
    12     5     6   ar
    13     6     7   ar
    14     7    10    1
    15    10    11   ar
    16    11    12   ar
    17    12    13   ar
    18    13    14   ar
    19    14    16    1
    20    16    17    1
    21    17    18    1
    22    17    19    1
    23    17    20    1
    24    14    15   ar
    25     7     8   ar
    26     8     9   ar
    27    28    29    1
    28    29    30    1
    29    30    25    1
    30     9     1   ar
    31     8     4   ar
    32    15    10   ar
    33    21    22    1
@<TRIPOS>MOLECULE
*****
 30 33 0 0 0
SMALL
GASTEIGER

@<TRIPOS>ATOM
      1 C          -8.8106  -16.5016   22.4690 C.ar    1  UNL1        0.1317
      2 C          -9.4668  -15.8828   23.6674 C.ar    1  UNL1        0.0548
      3 C          -8.6377  -15.4725   24.8482 C.ar    1  UNL1        0.1049
      4 N          -7.1524  -15.6808   24.8304 N.ar    1  UNL1       -0.2105
      5 N          -6.0843  -15.3787   25.8394 N.ar    1  UNL1       -0.1621
      6 C          -4.7680  -15.8107   25.2644 C.ar    1  UNL1        0.1236
      7 C          -5.0225  -16.3799   23.9001 C.ar    1  UNL1        0.0569
      8 C          -6.4961  -16.2996   23.6319 C.ar    1  UNL1        0.1666
      9 N          -7.3253  -16.7100   22.4512 N.ar    1  UNL1       -0.2120
     10 C          -3.9855  -16.9324   22.9677 C.ar    1  UNL1        0.0075
     11 C          -2.8382  -16.0721   22.5274 C.ar    1  UNL1        0.0003
     12 C          -1.8012  -16.6246   21.5950 C.ar    1  UNL1        0.0031
     13 C          -1.9114  -18.0372   21.1029 C.ar    1  UNL1        0.0372
     14 C          -3.0586  -18.8974   21.5431 C.ar    1  UNL1        0.1468
     15 C          -4.0957  -18.3450   22.4755 C.ar    1  UNL1        0.0373
     16 O          -3.1689  -20.3102   21.0510 O.3     1  UNL1       -0.4045
     17 C          -4.3507  -20.7272   20.2268 C.3     1  UNL1        0.5753
     18 F          -5.5326  -21.1442   19.4025 F       1  UNL1       -0.1328
     19 F          -5.1053  -21.0632   21.4789 F       1  UNL1       -0.1328
     20 F          -3.5961  -20.3912   18.9747 F       1  UNL1       -0.1328
     21 N          -9.6397  -16.9120   21.2882 N.pl3   1  UNL1       -0.3180
     22 H          -9.5892  -16.3993   20.4492 H       1  UNL1        0.1482
     23 C         -10.5457  -18.1034   21.3857 C.3     1  UNL1        0.0882
     24 C         -14.4224  -18.5595   25.9424 C.3     1  UNL1        0.0896
     25 N         -13.4532  -18.4455   24.8032 N.3     1  UNL1       -0.2715
     26 C         -13.8296  -17.6749   23.5725 C.3     1  UNL1        0.0722
     27 C         -12.8605  -17.5609   22.4334 C.3     1  UNL1        0.0191
     28 C         -11.5149  -18.2174   22.5249 C.3     1  UNL1        0.0223
     29 C         -11.1385  -18.9880   23.7555 C.3     1  UNL1        0.0191
     30 C         -12.1076  -19.1020   24.8947 C.3     1  UNL1        0.0722
@<TRIPOS>BOND
     1    24    25    1
     2    25    26    1
     3    26    27    1
     4    27    28    1
     5    28    23    1
     6    23    21    1
     7    21     1    1
     8     1     2   ar
     9     2     3   ar
    10     3     4   ar
    11     4     5   ar
    12     5     6   ar
    13     6     7   ar
    14     7    10    1
    15    10    11   ar
    16    11    12   ar
    17    12    13   ar
    18    13    14   ar
    19    14    16    1
    20    16    17    1
    21    17    18    1
    22    17    19    1
    23    17    20    1
    24    14    15   ar
    25     7     8   ar
    26     8     9   ar
    27    28    29    1
    28    29    30    1
    29    30    25    1
    30     9     1   ar
    31     8     4   ar
    32    15    10   ar
    33    21    22    1
@<TRIPOS>MOLECULE
*****
 30 33 0 0 0
SMALL
GASTEIGER

@<TRIPOS>ATOM
      1 C          -8.1480  -15.5665   22.8940 C.ar    1  UNL1        0.1317
      2 C          -8.4808  -14.9274   24.2095 C.ar    1  UNL1        0.0548
      3 C          -7.5026  -14.9943   25.3446 C.ar    1  UNL1        0.1049
      4 N          -6.1915  -15.7003   25.1642 N.ar    1  UNL1       -0.2105
      5 N          -5.0372  -15.9272   26.0950 N.ar    1  UNL1       -0.1621
      6 C          -3.9911  -16.7066   25.3546 C.ar    1  UNL1        0.1236
      7 C          -4.4987  -16.9613   23.9663 C.ar    1  UNL1        0.0569
      8 C          -5.8586  -16.3394   23.8486 C.ar    1  UNL1        0.1666
      9 N          -6.8369  -16.2725   22.7135 N.ar    1  UNL1       -0.2120
     10 C          -3.7738  -17.7071   22.8855 C.ar    1  UNL1        0.0075
     11 C          -2.3747  -17.3151   22.5126 C.ar    1  UNL1        0.0003
     12 C          -1.6497  -18.0609   21.4317 C.ar    1  UNL1        0.0031
     13 C          -2.3237  -19.1985   20.7237 C.ar    1  UNL1        0.0372
     14 C          -3.7228  -19.5905   21.0966 C.ar    1  UNL1        0.1468
     15 C          -4.4478  -18.8448   22.1774 C.ar    1  UNL1        0.0373
     16 O          -4.3969  -20.7283   20.3885 O.3     1  UNL1       -0.4045
     17 C          -5.8491  -20.6310   20.0259 C.3     1  UNL1        0.5753
     18 F          -7.3014  -20.5336   19.6632 F       1  UNL1       -0.1328
     19 F          -6.0612  -22.0391   20.4973 F       1  UNL1       -0.1328
     20 F          -5.6370  -19.2228   19.5545 F       1  UNL1       -0.1328
     21 N          -9.1262  -15.4996   21.7588 N.pl3   1  UNL1       -0.3180
     22 H          -9.1138  -14.7316   21.1429 H       1  UNL1        0.1482
     23 C         -10.1234  -16.6027   21.5620 C.3     1  UNL1        0.0882
     24 C          -9.8634  -21.5267   24.9806 C.3     1  UNL1        0.0896
     25 N          -9.9284  -20.2957   24.1260 N.3     1  UNL1       -0.2715
     26 C          -9.0074  -20.1488   22.9511 C.3     1  UNL1        0.0722
     27 C          -9.0724  -18.9179   22.0965 C.3     1  UNL1        0.0191
     28 C         -10.0584  -17.8338   22.4167 C.3     1  UNL1        0.0223
     29 C         -10.9794  -17.9806   23.5915 C.3     1  UNL1        0.0191
     30 C         -10.9144  -19.2116   24.4461 C.3     1  UNL1        0.0722
@<TRIPOS>BOND
     1    24    25    1
     2    25    26    1
     3    26    27    1
     4    27    28    1
     5    28    23    1
     6    23    21    1
     7    21     1    1
     8     1     2   ar
     9     2     3   ar
    10     3     4   ar
    11     4     5   ar
    12     5     6   ar
    13     6     7   ar
    14     7    10    1
    15    10    11   ar
    16    11    12   ar
    17    12    13   ar
    18    13    14   ar
    19    14    16    1
    20    16    17    1
    21    17    18    1
    22    17    19    1
    23    17    20    1
    24    14    15   ar
    25     7     8   ar
    26     8     9   ar
    27    28    29    1
    28    29    30    1
    29    30    25    1
    30     9     1   ar
    31     8     4   ar
    32    15    10   ar
    33    21    22    1
