@<TRIPOS>MOLECULE
*****
 25 28 0 0 0
SMALL
GASTEIGER

@<TRIPOS>ATOM
      1 C           2.5277   -0.4993   19.0950 C.3     1  UNL1        0.0826
      2 C           1.4898   -0.7322   20.1526 C.3     1  UNL1        0.0309
      3 C           0.5060    0.3490   20.4888 C.3     1  UNL1        0.0954
      4 N           0.5601    1.6631   19.7675 N.am    1  UNL1       -0.2642
      5 C          -0.4238    2.7443   20.1038 C.2     1  UNL1        0.3039
      6 O          -0.3697    4.0584   19.3824 O.2     1  UNL1       -0.2526
      7 N          -1.4617    2.5114   21.1613 N.am    1  UNL1       -0.2901
      8 C           1.5980    1.8960   18.7100 C.3     1  UNL1        0.0954
      9 C           2.5818    0.8148   18.3737 C.3     1  UNL1        0.0309
     10 H          -1.4972    1.6489   21.6347 H       1  UNL1        0.1509
     11 C           4.9035   -5.2037   18.7708 C.3     1  UNL1        0.0773
     12 C           4.6036   -3.7429   18.6097 C.ar    1  UNL1        0.1809
     13 N           5.4477   -2.7455   17.8728 N.ar    1  UNL1       -0.0606
     14 O           4.7728   -1.4092   17.9650 O.2     1  UNL1       -0.3374
     15 C           3.5116   -1.5805   18.7588 C.ar    1  UNL1        0.2359
     16 N           3.4071   -3.0228   19.1572 N.ar    1  UNL1       -0.1949
     17 C          -2.4456    3.5926   21.4976 C.3     1  UNL1        0.0774
     18 C          -3.2697    4.7746   21.0807 C.3     1  UNL1        0.0259
     19 C          -3.3257    4.2832   22.4968 C.3     1  UNL1        0.0420
     20 C          -3.8662    4.3983   23.8913 C.ar    1  UNL1       -0.0208
     21 C          -3.1103    3.7997   25.0404 C.ar    1  UNL1       -0.0042
     22 C          -3.6507    3.9147   26.4349 C.ar    1  UNL1       -0.0003
     23 C          -4.9471    4.6283   26.6803 C.ar    1  UNL1       -0.0000
     24 C          -5.7030    5.2269   25.5313 C.ar    1  UNL1       -0.0003
     25 C          -5.1625    5.1118   24.1367 C.ar    1  UNL1       -0.0042
@<TRIPOS>BOND
     1    11    12    1
     2    12    13   ar
     3    13    14   ar
     4    14    15   ar
     5    15     1    1
     6     1     2    1
     7     2     3    1
     8     3     4    1
     9     4     5   am
    10     5     6    2
    11     5     7   am
    12     7    17    1
    13    17    18    1
    14    18    19    1
    15    19    20    1
    16    20    21   ar
    17    21    22   ar
    18    22    23   ar
    19    23    24   ar
    20    24    25   ar
    21     4     8    1
    22     8     9    1
    23    15    16   ar
    24    16    12   ar
    25     9     1    1
    26    19    17    1
    27    25    20   ar
    28     7    10    1
@<TRIPOS>MOLECULE
*****
 25 28 0 0 0
SMALL
GASTEIGER

@<TRIPOS>ATOM
      1 C           2.5029   -0.4977   19.1034 C.3     1  UNL1        0.0826
      2 C           1.5218   -0.6765   20.2238 C.3     1  UNL1        0.0309
      3 C           0.5386    0.4112   20.5405 C.3     1  UNL1        0.0954
      4 N           0.5365    1.6776   19.7367 N.am    1  UNL1       -0.2642
      5 C          -0.4467    2.7653   20.0534 C.2     1  UNL1        0.3039
      6 O          -0.4488    4.0317   19.2495 O.2     1  UNL1       -0.2526
      7 N          -1.4278    2.5865   21.1738 N.am    1  UNL1       -0.2901
      8 C           1.5176    1.8564   18.6162 C.3     1  UNL1        0.0954
      9 C           2.5008    0.7687   18.2996 C.3     1  UNL1        0.0309
     10 H          -1.4264    1.7553   21.7014 H       1  UNL1        0.1509
     11 C           4.8532   -5.2179   18.8254 C.3     1  UNL1        0.0773
     12 C           4.5664   -3.7550   18.6589 C.ar    1  UNL1        0.1809
     13 N           5.4320   -2.7632   17.9397 N.ar    1  UNL1       -0.0606
     14 O           4.7643   -1.4223   18.0187 O.2     1  UNL1       -0.3374
     15 C           3.4862   -1.5854   18.7867 C.ar    1  UNL1        0.2359
     16 N           3.3639   -3.0271   19.1823 N.ar    1  UNL1       -0.1949
     17 C          -2.4111    3.6742   21.4905 C.3     1  UNL1        0.0774
     18 C          -2.8053    4.8733   22.3007 C.3     1  UNL1        0.0259
     19 C          -3.7197    4.3589   21.2288 C.3     1  UNL1        0.0420
     20 C          -5.0032    4.4572   20.4588 C.ar    1  UNL1       -0.0208
     21 C          -5.9603    5.5784   20.7361 C.ar    1  UNL1       -0.0042
     22 C          -7.2438    5.6767   19.9661 C.ar    1  UNL1       -0.0003
     23 C          -7.5703    4.6537   18.9187 C.ar    1  UNL1       -0.0000
     24 C          -6.6133    3.5324   18.6414 C.ar    1  UNL1       -0.0003
     25 C          -5.3297    3.4342   19.4115 C.ar    1  UNL1       -0.0042
@<TRIPOS>BOND
     1    11    12    1
     2    12    13   ar
     3    13    14   ar
     4    14    15   ar
     5    15     1    1
     6     1     2    1
     7     2     3    1
     8     3     4    1
     9     4     5   am
    10     5     6    2
    11     5     7   am
    12     7    17    1
    13    17    18    1
    14    18    19    1
    15    19    20    1
    16    20    21   ar
    17    21    22   ar
    18    22    23   ar
    19    23    24   ar
    20    24    25   ar
    21     4     8    1
    22     8     9    1
    23    15    16   ar
    24    16    12   ar
    25     9     1    1
    26    19    17    1
    27    25    20   ar
    28     7    10    1
@<TRIPOS>MOLECULE
*****
 25 28 0 0 0
SMALL
GASTEIGER

@<TRIPOS>ATOM
      1 C          -1.6888    3.2649   25.9267 C.3     1  UNL1        0.0826
      2 C          -0.9431    2.2959   26.7956 C.3     1  UNL1        0.0309
      3 C           0.1761    1.4799   26.2198 C.3     1  UNL1        0.0954
      4 N           0.5495    1.6329   24.7751 N.am    1  UNL1       -0.2642
      5 C           1.6687    0.8169   24.1993 C.2     1  UNL1        0.3039
      6 O           2.0422    0.9698   22.7546 O.2     1  UNL1       -0.2526
      7 N           2.4144   -0.1521   25.0682 N.am    1  UNL1       -0.2901
      8 C          -0.1962    2.6019   23.9062 C.3     1  UNL1        0.0954
      9 C          -1.3153    3.4179   24.4820 C.3     1  UNL1        0.0309
     10 H           2.1693   -0.2525   26.0164 H       1  UNL1        0.1509
     11 C          -4.4180    7.2578   28.0456 C.3     1  UNL1        0.0773
     12 C          -4.0625    5.9162   27.4764 C.ar    1  UNL1        0.1809
     13 N          -4.9981    4.7570   27.3007 N.ar    1  UNL1       -0.0606
     14 O          -4.2228    3.6228   26.6988 O.2     1  UNL1       -0.3374
     15 C          -2.8080    4.0809   26.5025 C.ar    1  UNL1        0.2359
     16 N          -2.7090    5.4984   26.9831 N.ar    1  UNL1       -0.1949
     17 C           3.5337   -0.9682   24.4924 C.3     1  UNL1        0.0774
     18 C           4.8993   -1.5748   24.6225 C.3     1  UNL1        0.0259
     19 C           4.1065   -1.7749   23.3650 C.3     1  UNL1        0.0420
     20 C           3.9795   -2.3561   21.9880 C.ar    1  UNL1       -0.0208
     21 C           3.4225   -1.5240   20.8711 C.ar    1  UNL1       -0.0042
     22 C           3.2955   -2.1053   19.4942 C.ar    1  UNL1       -0.0003
     23 C           3.7256   -3.5186   19.2341 C.ar    1  UNL1       -0.0000
     24 C           4.2826   -4.3507   20.3510 C.ar    1  UNL1       -0.0003
     25 C           4.4095   -3.7694   21.7280 C.ar    1  UNL1       -0.0042
@<TRIPOS>BOND
     1    11    12    1
     2    12    13   ar
     3    13    14   ar
     4    14    15   ar
     5    15     1    1
     6     1     2    1
     7     2     3    1
     8     3     4    1
     9     4     5   am
    10     5     6    2
    11     5     7   am
    12     7    17    1
    13    17    18    1
    14    18    19    1
    15    19    20    1
    16    20    21   ar
    17    21    22   ar
    18    22    23   ar
    19    23    24   ar
    20    24    25   ar
    21     4     8    1
    22     8     9    1
    23    15    16   ar
    24    16    12   ar
    25     9     1    1
    26    19    17    1
    27    25    20   ar
    28     7    10    1
@<TRIPOS>MOLECULE
*****
 25 28 0 0 0
SMALL
GASTEIGER

@<TRIPOS>ATOM
      1 C           4.2280   -0.9367   30.4260 C.3     1  UNL1        0.0826
      2 C           2.9015   -0.7150   29.7620 C.3     1  UNL1        0.0309
      3 C           2.8265   -0.5496   28.2730 C.3     1  UNL1        0.0954
      4 N           4.0780   -0.6059   27.4482 N.am    1  UNL1       -0.2642
      5 C           4.0030   -0.4405   25.9592 C.2     1  UNL1        0.3039
      6 O           5.2546   -0.4968   25.1343 O.2     1  UNL1       -0.2526
      7 N           2.6764   -0.2188   25.2951 N.am    1  UNL1       -0.2901
      8 C           5.4046   -0.8276   28.1123 C.3     1  UNL1        0.0954
      9 C           5.4796   -0.9930   29.6012 C.3     1  UNL1        0.0309
     10 H           1.8550   -0.1818   25.8365 H       1  UNL1        0.1509
     11 C           5.4394   -0.1749   35.5087 C.3     1  UNL1        0.0773
     12 C           4.8598   -0.7520   34.2513 C.ar    1  UNL1        0.1809
     13 N           3.9772   -1.9615   34.1614 N.ar    1  UNL1       -0.0606
     14 O           3.6331   -2.1779   32.7175 O.2     1  UNL1       -0.3374
     15 C           4.3031   -1.1021   31.9151 C.ar    1  UNL1        0.2359
     16 N           5.0612   -0.2209   32.8630 N.ar    1  UNL1       -0.1949
     17 C           2.6014   -0.0534   23.8061 C.3     1  UNL1        0.0774
     18 C           2.2113    0.7596   22.6074 C.3     1  UNL1        0.0259
     19 C           2.8615   -0.5798   22.4258 C.3     1  UNL1        0.0420
     20 C           3.3870   -1.6572   21.5241 C.ar    1  UNL1       -0.0208
     21 C           2.9901   -1.6845   20.0778 C.ar    1  UNL1       -0.0042
     22 C           3.5156   -2.7618   19.1761 C.ar    1  UNL1       -0.0003
     23 C           4.4381   -3.8119   19.7206 C.ar    1  UNL1       -0.0000
     24 C           4.8349   -3.7846   21.1669 C.ar    1  UNL1       -0.0003
     25 C           4.3094   -2.7072   22.0686 C.ar    1  UNL1       -0.0042
@<TRIPOS>BOND
     1    11    12    1
     2    12    13   ar
     3    13    14   ar
     4    14    15   ar
     5    15     1    1
     6     1     2    1
     7     2     3    1
     8     3     4    1
     9     4     5   am
    10     5     6    2
    11     5     7   am
    12     7    17    1
    13    17    18    1
    14    18    19    1
    15    19    20    1
    16    20    21   ar
    17    21    22   ar
    18    22    23   ar
    19    23    24   ar
    20    24    25   ar
    21     4     8    1
    22     8     9    1
    23    15    16   ar
    24    16    12   ar
    25     9     1    1
    26    19    17    1
    27    25    20   ar
    28     7    10    1
@<TRIPOS>MOLECULE
*****
 25 28 0 0 0
SMALL
GASTEIGER

@<TRIPOS>ATOM
      1 C           7.2857   -5.1136   27.3640 C.3     1  UNL1        0.0826
      2 C           6.8082   -3.7210   27.0766 C.3     1  UNL1        0.0309
      3 C           6.5989   -3.2776   25.6590 C.3     1  UNL1        0.0954
      4 N           6.8671   -4.2268   24.5289 N.am    1  UNL1       -0.2642
      5 C           6.6578   -3.7833   23.1113 C.2     1  UNL1        0.3039
      6 O           6.9261   -4.7325   21.9812 O.2     1  UNL1       -0.2526
      7 N           6.1803   -2.3908   22.8238 N.am    1  UNL1       -0.2901
      8 C           7.3447   -5.6193   24.8164 C.3     1  UNL1        0.0954
      9 C           7.5540   -6.0627   26.2339 C.3     1  UNL1        0.0309
     10 H           6.0042   -1.7678   23.5655 H       1  UNL1        0.1509
     11 C           9.5359   -6.9743   31.7636 C.3     1  UNL1        0.0773
     12 C           8.5293   -6.4123   30.8039 C.ar    1  UNL1        0.1809
     13 N           7.1048   -6.0666   31.1223 N.ar    1  UNL1       -0.0606
     14 O           6.4656   -5.5380   29.8725 O.2     1  UNL1       -0.3374
     15 C           7.4950   -5.5570   28.7817 C.ar    1  UNL1        0.2359
     16 N           8.7704   -6.0974   29.3573 N.ar    1  UNL1       -0.1949
     17 C           5.9709   -1.9473   21.4062 C.3     1  UNL1        0.0774
     18 C           6.4924   -1.7654   20.0116 C.3     1  UNL1        0.0259
     19 C           5.0870   -1.3611   20.3455 C.3     1  UNL1        0.0420
     20 C           3.7653   -0.7893   19.9259 C.ar    1  UNL1       -0.0208
     21 C           3.6897    0.1429   18.7532 C.ar    1  UNL1       -0.0042
     22 C           2.3680    0.7147   18.3336 C.ar    1  UNL1       -0.0003
     23 C           1.1218    0.3542   19.0867 C.ar    1  UNL1       -0.0000
     24 C           1.1974   -0.5780   20.2594 C.ar    1  UNL1       -0.0003
     25 C           2.5192   -1.1498   20.6790 C.ar    1  UNL1       -0.0042
@<TRIPOS>BOND
     1    11    12    1
     2    12    13   ar
     3    13    14   ar
     4    14    15   ar
     5    15     1    1
     6     1     2    1
     7     2     3    1
     8     3     4    1
     9     4     5   am
    10     5     6    2
    11     5     7   am
    12     7    17    1
    13    17    18    1
    14    18    19    1
    15    19    20    1
    16    20    21   ar
    17    21    22   ar
    18    22    23   ar
    19    23    24   ar
    20    24    25   ar
    21     4     8    1
    22     8     9    1
    23    15    16   ar
    24    16    12   ar
    25     9     1    1
    26    19    17    1
    27    25    20   ar
    28     7    10    1
@<TRIPOS>MOLECULE
*****
 25 28 0 0 0
SMALL
GASTEIGER

@<TRIPOS>ATOM
      1 C           2.3405   -0.5513   19.2998 C.3     1  UNL1        0.0826
      2 C           1.9240    0.4397   18.2537 C.3     1  UNL1        0.0309
      3 C           0.9197    1.5032   18.5856 C.3     1  UNL1        0.0954
      4 N           0.3318    1.5757   19.9637 N.am    1  UNL1       -0.2642
      5 C          -0.6726    2.6393   20.2957 C.2     1  UNL1        0.3039
      6 O          -1.2604    2.7118   21.6738 O.2     1  UNL1       -0.2526
      7 N          -1.0891    3.6303   19.2495 N.am    1  UNL1       -0.2901
      8 C           0.7483    0.5847   21.0099 C.3     1  UNL1        0.0954
      9 C           1.7526   -0.4788   20.6779 C.3     1  UNL1        0.0309
     10 H          -0.7032    3.5827   18.3450 H       1  UNL1        0.1509
     11 C           4.7577   -5.2295   18.9093 C.3     1  UNL1        0.0773
     12 C           4.4559   -3.7652   18.7883 C.ar    1  UNL1        0.1809
     13 N           5.3250   -2.7376   18.1257 N.ar    1  UNL1       -0.0606
     14 O           4.6383   -1.4087   18.2367 O.2     1  UNL1       -0.3374
     15 C           3.3449   -1.6148   18.9679 C.ar    1  UNL1        0.2359
     16 N           3.2322   -3.0712   19.3088 N.ar    1  UNL1       -0.1949
     17 C          -2.0934    4.6938   19.5815 C.3     1  UNL1        0.0774
     18 C          -2.5645    6.1140   19.4761 C.3     1  UNL1        0.0259
     19 C          -3.3620    5.1157   20.2618 C.3     1  UNL1        0.0420
     20 C          -4.5548    4.7829   21.1082 C.ar    1  UNL1       -0.0208
     21 C          -5.8885    5.3957   20.7988 C.ar    1  UNL1       -0.0042
     22 C          -7.0813    5.0629   21.6452 C.ar    1  UNL1       -0.0003
     23 C          -6.9404    4.1173   22.8011 C.ar    1  UNL1       -0.0000
     24 C          -5.6067    3.5046   23.1106 C.ar    1  UNL1       -0.0003
     25 C          -4.4138    3.8374   22.2641 C.ar    1  UNL1       -0.0042
@<TRIPOS>BOND
     1    11    12    1
     2    12    13   ar
     3    13    14   ar
     4    14    15   ar
     5    15     1    1
     6     1     2    1
     7     2     3    1
     8     3     4    1
     9     4     5   am
    10     5     6    2
    11     5     7   am
    12     7    17    1
    13    17    18    1
    14    18    19    1
    15    19    20    1
    16    20    21   ar
    17    21    22   ar
    18    22    23   ar
    19    23    24   ar
    20    24    25   ar
    21     4     8    1
    22     8     9    1
    23    15    16   ar
    24    16    12   ar
    25     9     1    1
    26    19    17    1
    27    25    20   ar
    28     7    10    1
@<TRIPOS>MOLECULE
*****
 25 28 0 0 0
SMALL
GASTEIGER

@<TRIPOS>ATOM
      1 C           2.2498    0.4511   28.0969 C.3     1  UNL1        0.0826
      2 C           3.0907   -0.7564   28.3882 C.3     1  UNL1        0.0309
      3 C           3.8117   -1.4548   27.2736 C.3     1  UNL1        0.0954
      4 N           3.6919   -0.9457   25.8678 N.am    1  UNL1       -0.2642
      5 C           4.4130   -1.6442   24.7531 C.2     1  UNL1        0.3039
      6 O           4.2931   -1.1351   23.3473 O.2     1  UNL1       -0.2526
      7 N           5.2539   -2.8516   25.0444 N.am    1  UNL1       -0.2901
      8 C           2.8510    0.2618   25.5765 C.3     1  UNL1        0.0954
      9 C           2.1300    0.9601   26.6910 C.3     1  UNL1        0.0309
     10 H           5.3325   -3.1857   25.9672 H       1  UNL1        0.1509
     11 C           0.5483    4.1957   31.4081 C.3     1  UNL1        0.0773
     12 C           0.7466    2.8707   30.7335 C.ar    1  UNL1        0.1809
     13 N           0.0916    1.5778   31.1199 N.ar    1  UNL1       -0.0606
     14 O           0.5750    0.5141   30.1792 O.2     1  UNL1       -0.3374
     15 C           1.5287    1.1495   29.2115 C.ar    1  UNL1        0.2359
     16 N           1.6348    2.6060   29.5540 N.ar    1  UNL1       -0.1949
     17 C           5.9749   -3.5501   23.9298 C.3     1  UNL1        0.0774
     18 C           7.0361   -4.5029   23.4653 C.3     1  UNL1        0.0259
     19 C           6.1627   -3.8069   22.4640 C.3     1  UNL1        0.0420
     20 C           5.7668   -3.5534   21.0396 C.ar    1  UNL1       -0.0208
     21 C           4.4302   -4.0150   20.5391 C.ar    1  UNL1       -0.0042
     22 C           4.0343   -3.7615   19.1147 C.ar    1  UNL1       -0.0003
     23 C           4.9749   -3.0463   18.1907 C.ar    1  UNL1       -0.0000
     24 C           6.3115   -2.5846   18.6912 C.ar    1  UNL1       -0.0003
     25 C           6.7074   -2.8382   20.1157 C.ar    1  UNL1       -0.0042
@<TRIPOS>BOND
     1    11    12    1
     2    12    13   ar
     3    13    14   ar
     4    14    15   ar
     5    15     1    1
     6     1     2    1
     7     2     3    1
     8     3     4    1
     9     4     5   am
    10     5     6    2
    11     5     7   am
    12     7    17    1
    13    17    18    1
    14    18    19    1
    15    19    20    1
    16    20    21   ar
    17    21    22   ar
    18    22    23   ar
    19    23    24   ar
    20    24    25   ar
    21     4     8    1
    22     8     9    1
    23    15    16   ar
    24    16    12   ar
    25     9     1    1
    26    19    17    1
    27    25    20   ar
    28     7    10    1
@<TRIPOS>MOLECULE
*****
 25 28 0 0 0
SMALL
GASTEIGER

@<TRIPOS>ATOM
      1 C           3.9081   -2.0179   21.8045 C.3     1  UNL1        0.0826
      2 C           3.1606   -1.0535   22.6769 C.3     1  UNL1        0.0309
      3 C           2.1569   -0.1175   22.0716 C.3     1  UNL1        0.0954
      4 N           1.9006   -0.1460   20.5939 N.am    1  UNL1       -0.2642
      5 C           0.8968    0.7900   19.9886 C.2     1  UNL1        0.3039
      6 O           0.6405    0.7615   18.5109 O.2     1  UNL1       -0.2526
      7 N           0.1493    1.7545   20.8610 N.am    1  UNL1       -0.2901
      8 C           2.6481   -1.1105   19.7215 C.3     1  UNL1        0.0954
      9 C           3.6518   -2.0464   20.3268 C.3     1  UNL1        0.0309
     10 H           0.3176    1.7732   21.8308 H       1  UNL1        0.1509
     11 C           6.9610   -4.5272   25.3066 C.3     1  UNL1        0.0773
     12 C           6.3151   -4.1073   24.0195 C.ar    1  UNL1        0.1809
     13 N           6.5980   -4.6813   22.6628 N.ar    1  UNL1       -0.0606
     14 O           5.7307   -3.9685   21.6680 O.2     1  UNL1       -0.3374
     15 C           4.9119   -2.9540   22.4098 C.ar    1  UNL1        0.2359
     16 N           5.2731   -3.0398   23.8631 N.ar    1  UNL1       -0.1949
     17 C          -0.8545    2.6905   20.2557 C.3     1  UNL1        0.0774
     18 C          -1.2448    3.6550   19.1753 C.3     1  UNL1        0.0259
     19 C          -2.2027    3.3472   20.2877 C.3     1  UNL1        0.0420
     20 C          -3.5342    3.5485   20.9484 C.ar    1  UNL1       -0.0208
     21 C          -3.6402    3.5248   22.4445 C.ar    1  UNL1       -0.0042
     22 C          -4.9717    3.7262   23.1053 C.ar    1  UNL1       -0.0003
     23 C          -6.1972    3.9512   22.2700 C.ar    1  UNL1       -0.0000
     24 C          -6.0911    3.9749   20.7739 C.ar    1  UNL1       -0.0003
     25 C          -4.7595    3.7736   20.1131 C.ar    1  UNL1       -0.0042
@<TRIPOS>BOND
     1    11    12    1
     2    12    13   ar
     3    13    14   ar
     4    14    15   ar
     5    15     1    1
     6     1     2    1
     7     2     3    1
     8     3     4    1
     9     4     5   am
    10     5     6    2
    11     5     7   am
    12     7    17    1
    13    17    18    1
    14    18    19    1
    15    19    20    1
    16    20    21   ar
    17    21    22   ar
    18    22    23   ar
    19    23    24   ar
    20    24    25   ar
    21     4     8    1
    22     8     9    1
    23    15    16   ar
    24    16    12   ar
    25     9     1    1
    26    19    17    1
    27    25    20   ar
    28     7    10    1
@<TRIPOS>MOLECULE
*****
 25 28 0 0 0
SMALL
GASTEIGER

@<TRIPOS>ATOM
      1 C           5.2076   -2.9122   23.7947 C.3     1  UNL1        0.0826
      2 C           6.2450   -3.8359   24.3609 C.3     1  UNL1        0.0309
      3 C           6.6560   -3.7112   25.7981 C.3     1  UNL1        0.0954
      4 N           6.0297   -2.6627   26.6690 N.am    1  UNL1       -0.2642
      5 C           6.4408   -2.5380   28.1062 C.2     1  UNL1        0.3039
      6 O           5.8145   -1.4896   28.9771 O.2     1  UNL1       -0.2526
      7 N           7.4781   -3.4617   28.6724 N.am    1  UNL1       -0.2901
      8 C           4.9924   -1.7390   26.1028 C.3     1  UNL1        0.0954
      9 C           4.5813   -1.8638   24.6656 C.3     1  UNL1        0.0309
     10 H           7.8892   -4.1499   28.1008 H       1  UNL1        0.1509
     11 C           4.2429   -4.9084   19.0024 C.3     1  UNL1        0.0773
     12 C           4.3531   -3.9544   20.1547 C.ar    1  UNL1        0.1809
     13 N           3.9747   -2.5030   20.1370 N.ar    1  UNL1       -0.0606
     14 O           4.2488   -1.9360   21.4984 O.2     1  UNL1       -0.3374
     15 C           4.7965   -3.0369   22.3575 C.ar    1  UNL1        0.2359
     16 N           4.8610   -4.2844   21.5270 N.ar    1  UNL1       -0.1949
     17 C           7.8892   -3.3370   30.1096 C.3     1  UNL1        0.0774
     18 C           8.8980   -3.5629   31.1965 C.3     1  UNL1        0.0259
     19 C           7.5925   -2.8952   31.5120 C.3     1  UNL1        0.0420
     20 C           6.6674   -2.2546   32.5039 C.ar    1  UNL1       -0.0208
     21 C           7.1130   -1.0468   33.2736 C.ar    1  UNL1       -0.0042
     22 C           6.1878   -0.4062   34.2654 C.ar    1  UNL1       -0.0003
     23 C           4.8170   -0.9734   34.4875 C.ar    1  UNL1       -0.0000
     24 C           4.3714   -2.1812   33.7177 C.ar    1  UNL1       -0.0003
     25 C           5.2966   -2.8218   32.7259 C.ar    1  UNL1       -0.0042
@<TRIPOS>BOND
     1    11    12    1
     2    12    13   ar
     3    13    14   ar
     4    14    15   ar
     5    15     1    1
     6     1     2    1
     7     2     3    1
     8     3     4    1
     9     4     5   am
    10     5     6    2
    11     5     7   am
    12     7    17    1
    13    17    18    1
    14    18    19    1
    15    19    20    1
    16    20    21   ar
    17    21    22   ar
    18    22    23   ar
    19    23    24   ar
    20    24    25   ar
    21     4     8    1
    22     8     9    1
    23    15    16   ar
    24    16    12   ar
    25     9     1    1
    26    19    17    1
    27    25    20   ar
    28     7    10    1
