@<TRIPOS>MOLECULE
*****
 23 25 0 0 0
SMALL
GASTEIGER

@<TRIPOS>ATOM
      1 C          -7.9466  -17.9767   21.6601 C.3     1  UNL1        0.1471
      2 O          -6.6543  -17.3019   22.0129 O.3     1  UNL1       -0.3812
      3 C          -9.0525  -18.8712   21.1836 C.3     1  UNL1        0.0584
      4 C         -10.3579  -18.2321   21.5544 C.ar    1  UNL1       -0.0202
      5 C         -11.7803  -18.6577   21.3406 C.ar    1  UNL1       -0.0044
      6 C         -12.9036  -17.7939   21.8325 C.ar    1  UNL1       -0.0003
      7 C         -12.6045  -16.5044   22.5380 C.ar    1  UNL1       -0.0002
      8 C         -11.1822  -16.0788   22.7518 C.ar    1  UNL1       -0.0011
      9 C         -10.0589  -16.9426   22.2599 C.ar    1  UNL1        0.0157
     10 C          -8.5686  -16.7848   22.3253 C.3     1  UNL1        0.2137
     11 H          -5.9116  -17.8439   21.7038 H       1  UNL1        0.2105
     12 C          -7.0545  -19.0275   21.0686 C.3     1  UNL1        0.1001
     13 C          -4.7533  -19.1981   19.8746 C.3     1  UNL1        0.0859
     14 N          -6.1642  -18.6899   19.9096 N.3     1  UNL1       -0.2942
     15 H          -6.6254  -19.0435   19.0713 H       1  UNL1        0.1234
     16 O          -7.8301  -15.6366   22.9467 O.3     1  UNL1       -0.4714
     17 C          -7.5295  -15.6455   24.4163 C.ar    1  UNL1        0.1494
     18 C          -8.6372  -15.8485   25.4072 C.ar    1  UNL1        0.0378
     19 C          -8.3367  -15.8574   26.8767 C.ar    1  UNL1        0.0032
     20 C          -6.9284  -15.6634   27.3554 C.ar    1  UNL1        0.0011
     21 C          -5.8207  -15.4604   26.3645 C.ar    1  UNL1        0.0145
     22 C          -6.1212  -15.4514   24.8950 C.ar    1  UNL1        0.0915
     23 CL         -5.0135  -15.2485   23.9042 Cl      1  UNL1       -0.0791
@<TRIPOS>BOND
     1    13    14    1
     2    14    12    1
     3    12     1    1
     4     1     2    1
     5     1     3    1
     6     3     4    1
     7     4     5   ar
     8     5     6   ar
     9     6     7   ar
    10     7     8   ar
    11     8     9   ar
    12     9    10    1
    13    10    16    1
    14    16    17    1
    15    17    18   ar
    16    18    19   ar
    17    19    20   ar
    18    20    21   ar
    19    21    22   ar
    20    22    23    1
    21    10     1    1
    22    22    17   ar
    23     9     4   ar
    24    14    15    1
    25     2    11    1
@<TRIPOS>MOLECULE
*****
 23 25 0 0 0
SMALL
GASTEIGER

@<TRIPOS>ATOM
      1 C          -9.7568  -17.0442   21.7580 C.3     1  UNL1        0.1471
      2 O         -10.1377  -15.6875   22.2719 O.3     1  UNL1       -0.3812
      3 C          -9.6741  -18.4119   21.1476 C.3     1  UNL1        0.0584
      4 C          -8.2763  -18.9213   21.3391 C.ar    1  UNL1       -0.0202
      5 C          -7.6139  -20.2078   20.9441 C.ar    1  UNL1       -0.0044
      6 C          -6.1703  -20.4414   21.2778 C.ar    1  UNL1       -0.0003
      7 C          -5.3891  -19.3884   22.0065 C.ar    1  UNL1       -0.0002
      8 C          -6.0515  -18.1019   22.4015 C.ar    1  UNL1       -0.0011
      9 C          -7.4951  -17.8684   22.0678 C.ar    1  UNL1        0.0157
     10 C          -8.4101  -16.7083   22.3267 C.3     1  UNL1        0.2137
     11 H         -11.0698  -15.5140   22.0669 H       1  UNL1        0.2105
     12 C         -11.1832  -17.0966   21.2967 C.3     1  UNL1        0.1001
     13 C         -11.7483  -15.6878   19.1881 C.3     1  UNL1        0.0859
     14 N         -11.5013  -17.0195   19.8328 N.3     1  UNL1       -0.2942
     15 H         -10.7173  -17.4452   19.3383 H       1  UNL1        0.1234
     16 O          -8.0428  -15.4357   23.0307 O.3     1  UNL1       -0.4714
     17 C          -7.6307  -15.4683   24.4727 C.ar    1  UNL1        0.1494
     18 C          -8.6651  -15.6448   25.5445 C.ar    1  UNL1        0.0378
     19 C          -8.2531  -15.6774   26.9864 C.ar    1  UNL1        0.0032
     20 C          -6.8066  -15.5334   27.3565 C.ar    1  UNL1        0.0011
     21 C          -5.7722  -15.3569   26.2847 C.ar    1  UNL1        0.0145
     22 C          -6.1842  -15.3243   24.8428 C.ar    1  UNL1        0.0915
     23 CL         -5.1498  -15.1478   23.7709 Cl      1  UNL1       -0.0791
@<TRIPOS>BOND
     1    13    14    1
     2    14    12    1
     3    12     1    1
     4     1     2    1
     5     1     3    1
     6     3     4    1
     7     4     5   ar
     8     5     6   ar
     9     6     7   ar
    10     7     8   ar
    11     8     9   ar
    12     9    10    1
    13    10    16    1
    14    16    17    1
    15    17    18   ar
    16    18    19   ar
    17    19    20   ar
    18    20    21   ar
    19    21    22   ar
    20    22    23    1
    21    10     1    1
    22    22    17   ar
    23     9     4   ar
    24    14    15    1
    25     2    11    1
@<TRIPOS>MOLECULE
*****
 23 25 0 0 0
SMALL
GASTEIGER

@<TRIPOS>ATOM
      1 C          -6.8938  -15.9471   23.4387 C.3     1  UNL1        0.1471
      2 O          -7.8843  -14.8277   23.5643 O.3     1  UNL1       -0.3812
      3 C          -5.7385  -16.9002   23.5214 C.3     1  UNL1        0.0584
      4 C          -6.0204  -18.0513   22.6019 C.ar    1  UNL1       -0.0202
      5 C          -5.2382  -19.2883   22.2733 C.ar    1  UNL1       -0.0044
      6 C          -5.7855  -20.2837   21.2937 C.ar    1  UNL1       -0.0003
      7 C          -7.1151  -20.0420   20.6427 C.ar    1  UNL1       -0.0002
      8 C          -7.8973  -18.8050   20.9713 C.ar    1  UNL1       -0.0011
      9 C          -7.3500  -17.8097   21.9509 C.ar    1  UNL1        0.0157
     10 C          -7.8898  -16.5093   22.4680 C.3     1  UNL1        0.2137
     11 H          -7.5507  -14.1700   24.1945 H       1  UNL1        0.2105
     12 C          -6.1049  -15.1510   24.4356 C.3     1  UNL1        0.1001
     13 C          -6.4190  -15.4779   26.9938 C.3     1  UNL1        0.0859
     14 N          -6.7364  -14.7338   25.7306 N.3     1  UNL1       -0.2942
     15 H          -6.4719  -13.7613   25.8873 H       1  UNL1        0.1234
     16 O          -9.1962  -15.8812   22.0822 O.3     1  UNL1       -0.4714
     17 C         -10.4801  -16.6245   22.3039 C.ar    1  UNL1        0.1494
     18 C         -10.7136  -17.3494   23.5961 C.ar    1  UNL1        0.0378
     19 C         -11.9975  -18.0927   23.8178 C.ar    1  UNL1        0.0032
     20 C         -13.0479  -18.1110   22.7472 C.ar    1  UNL1        0.0011
     21 C         -12.8145  -17.3860   21.4550 C.ar    1  UNL1        0.0145
     22 C         -11.5306  -16.6428   21.2332 C.ar    1  UNL1        0.0915
     23 CL        -11.2971  -15.9178   19.9410 Cl      1  UNL1       -0.0791
@<TRIPOS>BOND
     1    13    14    1
     2    14    12    1
     3    12     1    1
     4     1     2    1
     5     1     3    1
     6     3     4    1
     7     4     5   ar
     8     5     6   ar
     9     6     7   ar
    10     7     8   ar
    11     8     9   ar
    12     9    10    1
    13    10    16    1
    14    16    17    1
    15    17    18   ar
    16    18    19   ar
    17    19    20   ar
    18    20    21   ar
    19    21    22   ar
    20    22    23    1
    21    10     1    1
    22    22    17   ar
    23     9     4   ar
    24    14    15    1
    25     2    11    1
@<TRIPOS>MOLECULE
*****
 23 25 0 0 0
SMALL
GASTEIGER

@<TRIPOS>ATOM
      1 C          -7.9688  -16.1249   23.5246 C.3     1  UNL1        0.1471
      2 O          -6.9709  -15.5735   22.5499 O.3     1  UNL1       -0.3812
      3 C          -8.9013  -16.4167   24.6626 C.3     1  UNL1        0.0584
      4 C          -9.5819  -17.7234   24.3809 C.ar    1  UNL1       -0.0202
      5 C         -10.6017  -18.5102   25.1497 C.ar    1  UNL1       -0.0044
      6 C         -11.1095  -19.8128   24.6062 C.ar    1  UNL1       -0.0003
      7 C         -10.5975  -20.3286   23.2940 C.ar    1  UNL1       -0.0002
      8 C          -9.5778  -19.5418   22.5252 C.ar    1  UNL1       -0.0011
      9 C          -9.0700  -18.2392   23.0687 C.ar    1  UNL1        0.0157
     10 C          -8.0730  -17.2512   22.5395 C.3     1  UNL1        0.2137
     11 H          -6.6279  -14.7289   22.8812 H       1  UNL1        0.2105
     12 C          -7.6559  -14.8833   24.3059 C.3     1  UNL1        0.1001
     13 C          -5.5771  -15.2680   25.8160 C.3     1  UNL1        0.0859
     14 N          -6.2360  -14.5627   24.6678 N.3     1  UNL1       -0.2942
     15 H          -5.6708  -14.7549   23.8408 H       1  UNL1        0.1234
     16 O          -7.3137  -17.3690   21.2513 O.3     1  UNL1       -0.4714
     17 C          -6.4220  -18.5513   21.0116 C.ar    1  UNL1        0.1494
     18 C          -5.0996  -18.6477   21.7129 C.ar    1  UNL1        0.0378
     19 C          -4.2079  -19.8298   21.4733 C.ar    1  UNL1        0.0032
     20 C          -4.6388  -20.9157   20.5324 C.ar    1  UNL1        0.0011
     21 C          -5.9613  -20.8193   19.8312 C.ar    1  UNL1        0.0145
     22 C          -6.8529  -19.6371   20.0707 C.ar    1  UNL1        0.0915
     23 CL         -8.1753  -19.5408   19.3694 Cl      1  UNL1       -0.0791
@<TRIPOS>BOND
     1    13    14    1
     2    14    12    1
     3    12     1    1
     4     1     2    1
     5     1     3    1
     6     3     4    1
     7     4     5   ar
     8     5     6   ar
     9     6     7   ar
    10     7     8   ar
    11     8     9   ar
    12     9    10    1
    13    10    16    1
    14    16    17    1
    15    17    18   ar
    16    18    19   ar
    17    19    20   ar
    18    20    21   ar
    19    21    22   ar
    20    22    23    1
    21    10     1    1
    22    22    17   ar
    23     9     4   ar
    24    14    15    1
    25     2    11    1
@<TRIPOS>MOLECULE
*****
 23 25 0 0 0
SMALL
GASTEIGER

@<TRIPOS>ATOM
      1 C          -6.4311  -18.9343   21.5985 C.3     1  UNL1        0.1471
      2 O          -7.3113  -19.6602   20.6248 O.3     1  UNL1       -0.3812
      3 C          -5.3398  -18.4267   22.4937 C.3     1  UNL1        0.0584
      4 C          -5.8586  -17.2205   23.2189 C.ar    1  UNL1       -0.0202
      5 C          -5.2278  -16.3080   24.2286 C.ar    1  UNL1       -0.0044
      6 C          -6.0089  -15.1577   24.7912 C.ar    1  UNL1       -0.0003
      7 C          -7.4209  -14.9198   24.3441 C.ar    1  UNL1       -0.0002
      8 C          -8.0517  -15.8323   23.3345 C.ar    1  UNL1       -0.0011
      9 C          -7.2706  -16.9826   22.7719 C.ar    1  UNL1        0.0157
     10 C          -7.6243  -18.0418   21.7704 C.3     1  UNL1        0.2137
     11 H          -6.8260  -20.4103   20.2471 H       1  UNL1        0.2105
     12 C          -5.4218  -19.9785   21.2230 C.3     1  UNL1        0.1001
     13 C          -3.5481  -19.4390   19.5059 C.3     1  UNL1        0.0859
     14 N          -4.0059  -19.5811   20.9273 N.3     1  UNL1       -0.2942
     15 H          -3.8533  -18.6786   21.3774 H       1  UNL1        0.1234
     16 O          -8.9404  -18.1836   21.0647 O.3     1  UNL1       -0.4714
     17 C         -10.2190  -18.1517   21.8486 C.ar    1  UNL1        0.1494
     18 C         -10.2785  -18.7738   23.2122 C.ar    1  UNL1        0.0378
     19 C         -11.5570  -18.7420   23.9960 C.ar    1  UNL1        0.0032
     20 C         -12.7760  -18.0879   23.4161 C.ar    1  UNL1        0.0011
     21 C         -12.7165  -17.4658   22.0526 C.ar    1  UNL1        0.0145
     22 C         -11.4380  -17.4977   21.2687 C.ar    1  UNL1        0.0915
     23 CL        -11.3785  -16.8755   19.9051 Cl      1  UNL1       -0.0791
@<TRIPOS>BOND
     1    13    14    1
     2    14    12    1
     3    12     1    1
     4     1     2    1
     5     1     3    1
     6     3     4    1
     7     4     5   ar
     8     5     6   ar
     9     6     7   ar
    10     7     8   ar
    11     8     9   ar
    12     9    10    1
    13    10    16    1
    14    16    17    1
    15    17    18   ar
    16    18    19   ar
    17    19    20   ar
    18    20    21   ar
    19    21    22   ar
    20    22    23    1
    21    10     1    1
    22    22    17   ar
    23     9     4   ar
    24    14    15    1
    25     2    11    1
@<TRIPOS>MOLECULE
*****
 23 25 0 0 0
SMALL
GASTEIGER

@<TRIPOS>ATOM
      1 C          -6.7630  -15.8192   23.8730 C.3     1  UNL1        0.1471
      2 O          -8.1061  -15.1546   23.8073 O.3     1  UNL1       -0.3812
      3 C          -5.3576  -16.2629   24.1522 C.3     1  UNL1        0.0584
      4 C          -5.0679  -17.4553   23.2896 C.ar    1  UNL1       -0.0202
      5 C          -3.8458  -18.3119   23.1389 C.ar    1  UNL1       -0.0044
      6 C          -3.8502  -19.4619   22.1759 C.ar    1  UNL1       -0.0003
      7 C          -5.0765  -19.7552   21.3635 C.ar    1  UNL1       -0.0002
      8 C          -6.2986  -18.8986   21.5142 C.ar    1  UNL1       -0.0011
      9 C          -6.2943  -17.7487   22.4772 C.ar    1  UNL1        0.0157
     10 C          -7.3419  -16.7375   22.8378 C.3     1  UNL1        0.2137
     11 H          -8.1268  -14.4057   24.4235 H       1  UNL1        0.2105
     12 C          -6.4649  -14.7620   24.8945 C.3     1  UNL1        0.1001
     13 C          -7.3633  -15.4905   27.2209 C.3     1  UNL1        0.0859
     14 N          -6.2125  -15.1481   26.3218 N.3     1  UNL1       -0.2942
     15 H          -5.6011  -15.9643   26.3023 H       1  UNL1        0.1234
     16 O          -8.7255  -16.6585   22.2639 O.3     1  UNL1       -0.4714
     17 C          -9.5492  -17.9037   22.1180 C.ar    1  UNL1        0.1494
     18 C          -9.8968  -18.4173   20.7523 C.ar    1  UNL1        0.0378
     19 C         -10.7205  -19.6624   20.6063 C.ar    1  UNL1        0.0032
     20 C         -11.1965  -20.3939   21.8263 C.ar    1  UNL1        0.0011
     21 C         -10.8489  -19.8803   23.1921 C.ar    1  UNL1        0.0145
     22 C         -10.0253  -18.6352   23.3380 C.ar    1  UNL1        0.0915
     23 CL         -9.6777  -18.1216   24.7038 Cl      1  UNL1       -0.0791
@<TRIPOS>BOND
     1    13    14    1
     2    14    12    1
     3    12     1    1
     4     1     2    1
     5     1     3    1
     6     3     4    1
     7     4     5   ar
     8     5     6   ar
     9     6     7   ar
    10     7     8   ar
    11     8     9   ar
    12     9    10    1
    13    10    16    1
    14    16    17    1
    15    17    18   ar
    16    18    19   ar
    17    19    20   ar
    18    20    21   ar
    19    21    22   ar
    20    22    23    1
    21    10     1    1
    22    22    17   ar
    23     9     4   ar
    24    14    15    1
    25     2    11    1
@<TRIPOS>MOLECULE
*****
 23 25 0 0 0
SMALL
GASTEIGER

@<TRIPOS>ATOM
      1 C          -6.5021  -18.2004   22.3254 C.3     1  UNL1        0.1471
      2 O          -6.5653  -17.2971   23.5212 O.3     1  UNL1       -0.3812
      3 C          -6.1335  -19.1203   21.1993 C.3     1  UNL1        0.0584
      4 C          -7.3793  -19.4211   20.4198 C.ar    1  UNL1       -0.0202
      5 C          -7.6241  -20.2685   19.2066 C.ar    1  UNL1       -0.0044
      6 C          -9.0073  -20.3819   18.6377 C.ar    1  UNL1       -0.0003
      7 C         -10.1458  -19.6480   19.2821 C.ar    1  UNL1       -0.0002
      8 C          -9.9011  -18.8006   20.4953 C.ar    1  UNL1       -0.0011
      9 C          -8.5178  -18.6872   21.0642 C.ar    1  UNL1        0.0157
     10 C          -7.9756  -17.9328   22.2418 C.3     1  UNL1        0.2137
     11 H          -5.6797  -17.2085   23.9067 H       1  UNL1        0.2105
     12 C          -5.0417  -18.2793   22.6588 C.3     1  UNL1        0.1001
     13 C          -2.7787  -17.0232   22.4328 C.3     1  UNL1        0.0859
     14 N          -4.2344  -17.0223   22.7945 N.3     1  UNL1       -0.2942
     15 H          -4.6833  -16.3193   22.2073 H       1  UNL1        0.1234
     16 O          -8.7679  -17.0633   23.1726 O.3     1  UNL1       -0.4714
     17 C         -10.2527  -17.2441   23.2863 C.ar    1  UNL1        0.1494
     18 C         -11.1788  -16.3321   22.5375 C.ar    1  UNL1        0.0378
     19 C         -12.6635  -16.5128   22.6512 C.ar    1  UNL1        0.0032
     20 C         -13.2221  -17.6056   23.5135 C.ar    1  UNL1        0.0011
     21 C         -12.2961  -18.5176   24.2622 C.ar    1  UNL1        0.0145
     22 C         -10.8114  -18.3369   24.1486 C.ar    1  UNL1        0.0915
     23 CL         -9.8853  -19.2489   24.8974 Cl      1  UNL1       -0.0791
@<TRIPOS>BOND
     1    13    14    1
     2    14    12    1
     3    12     1    1
     4     1     2    1
     5     1     3    1
     6     3     4    1
     7     4     5   ar
     8     5     6   ar
     9     6     7   ar
    10     7     8   ar
    11     8     9   ar
    12     9    10    1
    13    10    16    1
    14    16    17    1
    15    17    18   ar
    16    18    19   ar
    17    19    20   ar
    18    20    21   ar
    19    21    22   ar
    20    22    23    1
    21    10     1    1
    22    22    17   ar
    23     9     4   ar
    24    14    15    1
    25     2    11    1
@<TRIPOS>MOLECULE
*****
 23 25 0 0 0
SMALL
GASTEIGER

@<TRIPOS>ATOM
      1 C          -6.0837  -18.9144   21.8330 C.3     1  UNL1        0.1471
      2 O          -6.8864  -19.7966   20.9234 O.3     1  UNL1       -0.3812
      3 C          -5.0420  -18.2153   22.6552 C.3     1  UNL1        0.0584
      4 C          -5.7095  -17.0916   23.3913 C.ar    1  UNL1       -0.0202
      5 C          -5.1809  -16.0648   24.3485 C.ar    1  UNL1       -0.0044
      6 C          -6.1067  -15.0427   24.9384 C.ar    1  UNL1       -0.0003
      7 C          -7.5610  -15.0473   24.5712 C.ar    1  UNL1       -0.0002
      8 C          -8.0896  -16.0741   23.6139 C.ar    1  UNL1       -0.0011
      9 C          -7.1638  -17.0962   23.0240 C.ar    1  UNL1        0.0157
     10 C          -7.3951  -18.2228   22.0609 C.3     1  UNL1        0.2137
     11 H          -6.3069  -20.4673   20.5293 H       1  UNL1        0.2105
     12 C          -4.9401  -19.7904   21.4149 C.3     1  UNL1        0.1001
     13 C          -3.3557  -19.1869   19.4463 C.3     1  UNL1        0.0859
     14 N          -3.6677  -19.1743   20.9134 N.3     1  UNL1       -0.2942
     15 H          -3.6797  -18.1965   21.2035 H       1  UNL1        0.1234
     16 O          -8.7074  -18.5927   21.4356 O.3     1  UNL1       -0.4714
     17 C          -9.9775  -18.4580   22.2223 C.ar    1  UNL1        0.1494
     18 C         -11.0028  -17.4387   21.8225 C.ar    1  UNL1        0.0378
     19 C         -12.2728  -17.3039   22.6091 C.ar    1  UNL1        0.0032
     20 C         -12.5176  -18.1886   23.7955 C.ar    1  UNL1        0.0011
     21 C         -11.4924  -19.2079   24.1953 C.ar    1  UNL1        0.0145
     22 C         -10.2223  -19.3426   23.4087 C.ar    1  UNL1        0.0915
     23 CL         -9.1970  -20.3620   23.8084 Cl      1  UNL1       -0.0791
@<TRIPOS>BOND
     1    13    14    1
     2    14    12    1
     3    12     1    1
     4     1     2    1
     5     1     3    1
     6     3     4    1
     7     4     5   ar
     8     5     6   ar
     9     6     7   ar
    10     7     8   ar
    11     8     9   ar
    12     9    10    1
    13    10    16    1
    14    16    17    1
    15    17    18   ar
    16    18    19   ar
    17    19    20   ar
    18    20    21   ar
    19    21    22   ar
    20    22    23    1
    21    10     1    1
    22    22    17   ar
    23     9     4   ar
    24    14    15    1
    25     2    11    1
@<TRIPOS>MOLECULE
*****
 23 25 0 0 0
SMALL
GASTEIGER

@<TRIPOS>ATOM
      1 C          -6.4673  -18.7934   21.5820 C.3     1  UNL1        0.1471
      2 O          -6.7204  -17.5624   22.4009 O.3     1  UNL1       -0.3812
      3 C          -5.9427  -20.0328   20.9197 C.3     1  UNL1        0.0584
      4 C          -6.9704  -20.5014   19.9326 C.ar    1  UNL1       -0.0202
      5 C          -7.0000  -21.6702   18.9930 C.ar    1  UNL1       -0.0044
      6 C          -8.1893  -21.8892   18.1056 C.ar    1  UNL1       -0.0003
      7 C          -9.3491  -20.9394   18.1579 C.ar    1  UNL1       -0.0002
      8 C          -9.3195  -19.7705   19.0975 C.ar    1  UNL1       -0.0011
      9 C          -8.1302  -19.5516   19.9849 C.ar    1  UNL1        0.0157
     10 C          -7.8192  -18.4960   21.0042 C.3     1  UNL1        0.2137
     11 H          -5.9623  -17.4005   22.9840 H       1  UNL1        0.2105
     12 C          -5.1683  -18.8336   22.3309 C.3     1  UNL1        0.1001
     13 C          -2.5850  -18.8251   22.0541 C.3     1  UNL1        0.0859
     14 N          -3.9296  -18.2529   21.7157 N.3     1  UNL1       -0.2942
     15 H          -4.0377  -18.3329   20.7046 H       1  UNL1        0.1234
     16 O          -8.7048  -17.3451   21.3799 O.3     1  UNL1       -0.4714
     17 C         -10.0351  -17.6014   22.0239 C.ar    1  UNL1        0.1494
     18 C         -10.1006  -18.1000   23.4371 C.ar    1  UNL1        0.0378
     19 C         -11.4308  -18.3563   24.0812 C.ar    1  UNL1        0.0032
     20 C         -12.6955  -18.1139   23.3120 C.ar    1  UNL1        0.0011
     21 C         -12.6301  -17.6153   21.8989 C.ar    1  UNL1        0.0145
     22 C         -11.2999  -17.3590   21.2548 C.ar    1  UNL1        0.0915
     23 CL        -11.2344  -16.8603   19.8416 Cl      1  UNL1       -0.0791
@<TRIPOS>BOND
     1    13    14    1
     2    14    12    1
     3    12     1    1
     4     1     2    1
     5     1     3    1
     6     3     4    1
     7     4     5   ar
     8     5     6   ar
     9     6     7   ar
    10     7     8   ar
    11     8     9   ar
    12     9    10    1
    13    10    16    1
    14    16    17    1
    15    17    18   ar
    16    18    19   ar
    17    19    20   ar
    18    20    21   ar
    19    21    22   ar
    20    22    23    1
    21    10     1    1
    22    22    17   ar
    23     9     4   ar
    24    14    15    1
    25     2    11    1
