@<TRIPOS>MOLECULE
*****
 27 30 0 0 0
SMALL
GASTEIGER

@<TRIPOS>ATOM
      1 O           0.0277    2.9719   17.5642 O.2     1  UNL1       -0.2701
      2 C           0.1735    2.3614   18.9265 C.2     1  UNL1        0.2461
      3 N          -0.5884    2.9279   20.0877 N.am    1  UNL1       -0.2968
      4 H          -0.4927    2.5272   20.9819 H       1  UNL1        0.1501
      5 C           1.0814    1.1843   19.1276 C.ar    1  UNL1        0.0534
      6 C           2.3111    1.0324   18.2822 C.ar    1  UNL1        0.0045
      7 C           3.2188   -0.1446   18.4834 C.ar    1  UNL1        0.0001
      8 C           2.8969   -1.1698   19.5300 C.ar    1  UNL1        0.0001
      9 C           1.6673   -1.0179   20.3754 C.ar    1  UNL1        0.0001
     10 C           0.7595    0.1591   20.1743 C.ar    1  UNL1        0.0045
     11 C           3.8048   -2.3468   19.7311 C.ar    1  UNL1        0.0031
     12 C           4.9546   -2.2520   20.6897 C.ar    1  UNL1        0.0207
     13 C           5.8624   -3.4290   20.8908 C.ar    1  UNL1        0.0989
     14 N           5.6203   -4.7009   20.1334 N.ar    1  UNL1       -0.2423
     15 C           4.4704   -4.7958   19.1748 C.ar    1  UNL1        0.0989
     16 C           3.5627   -3.6187   18.9737 C.ar    1  UNL1        0.0207
     17 C          -1.4962    4.1049   19.8866 C.3     1  UNL1        0.1197
     18 C          -2.9832    3.9289   19.9748 C.ar    1  UNL1        0.0345
     19 C          -3.8125    3.9175   18.7250 C.ar    1  UNL1        0.0006
     20 C          -5.2995    3.7415   18.8131 C.ar    1  UNL1        0.0030
     21 C          -5.9573    3.5768   20.1511 C.ar    1  UNL1        0.0400
     22 C          -5.1280    3.5882   21.4010 C.ar    1  UNL1        0.1721
     23 C          -3.6410    3.7642   21.3129 C.ar    1  UNL1        0.1700
     24 O          -2.8117    3.7756   22.5627 O.3     1  UNL1       -0.4686
     25 C          -3.4694    3.6109   23.9006 C.3     1  UNL1        0.2526
     26 C          -4.9564    3.4348   23.9888 C.3     1  UNL1        0.2526
     27 O          -5.7857    3.4235   22.7390 O.3     1  UNL1       -0.4684
@<TRIPOS>BOND
     1     1     2    2
     2     2     3   am
     3     3    17    1
     4    17    18    1
     5    18    19   ar
     6    19    20   ar
     7    20    21   ar
     8    21    22   ar
     9    22    23   ar
    10    23    24    1
    11    24    25    1
    12    25    26    1
    13    26    27    1
    14     2     5    1
    15     5     6   ar
    16     6     7   ar
    17     7     8   ar
    18     8    11    1
    19    11    12   ar
    20    12    13   ar
    21    13    14   ar
    22    14    15   ar
    23    15    16   ar
    24     8     9   ar
    25     9    10   ar
    26    23    18   ar
    27    10     5   ar
    28    27    22    1
    29    16    11   ar
    30     3     4    1
@<TRIPOS>MOLECULE
*****
 27 30 0 0 0
SMALL
GASTEIGER

@<TRIPOS>ATOM
      1 O           1.0101    4.2996   19.0195 O.2     1  UNL1       -0.2701
      2 C           0.5631    2.9809   18.4618 C.2     1  UNL1        0.2461
      3 N          -0.5672    2.9275   17.4771 N.am    1  UNL1       -0.2968
      4 H          -0.8606    2.0619   17.1110 H       1  UNL1        0.1501
      5 C           1.2463    1.7156   18.8887 C.ar    1  UNL1        0.0534
      6 C           0.5502    0.7631   19.8150 C.ar    1  UNL1        0.0045
      7 C           1.2334   -0.5022   20.2418 C.ar    1  UNL1        0.0001
      8 C           2.6128   -0.8149   19.7424 C.ar    1  UNL1        0.0001
      9 C           3.3090    0.1376   18.8161 C.ar    1  UNL1        0.0001
     10 C           2.6257    1.4028   18.3892 C.ar    1  UNL1        0.0045
     11 C           3.2961   -2.0803   20.1693 C.ar    1  UNL1        0.0031
     12 C           3.8485   -2.2024   21.5585 C.ar    1  UNL1        0.0207
     13 C           4.5317   -3.4677   21.9853 C.ar    1  UNL1        0.0989
     14 N           4.6625   -4.6108   21.0230 N.ar    1  UNL1       -0.2423
     15 C           4.1101   -4.4887   19.6338 C.ar    1  UNL1        0.0989
     16 C           3.4269   -3.2234   19.2069 C.ar    1  UNL1        0.0207
     17 C          -1.2505    4.1927   17.0502 C.3     1  UNL1        0.1197
     18 C          -2.7357    4.3326   17.2067 C.ar    1  UNL1        0.0345
     19 C          -3.5723    4.7889   16.0483 C.ar    1  UNL1        0.0006
     20 C          -5.0575    4.9288   16.2048 C.ar    1  UNL1        0.0030
     21 C          -5.7062    4.6125   17.5198 C.ar    1  UNL1        0.0400
     22 C          -4.8696    4.1563   18.6783 C.ar    1  UNL1        0.1721
     23 C          -3.3844    4.0163   18.5217 C.ar    1  UNL1        0.1700
     24 O          -2.5478    3.5601   19.6801 O.3     1  UNL1       -0.4686
     25 C          -3.1964    3.2438   20.9951 C.3     1  UNL1        0.2526
     26 C          -4.6817    3.3837   21.1516 C.3     1  UNL1        0.2526
     27 O          -5.5182    3.8400   19.9932 O.3     1  UNL1       -0.4684
@<TRIPOS>BOND
     1     1     2    2
     2     2     3   am
     3     3    17    1
     4    17    18    1
     5    18    19   ar
     6    19    20   ar
     7    20    21   ar
     8    21    22   ar
     9    22    23   ar
    10    23    24    1
    11    24    25    1
    12    25    26    1
    13    26    27    1
    14     2     5    1
    15     5     6   ar
    16     6     7   ar
    17     7     8   ar
    18     8    11    1
    19    11    12   ar
    20    12    13   ar
    21    13    14   ar
    22    14    15   ar
    23    15    16   ar
    24     8     9   ar
    25     9    10   ar
    26    23    18   ar
    27    10     5   ar
    28    27    22    1
    29    16    11   ar
    30     3     4    1
@<TRIPOS>MOLECULE
*****
 27 30 0 0 0
SMALL
GASTEIGER

@<TRIPOS>ATOM
      1 O          -6.1059  -21.1113   20.0480 O.2     1  UNL1       -0.2701
      2 C          -6.5989  -19.7040   20.2103 C.2     1  UNL1        0.2461
      3 N          -5.8065  -18.5620   19.6465 N.am    1  UNL1       -0.2968
      4 H          -6.1301  -17.6383   19.7530 H       1  UNL1        0.1501
      5 C          -7.8844  -19.4386   20.9365 C.ar    1  UNL1        0.0534
      6 C          -9.1658  -19.3048   20.1685 C.ar    1  UNL1        0.0045
      7 C         -10.4512  -19.0394   20.8946 C.ar    1  UNL1        0.0001
      8 C         -10.4551  -18.9078   22.3889 C.ar    1  UNL1        0.0001
      9 C          -9.1736  -19.0416   23.1569 C.ar    1  UNL1        0.0001
     10 C          -7.8883  -19.3070   22.4307 C.ar    1  UNL1        0.0045
     11 C         -11.7405  -18.6424   23.1150 C.ar    1  UNL1        0.0031
     12 C         -12.8988  -18.0255   22.3885 C.ar    1  UNL1        0.0207
     13 C         -14.1841  -17.7602   23.1147 C.ar    1  UNL1        0.0989
     14 N         -14.3112  -18.1117   24.5674 N.ar    1  UNL1       -0.2423
     15 C         -13.1530  -18.7286   25.2939 C.ar    1  UNL1        0.0989
     16 C         -11.8676  -18.9940   24.5677 C.ar    1  UNL1        0.0207
     17 C          -4.5211  -18.8273   18.9203 C.3     1  UNL1        0.1197
     18 C          -3.2139  -18.4307   19.5400 C.ar    1  UNL1        0.0345
     19 C          -1.9998  -18.2493   18.6781 C.ar    1  UNL1        0.0006
     20 C          -0.6926  -17.8526   19.2978 C.ar    1  UNL1        0.0030
     21 C          -0.5996  -17.6373   20.7793 C.ar    1  UNL1        0.0400
     22 C          -1.8138  -17.8187   21.6413 C.ar    1  UNL1        0.1721
     23 C          -3.1210  -18.2154   21.0216 C.ar    1  UNL1        0.1700
     24 O          -4.3351  -18.3968   21.8835 O.3     1  UNL1       -0.4686
     25 C          -4.2421  -18.1815   23.3650 C.3     1  UNL1        0.2526
     26 C          -2.9350  -17.7848   23.9846 C.3     1  UNL1        0.2526
     27 O          -1.7208  -17.6035   23.1228 O.3     1  UNL1       -0.4684
@<TRIPOS>BOND
     1     1     2    2
     2     2     3   am
     3     3    17    1
     4    17    18    1
     5    18    19   ar
     6    19    20   ar
     7    20    21   ar
     8    21    22   ar
     9    22    23   ar
    10    23    24    1
    11    24    25    1
    12    25    26    1
    13    26    27    1
    14     2     5    1
    15     5     6   ar
    16     6     7   ar
    17     7     8   ar
    18     8    11    1
    19    11    12   ar
    20    12    13   ar
    21    13    14   ar
    22    14    15   ar
    23    15    16   ar
    24     8     9   ar
    25     9    10   ar
    26    23    18   ar
    27    10     5   ar
    28    27    22    1
    29    16    11   ar
    30     3     4    1
@<TRIPOS>MOLECULE
*****
 27 30 0 0 0
SMALL
GASTEIGER

@<TRIPOS>ATOM
      1 O           0.1344    3.2730   22.9049 O.2     1  UNL1       -0.2701
      2 C          -0.1693    2.3026   21.8022 C.2     1  UNL1        0.2461
      3 N          -1.4154    2.4641   20.9830 N.am    1  UNL1       -0.2968
      4 H          -1.6148    1.8271   20.2593 H       1  UNL1        0.1501
      5 C           0.7731    1.1705   21.5187 C.ar    1  UNL1        0.0534
      6 C           0.4981    0.2327   20.3808 C.ar    1  UNL1        0.0045
      7 C           1.4406   -0.8993   20.0973 C.ar    1  UNL1        0.0001
      8 C           2.6580   -1.0935   20.9518 C.ar    1  UNL1        0.0001
      9 C           2.9330   -0.1557   22.0897 C.ar    1  UNL1        0.0001
     10 C           1.9906    0.9763   22.3732 C.ar    1  UNL1        0.0045
     11 C           3.6004   -2.2255   20.6683 C.ar    1  UNL1        0.0031
     12 C           3.6345   -2.8495   19.3047 C.ar    1  UNL1        0.0207
     13 C           4.5770   -3.9814   19.0213 C.ar    1  UNL1        0.0989
     14 N           5.4853   -4.4895   20.1015 N.ar    1  UNL1       -0.2423
     15 C           5.4512   -3.8656   21.4651 C.ar    1  UNL1        0.0989
     16 C           4.5088   -2.7336   21.7485 C.ar    1  UNL1        0.0207
     17 C          -2.3579    3.5960   21.2664 C.3     1  UNL1        0.1197
     18 C          -3.6169    3.7425   20.4643 C.ar    1  UNL1        0.0345
     19 C          -4.9484    3.7585   21.1547 C.ar    1  UNL1        0.0006
     20 C          -6.2075    3.9050   20.3526 C.ar    1  UNL1        0.0030
     21 C          -6.1350    4.0355   18.8601 C.ar    1  UNL1        0.0400
     22 C          -4.8034    4.0195   18.1696 C.ar    1  UNL1        0.1721
     23 C          -3.5444    3.8730   18.9717 C.ar    1  UNL1        0.1700
     24 O          -2.2128    3.8570   18.2813 O.3     1  UNL1       -0.4686
     25 C          -2.1403    3.9875   16.7888 C.3     1  UNL1        0.2526
     26 C          -3.3993    4.1339   15.9867 C.3     1  UNL1        0.2526
     27 O          -4.7309    4.1499   16.6771 O.3     1  UNL1       -0.4684
@<TRIPOS>BOND
     1     1     2    2
     2     2     3   am
     3     3    17    1
     4    17    18    1
     5    18    19   ar
     6    19    20   ar
     7    20    21   ar
     8    21    22   ar
     9    22    23   ar
    10    23    24    1
    11    24    25    1
    12    25    26    1
    13    26    27    1
    14     2     5    1
    15     5     6   ar
    16     6     7   ar
    17     7     8   ar
    18     8    11    1
    19    11    12   ar
    20    12    13   ar
    21    13    14   ar
    22    14    15   ar
    23    15    16   ar
    24     8     9   ar
    25     9    10   ar
    26    23    18   ar
    27    10     5   ar
    28    27    22    1
    29    16    11   ar
    30     3     4    1
@<TRIPOS>MOLECULE
*****
 27 30 0 0 0
SMALL
GASTEIGER

@<TRIPOS>ATOM
      1 O           7.2884   -5.2259   23.2527 O.2     1  UNL1       -0.2701
      2 C           6.2766   -4.2925   23.8483 C.2     1  UNL1        0.2461
      3 N           6.1423   -4.1836   25.3383 N.am    1  UNL1       -0.2968
      4 H           5.4782   -3.5709   25.7292 H       1  UNL1        0.1501
      5 C           5.3988   -3.4680   22.9539 C.ar    1  UNL1        0.0534
      6 C           4.6024   -2.3323   23.5246 C.ar    1  UNL1        0.0045
      7 C           3.7247   -1.5079   22.6302 C.ar    1  UNL1        0.0001
      8 C           3.6435   -1.8192   21.1651 C.ar    1  UNL1        0.0001
      9 C           4.4399   -2.9550   20.5944 C.ar    1  UNL1        0.0001
     10 C           5.3176   -3.7794   21.4888 C.ar    1  UNL1        0.0045
     11 C           2.7657   -0.9947   20.2707 C.ar    1  UNL1        0.0031
     12 C           1.4135   -0.5534   20.7467 C.ar    1  UNL1        0.0207
     13 C           0.5358    0.2710   19.8524 C.ar    1  UNL1        0.0989
     14 N           1.0104    0.6541   18.4820 N.ar    1  UNL1       -0.2423
     15 C           2.3626    0.2128   18.0059 C.ar    1  UNL1        0.0989
     16 C           3.2403   -0.6116   18.9003 C.ar    1  UNL1        0.0207
     17 C           7.0200   -5.0080   26.2327 C.3     1  UNL1        0.1197
     18 C           6.9577   -4.8251   27.7202 C.ar    1  UNL1        0.0345
     19 C           7.2502   -5.9806   28.6308 C.ar    1  UNL1        0.0006
     20 C           7.1879   -5.7977   30.1183 C.ar    1  UNL1        0.0030
     21 C           6.8332   -4.4594   30.6952 C.ar    1  UNL1        0.0400
     22 C           6.5407   -3.3038   29.7846 C.ar    1  UNL1        0.1721
     23 C           6.6030   -3.4866   28.2971 C.ar    1  UNL1        0.1700
     24 O           6.3106   -2.3311   27.3865 O.3     1  UNL1       -0.4686
     25 C           5.9558   -0.9927   27.9634 C.3     1  UNL1        0.2526
     26 C           5.8936   -0.8099   29.4509 C.3     1  UNL1        0.2526
     27 O           6.1860   -1.9654   30.3615 O.3     1  UNL1       -0.4684
@<TRIPOS>BOND
     1     1     2    2
     2     2     3   am
     3     3    17    1
     4    17    18    1
     5    18    19   ar
     6    19    20   ar
     7    20    21   ar
     8    21    22   ar
     9    22    23   ar
    10    23    24    1
    11    24    25    1
    12    25    26    1
    13    26    27    1
    14     2     5    1
    15     5     6   ar
    16     6     7   ar
    17     7     8   ar
    18     8    11    1
    19    11    12   ar
    20    12    13   ar
    21    13    14   ar
    22    14    15   ar
    23    15    16   ar
    24     8     9   ar
    25     9    10   ar
    26    23    18   ar
    27    10     5   ar
    28    27    22    1
    29    16    11   ar
    30     3     4    1
@<TRIPOS>MOLECULE
*****
 27 30 0 0 0
SMALL
GASTEIGER

@<TRIPOS>ATOM
      1 O           0.1014    4.1416   20.9285 O.2     1  UNL1       -0.2701
      2 C          -0.4431    2.7461   20.8524 C.2     1  UNL1        0.2461
      3 N          -1.9224    2.5231   20.7430 N.am    1  UNL1       -0.2968
      4 H          -2.2798    1.6071   20.6931 H       1  UNL1        0.1501
      5 C           0.4917    1.5734   20.8857 C.ar    1  UNL1        0.0534
      6 C           1.3837    1.3588   22.0724 C.ar    1  UNL1        0.0045
      7 C           2.3185    0.1862   22.1057 C.ar    1  UNL1        0.0001
      8 C           2.3612   -0.7719   20.9523 C.ar    1  UNL1        0.0001
      9 C           1.4691   -0.5573   19.7656 C.ar    1  UNL1        0.0001
     10 C           0.5344    0.6153   19.7323 C.ar    1  UNL1        0.0045
     11 C           3.2960   -1.9446   20.9856 C.ar    1  UNL1        0.0031
     12 C           3.5577   -2.7308   19.7353 C.ar    1  UNL1        0.0207
     13 C           4.4925   -3.9034   19.7687 C.ar    1  UNL1        0.0989
     14 N           5.1655   -4.2898   21.0523 N.ar    1  UNL1       -0.2423
     15 C           4.9037   -3.5036   22.3026 C.ar    1  UNL1        0.0989
     16 C           3.9690   -2.3310   22.2693 C.ar    1  UNL1        0.0207
     17 C          -2.8572    3.6957   20.7097 C.3     1  UNL1        0.1197
     18 C          -3.9845    3.7844   21.6952 C.ar    1  UNL1        0.0345
     19 C          -5.3951    3.9390   21.2092 C.ar    1  UNL1        0.0006
     20 C          -6.5225    4.0277   22.1947 C.ar    1  UNL1        0.0030
     21 C          -6.2392    3.9618   23.6662 C.ar    1  UNL1        0.0400
     22 C          -4.8286    3.8071   24.1523 C.ar    1  UNL1        0.1721
     23 C          -3.7012    3.7184   23.1668 C.ar    1  UNL1        0.1700
     24 O          -2.2906    3.5637   23.6528 O.3     1  UNL1       -0.4686
     25 C          -2.0074    3.4978   25.1243 C.3     1  UNL1        0.2526
     26 C          -3.1347    3.5865   26.1098 C.3     1  UNL1        0.2526
     27 O          -4.5453    3.7411   25.6238 O.3     1  UNL1       -0.4684
@<TRIPOS>BOND
     1     1     2    2
     2     2     3   am
     3     3    17    1
     4    17    18    1
     5    18    19   ar
     6    19    20   ar
     7    20    21   ar
     8    21    22   ar
     9    22    23   ar
    10    23    24    1
    11    24    25    1
    12    25    26    1
    13    26    27    1
    14     2     5    1
    15     5     6   ar
    16     6     7   ar
    17     7     8   ar
    18     8    11    1
    19    11    12   ar
    20    12    13   ar
    21    13    14   ar
    22    14    15   ar
    23    15    16   ar
    24     8     9   ar
    25     9    10   ar
    26    23    18   ar
    27    10     5   ar
    28    27    22    1
    29    16    11   ar
    30     3     4    1
@<TRIPOS>MOLECULE
*****
 27 30 0 0 0
SMALL
GASTEIGER

@<TRIPOS>ATOM
      1 O          -5.3060  -14.7794   23.0726 O.2     1  UNL1       -0.2701
      2 C          -5.7145  -16.2086   23.2736 C.2     1  UNL1        0.2461
      3 N          -4.6711  -17.2839   23.3448 N.am    1  UNL1       -0.2968
      4 H          -4.9392  -18.2220   23.4767 H       1  UNL1        0.1501
      5 C          -7.1664  -16.5626   23.4034 C.ar    1  UNL1        0.0534
      6 C          -8.0381  -15.8121   24.3660 C.ar    1  UNL1        0.0045
      7 C          -9.4899  -16.1661   24.4958 C.ar    1  UNL1        0.0001
      8 C         -10.0700  -17.2706   23.6629 C.ar    1  UNL1        0.0001
      9 C          -9.1982  -18.0211   22.7003 C.ar    1  UNL1        0.0001
     10 C          -7.7464  -17.6671   22.5705 C.ar    1  UNL1        0.0045
     11 C         -11.5219  -17.6245   23.7927 C.ar    1  UNL1        0.0031
     12 C         -12.5004  -17.1715   22.7500 C.ar    1  UNL1        0.0207
     13 C         -13.9522  -17.5255   22.8798 C.ar    1  UNL1        0.0989
     14 N         -14.4255  -18.3325   24.0524 N.ar    1  UNL1       -0.2423
     15 C         -13.4470  -18.7855   25.0950 C.ar    1  UNL1        0.0989
     16 C         -11.9952  -18.4315   24.9652 C.ar    1  UNL1        0.0207
     17 C          -3.2192  -16.9300   23.2150 C.3     1  UNL1        0.1197
     18 C          -2.4892  -17.2151   21.9361 C.ar    1  UNL1        0.0345
     19 C          -1.3037  -16.3823   21.5475 C.ar    1  UNL1        0.0006
     20 C          -0.5737  -16.6674   20.2685 C.ar    1  UNL1        0.0030
     21 C          -1.0291  -17.7854   19.3782 C.ar    1  UNL1        0.0400
     22 C          -2.2146  -18.6183   19.7668 C.ar    1  UNL1        0.1721
     23 C          -2.9447  -18.3331   21.0457 C.ar    1  UNL1        0.1700
     24 O          -4.1301  -19.1660   21.4343 O.3     1  UNL1       -0.4686
     25 C          -4.5855  -20.2839   20.5440 C.3     1  UNL1        0.2526
     26 C          -3.8554  -20.5690   19.2650 C.3     1  UNL1        0.2526
     27 O          -2.6700  -19.7362   18.8764 O.3     1  UNL1       -0.4684
@<TRIPOS>BOND
     1     1     2    2
     2     2     3   am
     3     3    17    1
     4    17    18    1
     5    18    19   ar
     6    19    20   ar
     7    20    21   ar
     8    21    22   ar
     9    22    23   ar
    10    23    24    1
    11    24    25    1
    12    25    26    1
    13    26    27    1
    14     2     5    1
    15     5     6   ar
    16     6     7   ar
    17     7     8   ar
    18     8    11    1
    19    11    12   ar
    20    12    13   ar
    21    13    14   ar
    22    14    15   ar
    23    15    16   ar
    24     8     9   ar
    25     9    10   ar
    26    23    18   ar
    27    10     5   ar
    28    27    22    1
    29    16    11   ar
    30     3     4    1
@<TRIPOS>MOLECULE
*****
 27 30 0 0 0
SMALL
GASTEIGER

@<TRIPOS>ATOM
      1 O           0.1805    3.4747   23.1261 O.2     1  UNL1       -0.2701
      2 C          -0.2103    2.4855   22.0685 C.2     1  UNL1        0.2461
      3 N          -1.5135    2.6398   21.3420 N.am    1  UNL1       -0.2968
      4 H          -1.7700    1.9905   20.6478 H       1  UNL1        0.1501
      5 C           0.7022    1.3419   21.7373 C.ar    1  UNL1        0.0534
      6 C           0.4280    0.4875   20.5353 C.ar    1  UNL1        0.0045
      7 C           1.3405   -0.6560   20.2041 C.ar    1  UNL1        0.0001
      8 C           2.5271   -0.9452   21.0750 C.ar    1  UNL1        0.0001
      9 C           2.8012   -0.0908   22.2769 C.ar    1  UNL1        0.0001
     10 C           1.8888    1.0527   22.6081 C.ar    1  UNL1        0.0045
     11 C           3.4396   -2.0888   20.7437 C.ar    1  UNL1        0.0031
     12 C           4.2689   -2.7228   21.8209 C.ar    1  UNL1        0.0207
     13 C           5.1813   -3.8664   21.4896 C.ar    1  UNL1        0.0989
     14 N           5.2644   -4.3759   20.0813 N.ar    1  UNL1       -0.2423
     15 C           4.4351   -3.7419   19.0041 C.ar    1  UNL1        0.0989
     16 C           3.5227   -2.5983   19.3354 C.ar    1  UNL1        0.0207
     17 C          -2.4260    3.7833   21.6732 C.3     1  UNL1        0.1197
     18 C          -3.7814    3.8700   21.0365 C.ar    1  UNL1        0.0345
     19 C          -3.9336    3.6395   19.5622 C.ar    1  UNL1        0.0006
     20 C          -5.2890    3.7262   18.9255 C.ar    1  UNL1        0.0030
     21 C          -6.4922    4.0433   19.7631 C.ar    1  UNL1        0.0400
     22 C          -6.3400    4.2738   21.2375 C.ar    1  UNL1        0.1721
     23 C          -4.9846    4.1871   21.8742 C.ar    1  UNL1        0.1700
     24 O          -4.8324    4.4175   23.3485 O.3     1  UNL1       -0.4686
     25 C          -6.0357    4.7347   24.1862 C.3     1  UNL1        0.2526
     26 C          -7.3911    4.8213   23.5495 C.3     1  UNL1        0.2526
     27 O          -7.5433    4.5909   22.0751 O.3     1  UNL1       -0.4684
@<TRIPOS>BOND
     1     1     2    2
     2     2     3   am
     3     3    17    1
     4    17    18    1
     5    18    19   ar
     6    19    20   ar
     7    20    21   ar
     8    21    22   ar
     9    22    23   ar
    10    23    24    1
    11    24    25    1
    12    25    26    1
    13    26    27    1
    14     2     5    1
    15     5     6   ar
    16     6     7   ar
    17     7     8   ar
    18     8    11    1
    19    11    12   ar
    20    12    13   ar
    21    13    14   ar
    22    14    15   ar
    23    15    16   ar
    24     8     9   ar
    25     9    10   ar
    26    23    18   ar
    27    10     5   ar
    28    27    22    1
    29    16    11   ar
    30     3     4    1
@<TRIPOS>MOLECULE
*****
 27 30 0 0 0
SMALL
GASTEIGER

@<TRIPOS>ATOM
      1 O           0.7928    3.7949   22.2196 O.2     1  UNL1       -0.2701
      2 C           0.1592    2.5286   21.7246 C.2     1  UNL1        0.2461
      3 N          -1.3260    2.4611   21.5254 N.am    1  UNL1       -0.2968
      4 H          -1.7418    1.6300   21.2005 H       1  UNL1        0.1501
      5 C           1.0108    1.3297   21.4289 C.ar    1  UNL1        0.0534
      6 C           0.5672    0.3291   20.4033 C.ar    1  UNL1        0.0045
      7 C           1.4188   -0.8697   20.1076 C.ar    1  UNL1        0.0001
      8 C           2.7141   -1.0680   20.8377 C.ar    1  UNL1        0.0001
      9 C           3.1577   -0.0675   21.8633 C.ar    1  UNL1        0.0001
     10 C           2.3061    1.1314   22.1589 C.ar    1  UNL1        0.0045
     11 C           3.5657   -2.2670   20.5420 C.ar    1  UNL1        0.0031
     12 C           3.3514   -3.0459   19.2781 C.ar    1  UNL1        0.0207
     13 C           4.2030   -4.2447   18.9825 C.ar    1  UNL1        0.0989
     14 N           5.2689   -4.6647   19.9507 N.ar    1  UNL1       -0.2423
     15 C           5.4833   -3.8858   21.2145 C.ar    1  UNL1        0.0989
     16 C           4.6317   -2.6869   21.5101 C.ar    1  UNL1        0.0207
     17 C          -2.1776    3.6600   21.8210 C.3     1  UNL1        0.1197
     18 C          -2.9028    3.7603   23.1302 C.ar    1  UNL1        0.0345
     19 C          -2.1472    3.6230   24.4187 C.ar    1  UNL1        0.0006
     20 C          -2.8725    3.7233   25.7278 C.ar    1  UNL1        0.0030
     21 C          -4.3533    3.9610   25.7486 C.ar    1  UNL1        0.0400
     22 C          -5.1090    4.0983   24.4601 C.ar    1  UNL1        0.1721
     23 C          -4.3838    3.9980   23.1509 C.ar    1  UNL1        0.1700
     24 O          -5.1394    4.1353   21.8625 O.3     1  UNL1       -0.4686
     25 C          -6.6203    4.3729   21.8832 C.3     1  UNL1        0.2526
     26 C          -7.3455    4.4733   23.1924 C.3     1  UNL1        0.2526
     27 O          -6.5899    4.3360   24.4808 O.3     1  UNL1       -0.4684
@<TRIPOS>BOND
     1     1     2    2
     2     2     3   am
     3     3    17    1
     4    17    18    1
     5    18    19   ar
     6    19    20   ar
     7    20    21   ar
     8    21    22   ar
     9    22    23   ar
    10    23    24    1
    11    24    25    1
    12    25    26    1
    13    26    27    1
    14     2     5    1
    15     5     6   ar
    16     6     7   ar
    17     7     8   ar
    18     8    11    1
    19    11    12   ar
    20    12    13   ar
    21    13    14   ar
    22    14    15   ar
    23    15    16   ar
    24     8     9   ar
    25     9    10   ar
    26    23    18   ar
    27    10     5   ar
    28    27    22    1
    29    16    11   ar
    30     3     4    1
