@<TRIPOS>MOLECULE
*****
 35 39 0 0 0
SMALL
GASTEIGER

@<TRIPOS>ATOM
      1 C         -15.4739   -3.3123   19.2225 C.3     1  UNL1        0.0933
      2 C         -14.8507   -2.0173   19.6525 C.3     1  UNL1        0.0442
      3 C         -15.7207   -0.8614   20.0486 C.3     1  UNL1        0.0953
      4 N         -17.2139   -1.0004   20.0148 N.am    1  UNL1       -0.2794
      5 C         -18.0839    0.1555   20.4109 C.2     1  UNL1        0.2252
      6 O         -19.5770    0.0165   20.3771 O.2     1  UNL1       -0.2749
      7 C         -17.8370   -2.2953   19.5849 C.3     1  UNL1        0.0953
      8 C         -16.9670   -3.4512   19.1887 C.3     1  UNL1        0.0442
      9 N         -12.7121   -5.7712   18.0428 N.ar    1  UNL1       -0.2799
     10 C         -13.1978   -4.3777   18.3119 C.ar    1  UNL1        0.3315
     11 O         -12.4148   -3.1154   18.1032 O.2     1  UNL1       -0.2463
     12 N         -14.6039   -4.4682   18.8264 N.ar    1  UNL1       -0.2817
     13 C         -14.9873   -5.9176   18.8752 C.ar    1  UNL1        0.0796
     14 C         -16.2499   -6.6081   19.2980 C.ar    1  UNL1        0.0188
     15 C         -16.3434   -8.1039   19.2366 C.ar    1  UNL1        0.0016
     16 C         -15.1742   -8.9092   18.7523 C.ar    1  UNL1        0.0016
     17 C         -13.9116   -8.2187   18.3294 C.ar    1  UNL1        0.0188
     18 C         -13.8181   -6.7229   18.3909 C.ar    1  UNL1        0.0797
     19 C         -11.3582   -6.1470   17.5177 C.3     1  UNL1        0.1105
     20 C          -9.6112   -7.6372   18.7331 C.3     1  UNL1        0.0020
     21 C         -10.1998   -6.2847   18.4605 C.3     1  UNL1        0.0228
     22 C          -9.6299   -5.0698   19.1308 C.3     1  UNL1        0.0020
     23 C         -17.4607    1.4504   20.8409 C.3     1  UNL1        0.0795
     24 C         -17.5242    1.8724   22.2789 C.3     1  UNL1        0.0264
     25 C         -16.9010    3.1674   22.7088 C.3     1  UNL1        0.0729
     26 N         -16.2142    4.0402   21.7006 N.3     1  UNL1       -0.2689
     27 C         -16.1506    3.6182   20.2626 C.3     1  UNL1        0.0729
     28 C         -16.7738    2.3233   19.8328 C.3     1  UNL1        0.0264
     29 C         -15.5909    5.3351   22.1305 C.3     1  UNL1        0.0992
     30 C         -14.8428    5.4130   23.4283 C.ar    1  UNL1       -0.0031
     31 C         -15.4677    6.0844   24.6152 C.ar    1  UNL1        0.0178
     32 C         -14.7196    6.1623   25.9129 C.ar    1  UNL1        0.0986
     33 N         -13.3465    5.5688   26.0238 N.ar    1  UNL1       -0.2423
     34 C         -12.7215    4.8974   24.8369 C.ar    1  UNL1        0.0986
     35 C         -13.4697    4.8195   23.5392 C.ar    1  UNL1        0.0178
@<TRIPOS>BOND
     1    20    21    1
     2    21    22    1
     3    21    19    1
     4    19     9    1
     5     9    10   ar
     6    10    11    2
     7    10    12   ar
     8    12     1    1
     9     1     2    1
    10     2     3    1
    11     3     4    1
    12     4     5   am
    13     5     6    2
    14     5    23    1
    15    23    24    1
    16    24    25    1
    17    25    26    1
    18    26    29    1
    19    29    30    1
    20    30    31   ar
    21    31    32   ar
    22    32    33   ar
    23    33    34   ar
    24    34    35   ar
    25    26    27    1
    26    27    28    1
    27     4     7    1
    28     7     8    1
    29    12    13   ar
    30    13    14   ar
    31    14    15   ar
    32    15    16   ar
    33    16    17   ar
    34    17    18   ar
    35    18     9   ar
    36     8     1    1
    37    18    13   ar
    38    28    23    1
    39    35    30   ar
@<TRIPOS>MOLECULE
*****
 35 39 0 0 0
SMALL
GASTEIGER

@<TRIPOS>ATOM
      1 C           0.6979    2.1290   19.1599 C.3     1  UNL1        0.0933
      2 C          -0.2238    2.2494   20.3372 C.3     1  UNL1        0.0442
      3 C          -1.4756    3.0687   20.2290 C.3     1  UNL1        0.0953
      4 N          -1.8058    3.7676   18.9435 N.am    1  UNL1       -0.2794
      5 C          -3.0576    4.5868   18.8352 C.2     1  UNL1        0.2252
      6 O          -3.3878    5.2857   17.5497 O.2     1  UNL1       -0.2749
      7 C          -0.8841    3.6471   17.7662 C.3     1  UNL1        0.0953
      8 C           0.3677    2.8279   17.8744 C.3     1  UNL1        0.0442
      9 N           3.4801   -0.5177   19.7252 N.ar    1  UNL1       -0.2799
     10 C           2.0448   -0.0888   19.8019 C.ar    1  UNL1        0.3315
     11 O           0.9047   -0.9137   20.3212 O.2     1  UNL1       -0.2463
     12 N           1.9498    1.3098   19.2681 N.ar    1  UNL1       -0.2817
     13 C           3.3264    1.7453   18.8615 C.ar    1  UNL1        0.0796
     14 C           3.8408    3.0243   18.2705 C.ar    1  UNL1        0.0188
     15 C           5.3011    3.1739   17.9620 C.ar    1  UNL1        0.0016
     16 C           6.2469    2.0445   18.2446 C.ar    1  UNL1        0.0016
     17 C           5.7325    0.7655   18.8356 C.ar    1  UNL1        0.0188
     18 C           4.2722    0.6158   19.1440 C.ar    1  UNL1        0.0797
     19 C           4.0274   -1.8467   20.1544 C.3     1  UNL1        0.1105
     20 C           5.3577   -2.8743   18.1735 C.3     1  UNL1        0.0020
     21 C           4.2175   -2.9406   19.1459 C.3     1  UNL1        0.0228
     22 C           3.2675   -4.1009   19.1098 C.3     1  UNL1        0.0020
     23 C          -3.9792    4.7072   20.0125 C.3     1  UNL1        0.0795
     24 C          -5.0066    3.6457   20.2724 C.3     1  UNL1        0.0264
     25 C          -5.9282    3.7661   21.4499 C.3     1  UNL1        0.0729
     26 N          -5.8224    4.9481   22.3673 N.3     1  UNL1       -0.2689
     27 C          -4.7950    6.0096   22.1074 C.3     1  UNL1        0.0729
     28 C          -3.8734    5.8892   20.9301 C.3     1  UNL1        0.0264
     29 C          -6.7440    5.0685   23.5446 C.3     1  UNL1        0.0992
     30 C          -6.1825    5.1175   24.9347 C.ar    1  UNL1       -0.0031
     31 C          -6.7272    6.0993   25.9294 C.ar    1  UNL1        0.0178
     32 C          -6.1658    6.1483   27.3195 C.ar    1  UNL1        0.0986
     33 N          -5.0597    5.2155   27.7149 N.ar    1  UNL1       -0.2423
     34 C          -4.5150    4.2337   26.7202 C.ar    1  UNL1        0.0986
     35 C          -5.0764    4.1847   25.3301 C.ar    1  UNL1        0.0178
@<TRIPOS>BOND
     1    20    21    1
     2    21    22    1
     3    21    19    1
     4    19     9    1
     5     9    10   ar
     6    10    11    2
     7    10    12   ar
     8    12     1    1
     9     1     2    1
    10     2     3    1
    11     3     4    1
    12     4     5   am
    13     5     6    2
    14     5    23    1
    15    23    24    1
    16    24    25    1
    17    25    26    1
    18    26    29    1
    19    29    30    1
    20    30    31   ar
    21    31    32   ar
    22    32    33   ar
    23    33    34   ar
    24    34    35   ar
    25    26    27    1
    26    27    28    1
    27     4     7    1
    28     7     8    1
    29    12    13   ar
    30    13    14   ar
    31    14    15   ar
    32    15    16   ar
    33    16    17   ar
    34    17    18   ar
    35    18     9   ar
    36     8     1    1
    37    18    13   ar
    38    28    23    1
    39    35    30   ar
@<TRIPOS>MOLECULE
*****
 35 39 0 0 0
SMALL
GASTEIGER

@<TRIPOS>ATOM
      1 C           6.6395   -3.9792   26.1435 C.3     1  UNL1        0.0933
      2 C           6.7812   -2.8236   27.0895 C.3     1  UNL1        0.0442
      3 C           6.8588   -3.0692   28.5672 C.3     1  UNL1        0.0953
      4 N           6.7948   -4.4703   29.0990 N.am    1  UNL1       -0.2794
      5 C           6.8725   -4.7158   30.5767 C.2     1  UNL1        0.2252
      6 O           6.8084   -6.1169   31.1086 O.2     1  UNL1       -0.2749
      7 C           6.6532   -5.6258   28.1531 C.3     1  UNL1        0.0953
      8 C           6.5755   -5.3802   26.6754 C.3     1  UNL1        0.0442
      9 N           5.8703   -2.8832   22.5004 N.ar    1  UNL1       -0.2799
     10 C           5.5904   -2.8247   23.9729 C.ar    1  UNL1        0.3315
     11 O           4.5260   -2.0017   24.6361 O.2     1  UNL1       -0.2463
     12 N           6.5619   -3.7336   24.6658 N.ar    1  UNL1       -0.2817
     13 C           7.4421   -4.3539   23.6215 C.ar    1  UNL1        0.0796
     14 C           8.5776   -5.3294   23.7164 C.ar    1  UNL1        0.0188
     15 C           9.2856   -5.7793   22.4729 C.ar    1  UNL1        0.0016
     16 C           8.8582   -5.2537   21.1346 C.ar    1  UNL1        0.0016
     17 C           7.7227   -4.2782   21.0398 C.ar    1  UNL1        0.0188
     18 C           7.0146   -3.8283   22.2832 C.ar    1  UNL1        0.0797
     19 C           5.1348   -2.1290   21.4325 C.3     1  UNL1        0.1105
     20 C           3.1353   -2.0345   19.7763 C.3     1  UNL1        0.0020
     21 C           4.1161   -2.8312   20.5846 C.3     1  UNL1        0.0228
     22 C           4.0781   -4.3303   20.5450 C.3     1  UNL1        0.0020
     23 C           7.0141   -3.5603   31.5226 C.3     1  UNL1        0.0795
     24 C           8.3781   -3.0796   31.9205 C.3     1  UNL1        0.0264
     25 C           8.5197   -1.9240   32.8664 C.3     1  UNL1        0.0729
     26 N           7.2973   -1.2491   33.4143 N.3     1  UNL1       -0.2689
     27 C           5.9332   -1.7297   33.0163 C.3     1  UNL1        0.0729
     28 C           5.7917   -2.8853   32.0705 C.3     1  UNL1        0.0264
     29 C           7.4389   -0.0935   34.3601 C.3     1  UNL1        0.0992
     30 C           6.2324    0.4499   35.0664 C.ar    1  UNL1       -0.0031
     31 C           5.7935   -0.1486   36.3699 C.ar    1  UNL1        0.0178
     32 C           4.5870    0.3949   37.0763 C.ar    1  UNL1        0.0986
     33 N           3.8192    1.5367   36.4790 N.ar    1  UNL1       -0.2423
     34 C           4.2581    2.1352   35.1754 C.ar    1  UNL1        0.0986
     35 C           5.4646    1.5918   34.4691 C.ar    1  UNL1        0.0178
@<TRIPOS>BOND
     1    20    21    1
     2    21    22    1
     3    21    19    1
     4    19     9    1
     5     9    10   ar
     6    10    11    2
     7    10    12   ar
     8    12     1    1
     9     1     2    1
    10     2     3    1
    11     3     4    1
    12     4     5   am
    13     5     6    2
    14     5    23    1
    15    23    24    1
    16    24    25    1
    17    25    26    1
    18    26    29    1
    19    29    30    1
    20    30    31   ar
    21    31    32   ar
    22    32    33   ar
    23    33    34   ar
    24    34    35   ar
    25    26    27    1
    26    27    28    1
    27     4     7    1
    28     7     8    1
    29    12    13   ar
    30    13    14   ar
    31    14    15   ar
    32    15    16   ar
    33    16    17   ar
    34    17    18   ar
    35    18     9   ar
    36     8     1    1
    37    18    13   ar
    38    28    23    1
    39    35    30   ar
@<TRIPOS>MOLECULE
*****
 35 39 0 0 0
SMALL
GASTEIGER

@<TRIPOS>ATOM
      1 C           7.7059   -4.5788   24.4427 C.3     1  UNL1        0.0933
      2 C           6.5135   -3.9000   23.8364 C.3     1  UNL1        0.0442
      3 C           6.5915   -3.3504   22.4429 C.3     1  UNL1        0.0953
      4 N           7.8618   -3.4796   21.6557 N.am    1  UNL1       -0.2794
      5 C           7.9397   -2.9300   20.2621 C.2     1  UNL1        0.2252
      6 O           9.2100   -3.0592   19.4749 O.2     1  UNL1       -0.2749
      7 C           9.0541   -4.1583   22.2620 C.3     1  UNL1        0.0953
      8 C           8.9761   -4.7079   23.6555 C.3     1  UNL1        0.0442
      9 N           7.1026   -5.3797   28.1923 N.ar    1  UNL1       -0.2799
     10 C           6.9260   -4.4897   26.9979 C.ar    1  UNL1        0.3315
     11 O           6.1788   -3.1894   26.9700 O.2     1  UNL1       -0.2463
     12 N           7.6280   -5.1283   25.8363 N.ar    1  UNL1       -0.2817
     13 C           8.2384   -6.4130   26.3128 C.ar    1  UNL1        0.0796
     14 C           9.0479   -7.4614   25.6088 C.ar    1  UNL1        0.0188
     15 C           9.5326   -8.6652   26.3611 C.ar    1  UNL1        0.0016
     16 C           9.2079   -8.8205   27.8173 C.ar    1  UNL1        0.0016
     17 C           8.3984   -7.7722   28.5212 C.ar    1  UNL1        0.0188
     18 C           7.9136   -6.5684   27.7689 C.ar    1  UNL1        0.0797
     19 C           6.5628   -5.1257   29.5686 C.3     1  UNL1        0.1105
     20 C           6.6981   -3.6530   31.7046 C.3     1  UNL1        0.0020
     21 C           7.3755   -4.3488   30.5614 C.3     1  UNL1        0.0228
     22 C           8.8658   -4.2675   30.4110 C.3     1  UNL1        0.0020
     23 C           6.7473   -2.2513   19.6559 C.3     1  UNL1        0.0795
     24 C           6.5541   -0.7745   19.8335 C.3     1  UNL1        0.0264
     25 C           5.3617   -0.0958   19.2272 C.3     1  UNL1        0.0729
     26 N           4.3625   -0.8940   18.4433 N.3     1  UNL1       -0.2689
     27 C           4.5557   -2.3708   18.2657 C.3     1  UNL1        0.0729
     28 C           5.7481   -3.0495   18.8720 C.3     1  UNL1        0.0264
     29 C           3.1701   -0.2153   17.8371 C.3     1  UNL1        0.0992
     30 C           2.0434    0.2458   18.7134 C.ar    1  UNL1       -0.0031
     31 C           1.6654   -0.5480   19.9288 C.ar    1  UNL1        0.0178
     32 C           0.5387   -0.0869   20.8051 C.ar    1  UNL1        0.0986
     33 N          -0.2100    1.1679   20.4661 N.ar    1  UNL1       -0.2423
     34 C           0.1681    1.9617   19.2508 C.ar    1  UNL1        0.0986
     35 C           1.2948    1.5006   18.3744 C.ar    1  UNL1        0.0178
@<TRIPOS>BOND
     1    20    21    1
     2    21    22    1
     3    21    19    1
     4    19     9    1
     5     9    10   ar
     6    10    11    2
     7    10    12   ar
     8    12     1    1
     9     1     2    1
    10     2     3    1
    11     3     4    1
    12     4     5   am
    13     5     6    2
    14     5    23    1
    15    23    24    1
    16    24    25    1
    17    25    26    1
    18    26    29    1
    19    29    30    1
    20    30    31   ar
    21    31    32   ar
    22    32    33   ar
    23    33    34   ar
    24    34    35   ar
    25    26    27    1
    26    27    28    1
    27     4     7    1
    28     7     8    1
    29    12    13   ar
    30    13    14   ar
    31    14    15   ar
    32    15    16   ar
    33    16    17   ar
    34    17    18   ar
    35    18     9   ar
    36     8     1    1
    37    18    13   ar
    38    28    23    1
    39    35    30   ar
@<TRIPOS>MOLECULE
*****
 35 39 0 0 0
SMALL
GASTEIGER

@<TRIPOS>ATOM
      1 C           6.5200   -3.9560   25.4832 C.3     1  UNL1        0.0933
      2 C           6.5458   -2.8875   26.5357 C.3     1  UNL1        0.0442
      3 C           6.9474   -3.2278   27.9403 C.3     1  UNL1        0.0953
      4 N           7.3232   -4.6366   28.2924 N.am    1  UNL1       -0.2794
      5 C           7.7248   -4.9770   29.6970 C.2     1  UNL1        0.2252
      6 O           8.1006   -6.3858   30.0491 O.2     1  UNL1       -0.2749
      7 C           7.2974   -5.7051   27.2399 C.3     1  UNL1        0.0953
      8 C           6.8958   -5.3647   25.8353 C.3     1  UNL1        0.0442
      9 N           6.0130   -3.5721   21.6543 N.ar    1  UNL1       -0.2799
     10 C           6.7117   -4.1927   22.8276 C.ar    1  UNL1        0.3315
     11 O           7.8108   -5.2114   22.7615 O.2     1  UNL1       -0.2463
     12 N           6.1184   -3.6156   24.0786 N.ar    1  UNL1       -0.2817
     13 C           5.0530   -2.6385   23.6785 C.ar    1  UNL1        0.0796
     14 C           4.1338   -1.7697   24.4849 C.ar    1  UNL1        0.0188
     15 C           3.1495   -0.8741   23.7929 C.ar    1  UNL1        0.0016
     16 C           3.0843   -0.8472   22.2946 C.ar    1  UNL1        0.0016
     17 C           4.0035   -1.7159   21.4882 C.ar    1  UNL1        0.0188
     18 C           4.9878   -2.6116   22.1801 C.ar    1  UNL1        0.0797
     19 C           6.2906   -3.8613   20.2088 C.3     1  UNL1        0.1105
     20 C           5.1356   -2.7587   18.1594 C.3     1  UNL1        0.0020
     21 C           5.1726   -3.8293   19.2093 C.3     1  UNL1        0.0228
     22 C           4.0915   -4.8680   19.2598 C.3     1  UNL1        0.0020
     23 C           7.7505   -3.9085   30.7494 C.3     1  UNL1        0.0795
     24 C           9.0271   -3.1792   31.0469 C.3     1  UNL1        0.0264
     25 C           9.0528   -2.1107   32.0994 C.3     1  UNL1        0.0729
     26 N           7.8018   -1.7714   32.8544 N.3     1  UNL1       -0.2689
     27 C           6.5252   -2.5007   32.5569 C.3     1  UNL1        0.0729
     28 C           6.4996   -3.5692   31.5045 C.3     1  UNL1        0.0264
     29 C           7.8275   -0.7029   33.9068 C.3     1  UNL1        0.0992
     30 C           6.5495   -0.0521   34.3463 C.ar    1  UNL1       -0.0031
     31 C           5.9234   -0.4362   35.6541 C.ar    1  UNL1        0.0178
     32 C           4.6454    0.2147   36.0936 C.ar    1  UNL1        0.0986
     33 N           3.9936    1.2496   35.2252 N.ar    1  UNL1       -0.2423
     34 C           4.6198    1.6337   33.9174 C.ar    1  UNL1        0.0986
     35 C           5.8977    0.9828   33.4779 C.ar    1  UNL1        0.0178
@<TRIPOS>BOND
     1    20    21    1
     2    21    22    1
     3    21    19    1
     4    19     9    1
     5     9    10   ar
     6    10    11    2
     7    10    12   ar
     8    12     1    1
     9     1     2    1
    10     2     3    1
    11     3     4    1
    12     4     5   am
    13     5     6    2
    14     5    23    1
    15    23    24    1
    16    24    25    1
    17    25    26    1
    18    26    29    1
    19    29    30    1
    20    30    31   ar
    21    31    32   ar
    22    32    33   ar
    23    33    34   ar
    24    34    35   ar
    25    26    27    1
    26    27    28    1
    27     4     7    1
    28     7     8    1
    29    12    13   ar
    30    13    14   ar
    31    14    15   ar
    32    15    16   ar
    33    16    17   ar
    34    17    18   ar
    35    18     9   ar
    36     8     1    1
    37    18    13   ar
    38    28    23    1
    39    35    30   ar
@<TRIPOS>MOLECULE
*****
 35 39 0 0 0
SMALL
GASTEIGER

@<TRIPOS>ATOM
      1 C           1.4021    1.1265   19.9020 C.3     1  UNL1        0.0933
      2 C           0.3169    1.2854   20.9254 C.3     1  UNL1        0.0442
      3 C          -0.7788    2.2864   20.7073 C.3     1  UNL1        0.0953
      4 N          -0.7893    3.1285   19.4661 N.am    1  UNL1       -0.2794
      5 C          -1.8849    4.1294   19.2480 C.2     1  UNL1        0.2252
      6 O          -1.8954    4.9715   18.0067 O.2     1  UNL1       -0.2749
      7 C           0.2959    2.9695   18.4428 C.3     1  UNL1        0.0953
      8 C           1.3916    1.9685   18.6608 C.3     1  UNL1        0.0442
      9 N           4.2847   -1.4660   19.7142 N.ar    1  UNL1       -0.2799
     10 C           3.3050   -0.5456   19.0486 C.ar    1  UNL1        0.3315
     11 O           3.1582   -0.3336   17.5709 O.2     1  UNL1       -0.2463
     12 N           2.4978    0.1255   20.1201 N.ar    1  UNL1       -0.2817
     13 C           2.9787   -0.3801   21.4479 C.ar    1  UNL1        0.0796
     14 C           2.5536   -0.0719   22.8530 C.ar    1  UNL1        0.0188
     15 C           3.2329   -0.7474   24.0073 C.ar    1  UNL1        0.0016
     16 C           4.3372   -1.7310   23.7564 C.ar    1  UNL1        0.0016
     17 C           4.7623   -2.0391   22.3513 C.ar    1  UNL1        0.0188
     18 C           4.0830   -1.3637   21.1971 C.ar    1  UNL1        0.0797
     19 C           5.2896   -2.3359   19.0191 C.3     1  UNL1        0.1105
     20 C           6.5924   -4.2465   20.2034 C.3     1  UNL1        0.0020
     21 C           5.4171   -3.7824   19.3950 C.3     1  UNL1        0.0228
     22 C           4.3693   -4.7649   18.9627 C.3     1  UNL1        0.0020
     23 C          -2.9701    4.2883   20.2713 C.3     1  UNL1        0.0795
     24 C          -2.8720    5.3688   21.3071 C.3     1  UNL1        0.0264
     25 C          -3.9572    5.5276   22.3304 C.3     1  UNL1        0.0729
     26 N          -5.1406    4.6059   22.3179 N.3     1  UNL1       -0.2689
     27 C          -5.2387    3.5254   21.2822 C.3     1  UNL1        0.0729
     28 C          -4.1535    3.3666   20.2589 C.3     1  UNL1        0.0264
     29 C          -6.2257    4.7647   23.3412 C.3     1  UNL1        0.0992
     30 C          -5.8718    4.9577   24.7860 C.ar    1  UNL1       -0.0031
     31 C          -4.8522    4.0684   25.4337 C.ar    1  UNL1        0.0178
     32 C          -4.4983    4.2614   26.8785 C.ar    1  UNL1        0.0986
     33 N          -5.1640    5.3437   27.6756 N.ar    1  UNL1       -0.2423
     34 C          -6.1836    6.2330   27.0279 C.ar    1  UNL1        0.0986
     35 C          -6.5375    6.0401   25.5831 C.ar    1  UNL1        0.0178
@<TRIPOS>BOND
     1    20    21    1
     2    21    22    1
     3    21    19    1
     4    19     9    1
     5     9    10   ar
     6    10    11    2
     7    10    12   ar
     8    12     1    1
     9     1     2    1
    10     2     3    1
    11     3     4    1
    12     4     5   am
    13     5     6    2
    14     5    23    1
    15    23    24    1
    16    24    25    1
    17    25    26    1
    18    26    29    1
    19    29    30    1
    20    30    31   ar
    21    31    32   ar
    22    32    33   ar
    23    33    34   ar
    24    34    35   ar
    25    26    27    1
    26    27    28    1
    27     4     7    1
    28     7     8    1
    29    12    13   ar
    30    13    14   ar
    31    14    15   ar
    32    15    16   ar
    33    16    17   ar
    34    17    18   ar
    35    18     9   ar
    36     8     1    1
    37    18    13   ar
    38    28    23    1
    39    35    30   ar
@<TRIPOS>MOLECULE
*****
 35 39 0 0 0
SMALL
GASTEIGER

@<TRIPOS>ATOM
      1 C           6.4859   -3.2131   26.4295 C.3     1  UNL1        0.0933
      2 C           5.6118   -2.4242   25.5001 C.3     1  UNL1        0.0442
      3 C           5.6944   -2.6506   24.0196 C.3     1  UNL1        0.0953
      4 N           6.6512   -3.6658   23.4684 N.am    1  UNL1       -0.2794
      5 C           6.7339   -3.8922   21.9879 C.2     1  UNL1        0.2252
      6 O           7.6906   -4.9075   21.4367 O.2     1  UNL1       -0.2749
      7 C           7.5253   -4.4547   24.3977 C.3     1  UNL1        0.0953
      8 C           7.4426   -4.2283   25.8782 C.3     1  UNL1        0.0442
      9 N           6.0427   -1.9359   30.0678 N.ar    1  UNL1       -0.2799
     10 C           5.9771   -1.7169   28.5853 C.ar    1  UNL1        0.3315
     11 O           5.5588   -0.4506   27.8987 O.2     1  UNL1       -0.2463
     12 N           6.4033   -2.9867   27.9100 N.ar    1  UNL1       -0.2817
     13 C           6.7323   -3.9904   28.9751 C.ar    1  UNL1        0.0796
     14 C           7.2059   -5.4118   28.9029 C.ar    1  UNL1        0.0188
     15 C           7.4568   -6.1837   30.1643 C.ar    1  UNL1        0.0016
     16 C           7.2339   -5.5342   31.4979 C.ar    1  UNL1        0.0016
     17 C           6.7603   -4.1128   31.5701 C.ar    1  UNL1        0.0188
     18 C           6.5094   -3.3409   30.3087 C.ar    1  UNL1        0.0797
     19 C           5.7015   -0.9269   31.1240 C.3     1  UNL1        0.1105
     20 C           4.4381   -1.7200   33.2511 C.3     1  UNL1        0.0020
     21 C           4.4275   -1.0595   31.9044 C.3     1  UNL1        0.0228
     22 C           3.1426   -0.5317   31.3380 C.3     1  UNL1        0.0020
     23 C           5.8597   -3.1033   21.0587 C.3     1  UNL1        0.0795
     24 C           6.3030   -1.7539   20.5765 C.3     1  UNL1        0.0264
     25 C           5.4288   -0.9650   19.6472 C.3     1  UNL1        0.0729
     26 N           4.1113   -1.5256   19.2002 N.3     1  UNL1       -0.2689
     27 C           3.6679   -2.8750   19.6824 C.3     1  UNL1        0.0729
     28 C           4.5421   -3.6638   20.6116 C.3     1  UNL1        0.0264
     29 C           3.2371   -0.7367   18.2710 C.3     1  UNL1        0.0992
     30 C           2.2481    0.2457   18.8247 C.ar    1  UNL1       -0.0031
     31 C           2.3394    1.6949   18.4485 C.ar    1  UNL1        0.0178
     32 C           1.3504    2.6773   19.0022 C.ar    1  UNL1        0.0986
     33 N           0.2699    2.2105   19.9321 N.ar    1  UNL1       -0.2423
     34 C           0.1786    0.7613   20.3083 C.ar    1  UNL1        0.0986
     35 C           1.1676   -0.2211   19.7546 C.ar    1  UNL1        0.0178
@<TRIPOS>BOND
     1    20    21    1
     2    21    22    1
     3    21    19    1
     4    19     9    1
     5     9    10   ar
     6    10    11    2
     7    10    12   ar
     8    12     1    1
     9     1     2    1
    10     2     3    1
    11     3     4    1
    12     4     5   am
    13     5     6    2
    14     5    23    1
    15    23    24    1
    16    24    25    1
    17    25    26    1
    18    26    29    1
    19    29    30    1
    20    30    31   ar
    21    31    32   ar
    22    32    33   ar
    23    33    34   ar
    24    34    35   ar
    25    26    27    1
    26    27    28    1
    27     4     7    1
    28     7     8    1
    29    12    13   ar
    30    13    14   ar
    31    14    15   ar
    32    15    16   ar
    33    16    17   ar
    34    17    18   ar
    35    18     9   ar
    36     8     1    1
    37    18    13   ar
    38    28    23    1
    39    35    30   ar
@<TRIPOS>MOLECULE
*****
 35 39 0 0 0
SMALL
GASTEIGER

@<TRIPOS>ATOM
      1 C          -1.8000    3.7578   21.2852 C.3     1  UNL1        0.0933
      2 C          -0.8423    2.6083   21.3943 C.3     1  UNL1        0.0442
      3 C           0.3560    2.5426   20.4944 C.3     1  UNL1        0.0953
      4 N           0.5966    3.6262   19.4855 N.am    1  UNL1       -0.2794
      5 C           1.7949    3.5604   18.5856 C.2     1  UNL1        0.2252
      6 O           2.0355    4.6440   17.5767 O.2     1  UNL1       -0.2749
      7 C          -0.3610    4.7755   19.3764 C.3     1  UNL1        0.0953
      8 C          -1.5593    4.8413   20.2763 C.3     1  UNL1        0.0442
      9 N          -5.2896    3.9771   22.9703 N.ar    1  UNL1       -0.2799
     10 C          -4.4266    3.9469   21.7438 C.ar    1  UNL1        0.3315
     11 O          -4.9074    4.0263   20.3252 O.2     1  UNL1       -0.2463
     12 N          -2.9983    3.8235   22.1851 N.ar    1  UNL1       -0.2817
     13 C          -2.9786    3.7774   23.6843 C.ar    1  UNL1        0.0796
     14 C          -1.8542    3.6612   24.6702 C.ar    1  UNL1        0.0188
     15 C          -2.1459    3.6400   26.1414 C.ar    1  UNL1        0.0016
     16 C          -3.5620    3.7349   26.6266 C.ar    1  UNL1        0.0016
     17 C          -4.6865    3.8511   25.6407 C.ar    1  UNL1        0.0188
     18 C          -4.3948    3.8723   24.1696 C.ar    1  UNL1        0.0797
     19 C          -6.7851    4.0919   22.9935 C.3     1  UNL1        0.1105
     20 C          -8.7411    5.1851   24.3083 C.3     1  UNL1        0.0020
     21 C          -7.4349    5.3092   23.5814 C.3     1  UNL1        0.0228
     22 C          -6.7785    6.6509   23.4424 C.3     1  UNL1        0.0020
     23 C           2.7525    2.4111   18.6947 C.3     1  UNL1        0.0795
     24 C           2.3464    1.0485   18.2167 C.3     1  UNL1        0.0264
     25 C           3.3041   -0.1009   18.3258 C.3     1  UNL1        0.0729
     26 N           4.6678    0.1123   18.9129 N.3     1  UNL1       -0.2689
     27 C           5.0739    1.4749   19.3909 C.3     1  UNL1        0.0729
     28 C           4.1163    2.6242   19.2818 C.3     1  UNL1        0.0264
     29 C           5.6254   -1.0370   19.0220 C.3     1  UNL1        0.0992
     30 C           5.1373   -2.3790   19.4810 C.ar    1  UNL1       -0.0031
     31 C           4.9953   -3.5022   18.4970 C.ar    1  UNL1        0.0178
     32 C           4.5071   -4.8442   18.9559 C.ar    1  UNL1        0.0986
     33 N           4.1609   -5.0631   20.3989 N.ar    1  UNL1       -0.2423
     34 C           4.3029   -3.9399   21.3829 C.ar    1  UNL1        0.0986
     35 C           4.7911   -2.5979   20.9240 C.ar    1  UNL1        0.0178
@<TRIPOS>BOND
     1    20    21    1
     2    21    22    1
     3    21    19    1
     4    19     9    1
     5     9    10   ar
     6    10    11    2
     7    10    12   ar
     8    12     1    1
     9     1     2    1
    10     2     3    1
    11     3     4    1
    12     4     5   am
    13     5     6    2
    14     5    23    1
    15    23    24    1
    16    24    25    1
    17    25    26    1
    18    26    29    1
    19    29    30    1
    20    30    31   ar
    21    31    32   ar
    22    32    33   ar
    23    33    34   ar
    24    34    35   ar
    25    26    27    1
    26    27    28    1
    27     4     7    1
    28     7     8    1
    29    12    13   ar
    30    13    14   ar
    31    14    15   ar
    32    15    16   ar
    33    16    17   ar
    34    17    18   ar
    35    18     9   ar
    36     8     1    1
    37    18    13   ar
    38    28    23    1
    39    35    30   ar
@<TRIPOS>MOLECULE
*****
 35 39 0 0 0
SMALL
GASTEIGER

@<TRIPOS>ATOM
      1 C           2.2969    0.2098   24.0194 C.3     1  UNL1        0.0933
      2 C           3.2576   -0.1100   25.1263 C.3     1  UNL1        0.0442
      3 C           2.9467    0.3076   26.5331 C.3     1  UNL1        0.0953
      4 N           1.6754    1.0448   26.8331 N.am    1  UNL1       -0.2794
      5 C           1.3645    1.4624   28.2399 C.2     1  UNL1        0.2252
      6 O           0.0932    2.1996   28.5399 O.2     1  UNL1       -0.2749
      7 C           0.7148    1.3646   25.7263 C.3     1  UNL1        0.0953
      8 C           1.0256    0.9470   24.3195 C.3     1  UNL1        0.0442
      9 N           2.7202   -0.2491   20.1886 N.ar    1  UNL1       -0.2799
     10 C           2.1985    0.5196   21.3663 C.ar    1  UNL1        0.3315
     11 O           1.4065    1.7922   21.3078 O.2     1  UNL1       -0.2463
     12 N           2.6077   -0.2077   22.6126 N.ar    1  UNL1       -0.2817
     13 C           3.3824   -1.4259   22.2053 C.ar    1  UNL1        0.0796
     14 C           4.0334   -2.5152   23.0050 C.ar    1  UNL1        0.0188
     15 C           4.7540   -3.6300   22.3065 C.ar    1  UNL1        0.0016
     16 C           4.8235   -3.6556   20.8084 C.ar    1  UNL1        0.0016
     17 C           4.1725   -2.5663   20.0087 C.ar    1  UNL1        0.0188
     18 C           3.4519   -1.4515   20.7071 C.ar    1  UNL1        0.0797
     19 C           2.5416    0.1198   18.7457 C.3     1  UNL1        0.1105
     20 C           3.9208   -0.7895   16.7405 C.3     1  UNL1        0.0020
     21 C           3.7350    0.2118   17.8418 C.3     1  UNL1        0.0228
     22 C           4.7428    1.3052   18.0391 C.3     1  UNL1        0.0020
     23 C           2.3252    1.1426   29.3466 C.3     1  UNL1        0.0795
     24 C           2.1636   -0.1212   30.1383 C.3     1  UNL1        0.0264
     25 C           3.1244   -0.4409   31.2451 C.3     1  UNL1        0.0729
     26 N           4.2466    0.5032   31.5602 N.3     1  UNL1       -0.2689
     27 C           4.4081    1.7670   30.7685 C.3     1  UNL1        0.0729
     28 C           3.4475    2.0867   29.6618 C.3     1  UNL1        0.0264
     29 C           5.2072    0.1835   32.6669 C.3     1  UNL1        0.0992
     30 C           4.8219    0.4436   34.0930 C.ar    1  UNL1       -0.0031
     31 C           3.8689    1.5543   34.4218 C.ar    1  UNL1        0.0178
     32 C           3.4836    1.8144   35.8480 C.ar    1  UNL1        0.0986
     33 N           4.0513    0.9638   36.9453 N.ar    1  UNL1       -0.2423
     34 C           5.0043   -0.1470   36.6165 C.ar    1  UNL1        0.0986
     35 C           5.3896   -0.4071   35.1903 C.ar    1  UNL1        0.0178
@<TRIPOS>BOND
     1    20    21    1
     2    21    22    1
     3    21    19    1
     4    19     9    1
     5     9    10   ar
     6    10    11    2
     7    10    12   ar
     8    12     1    1
     9     1     2    1
    10     2     3    1
    11     3     4    1
    12     4     5   am
    13     5     6    2
    14     5    23    1
    15    23    24    1
    16    24    25    1
    17    25    26    1
    18    26    29    1
    19    29    30    1
    20    30    31   ar
    21    31    32   ar
    22    32    33   ar
    23    33    34   ar
    24    34    35   ar
    25    26    27    1
    26    27    28    1
    27     4     7    1
    28     7     8    1
    29    12    13   ar
    30    13    14   ar
    31    14    15   ar
    32    15    16   ar
    33    16    17   ar
    34    17    18   ar
    35    18     9   ar
    36     8     1    1
    37    18    13   ar
    38    28    23    1
    39    35    30   ar
