@<TRIPOS>MOLECULE
*****
 39 44 0 0 0
SMALL
GASTEIGER

@<TRIPOS>ATOM
      1 C           4.1436   -1.5504   22.2282 C.ar    1  UNL1        0.2400
      2 N           3.2162   -0.3731   22.2918 N.ar    1  UNL1       -0.2090
      3 C           2.8089    0.1898   23.6213 C.ar    1  UNL1        0.1037
      4 C           3.1436   -0.1829   25.0805 C.ar    1  UNL1        0.0400
      5 C           3.8180   -1.0727   24.0789 C.ar    1  UNL1        0.0237
      6 C           4.6637   -2.1647   23.4938 C.ar    1  UNL1        0.1179
      7 N           5.5890   -3.3407   23.3889 N.pl3   1  UNL1       -0.2104
      8 S           6.4935   -4.4731   23.7754 S.O2    1  UNL1        0.0737
      9 O           6.3268   -4.3140   22.2933 O.2     1  UNL1       -0.1499
     10 O           7.2641   -5.4777   22.9711 O.2     1  UNL1       -0.1499
     11 C           7.3888   -5.5667   24.9310 C.ar    1  UNL1        0.1253
     12 C           8.1997   -6.6186   24.2340 C.ar    1  UNL1        0.0202
     13 C           8.9989   -7.6030   25.0354 C.ar    1  UNL1        0.0015
     14 C           8.9872   -7.5354   26.5339 C.ar    1  UNL1        0.0046
     15 C           8.1763   -6.4835   27.2309 C.ar    1  UNL1        0.0547
     16 C           7.3771   -5.4991   26.4295 C.ar    1  UNL1        0.0247
     17 C           8.1903   -6.4483   28.7304 C.2     1  UNL1        0.2459
     18 O           9.1095   -7.6035   28.9959 O.2     1  UNL1       -0.2701
     19 N           7.9017   -6.0329   30.1425 N.am    1  UNL1       -0.2989
     20 C           7.3417   -5.2821   31.3142 C.3     1  UNL1        0.1161
     21 C           6.5711   -4.2775   32.1185 C.3     1  UNL1        0.1487
     22 N           5.6733   -3.1278   32.4683 N.ar    1  UNL1       -0.2476
     23 C           4.7458   -1.9576   32.3255 C.ar    1  UNL1        0.0982
     24 C           3.8889   -0.8939   31.7058 C.ar    1  UNL1        0.0589
     25 C           3.9643   -0.9365   33.2033 C.ar    1  UNL1        0.1232
     26 N           4.8688   -2.0690   33.5898 N.ar    1  UNL1       -0.1676
     27 C           3.1956   -0.0516   30.6762 C.ar    1  UNL1        0.1066
     28 C           2.5648    0.7853   31.7494 C.ar    1  UNL1        0.1198
     29 N           1.7204    1.8318   31.0849 N.ar    1  UNL1       -0.2234
     30 C           1.8291    1.6417   29.6011 C.ar    1  UNL1        0.1639
     31 C           1.4159    2.1043   27.8701 C.ar    1  UNL1        0.0404
     32 C           1.7893    1.5834   26.5140 C.ar    1  UNL1        0.0240
     33 C           2.7134    0.4083   26.3903 C.ar    1  UNL1        0.1030
     34 N           2.5741    0.6368   27.8662 N.ar    1  UNL1       -0.1637
     35 N           2.7409    0.4777   29.3485 N.ar    1  UNL1       -0.2106
     36 H           5.6302   -3.4275   22.4091 H       1  UNL1        0.1739
     37 H           8.4426   -6.7014   30.6218 H       1  UNL1        0.1498
     38 C           3.5081   -2.4390   19.8710 C.3     1  UNL1        0.2543
     39 O           4.5509   -2.1132   20.8987 O.3     1  UNL1       -0.4553
@<TRIPOS>BOND
     1    38    39    1
     2    39     1    1
     3     1     2   ar
     4     2     3   ar
     5     3     4   ar
     6     4     5   ar
     7     5     6   ar
     8     6     7    1
     9     7     8    1
    10     8     9    2
    11     8    10    2
    12     8    11    1
    13    11    12   ar
    14    12    13   ar
    15    13    14   ar
    16    14    15   ar
    17    15    16   ar
    18    15    17    1
    19    17    18    2
    20    17    19   am
    21    19    20    1
    22    20    21    1
    23    21    22    1
    24    22    23   ar
    25    23    24   ar
    26    24    25   ar
    27    25    26   ar
    28    24    27    1
    29    27    28   ar
    30    28    29   ar
    31    29    30   ar
    32    30    31   ar
    33    31    32   ar
    34    32    33   ar
    35    33    34   ar
    36    34    35   ar
    37     6     1   ar
    38    16    11   ar
    39    26    22   ar
    40    35    27   ar
    41    33     4    1
    42    35    30   ar
    43     7    36    1
    44    19    37    1
@<TRIPOS>MOLECULE
*****
 39 44 0 0 0
SMALL
GASTEIGER

@<TRIPOS>ATOM
      1 C           7.6307   -5.6439   24.9614 C.ar    1  UNL1        0.2400
      2 N           8.3014   -6.2037   26.1807 N.ar    1  UNL1       -0.2090
      3 C           7.9765   -5.6499   27.5364 C.ar    1  UNL1        0.1037
      4 C           7.0289   -4.5371   28.0303 C.ar    1  UNL1        0.0400
      5 C           6.9959   -4.7169   26.5415 C.ar    1  UNL1        0.0237
      6 C           6.6351   -4.5303   25.0976 C.ar    1  UNL1        0.1179
      7 N           5.9857   -3.9972   23.8550 N.pl3   1  UNL1       -0.2104
      8 S           5.1181   -3.1755   22.9483 S.O2    1  UNL1        0.0737
      9 O           5.9496   -4.1940   22.2264 O.2     1  UNL1       -0.1499
     10 O           4.9185   -3.1721   21.4617 O.2     1  UNL1       -0.1499
     11 C           3.8913   -1.8872   22.5382 C.ar    1  UNL1        0.1253
     12 C           3.6102   -1.7918   21.0679 C.ar    1  UNL1        0.0202
     13 C           2.6246   -0.7832   20.5566 C.ar    1  UNL1        0.0015
     14 C           1.9202    0.1300   21.5157 C.ar    1  UNL1        0.0046
     15 C           2.2013    0.0346   22.9860 C.ar    1  UNL1        0.0547
     16 C           3.1869   -0.9740   23.4972 C.ar    1  UNL1        0.0247
     17 C           1.4771    0.9650   23.9132 C.2     1  UNL1        0.2459
     18 O           0.6559    1.7218   22.9117 O.2     1  UNL1       -0.2701
     19 N           1.0230    1.6463   25.1700 N.am    1  UNL1       -0.2989
     20 C           0.8885    2.0047   26.6204 C.3     1  UNL1        0.1161
     21 C           1.0882    2.0012   28.1071 C.3     1  UNL1        0.1487
     22 N           1.6002    1.6364   29.4690 N.ar    1  UNL1       -0.2476
     23 C           2.3692    0.9496   30.5584 C.ar    1  UNL1        0.0982
     24 C           3.3118    0.0154   31.2575 C.ar    1  UNL1        0.0589
     25 C           2.5421    0.9843   32.1053 C.ar    1  UNL1        0.1232
     26 N           1.6744    1.8059   31.1987 N.ar    1  UNL1       -0.1676
     27 C           4.3260   -1.0650   31.4903 C.ar    1  UNL1        0.1066
     28 C           4.2919   -0.8129   32.9686 C.ar    1  UNL1        0.1198
     29 N           5.2465   -1.7666   33.6237 N.ar    1  UNL1       -0.2234
     30 C           5.8706   -2.6082   32.5503 C.ar    1  UNL1        0.1639
     31 C           7.0069   -3.9387   31.9850 C.ar    1  UNL1        0.0404
     32 C           7.3701   -4.5308   30.6556 C.ar    1  UNL1        0.0240
     33 C           6.7306   -4.0101   29.4027 C.ar    1  UNL1        0.1030
     34 N           6.1333   -3.1931   30.5099 N.ar    1  UNL1       -0.1637
     35 N           5.3017   -2.1746   31.2318 N.ar    1  UNL1       -0.2106
     36 H           6.4209   -4.5726   23.1851 H       1  UNL1        0.1739
     37 H           0.3860    2.2902   24.7842 H       1  UNL1        0.1498
     38 C           8.8907   -7.3635   23.4763 C.3     1  UNL1        0.2543
     39 O           7.9557   -6.1978   23.6058 O.3     1  UNL1       -0.4553
@<TRIPOS>BOND
     1    38    39    1
     2    39     1    1
     3     1     2   ar
     4     2     3   ar
     5     3     4   ar
     6     4     5   ar
     7     5     6   ar
     8     6     7    1
     9     7     8    1
    10     8     9    2
    11     8    10    2
    12     8    11    1
    13    11    12   ar
    14    12    13   ar
    15    13    14   ar
    16    14    15   ar
    17    15    16   ar
    18    15    17    1
    19    17    18    2
    20    17    19   am
    21    19    20    1
    22    20    21    1
    23    21    22    1
    24    22    23   ar
    25    23    24   ar
    26    24    25   ar
    27    25    26   ar
    28    24    27    1
    29    27    28   ar
    30    28    29   ar
    31    29    30   ar
    32    30    31   ar
    33    31    32   ar
    34    32    33   ar
    35    33    34   ar
    36    34    35   ar
    37     6     1   ar
    38    16    11   ar
    39    26    22   ar
    40    35    27   ar
    41    33     4    1
    42    35    30   ar
    43     7    36    1
    44    19    37    1
@<TRIPOS>MOLECULE
*****
 39 44 0 0 0
SMALL
GASTEIGER

@<TRIPOS>ATOM
      1 C           5.2795   -3.2593   21.9127 C.ar    1  UNL1        0.2400
      2 N           4.3882   -2.3654   21.1026 N.ar    1  UNL1       -0.2090
      3 C           3.4988   -1.3714   21.7892 C.ar    1  UNL1        0.1037
      4 C           3.2536   -1.0093   23.2686 C.ar    1  UNL1        0.0400
      5 C           4.2672   -2.1008   23.0927 C.ar    1  UNL1        0.0237
      6 C           5.2816   -3.1595   23.4093 C.ar    1  UNL1        0.1179
      7 N           6.1867   -4.0705   24.1844 N.pl3   1  UNL1       -0.2104
      8 S           6.8846   -4.7353   25.3338 S.O2    1  UNL1        0.0737
      9 O           7.2956   -5.2645   23.9919 O.2     1  UNL1       -0.1499
     10 O           7.9126   -5.8252   25.4051 O.2     1  UNL1       -0.1499
     11 C           7.2795   -5.0360   27.0907 C.ar    1  UNL1        0.1253
     12 C           8.3042   -6.1140   27.2853 C.ar    1  UNL1        0.0202
     13 C           8.7448   -6.4888   28.6692 C.ar    1  UNL1        0.0015
     14 C           8.1607   -5.7856   29.8585 C.ar    1  UNL1        0.0046
     15 C           7.1360   -4.7077   29.6639 C.ar    1  UNL1        0.0547
     16 C           6.6954   -4.3328   28.2800 C.ar    1  UNL1        0.0247
     17 C           6.5755   -4.0279   30.8778 C.2     1  UNL1        0.2459
     18 O           7.3332   -4.7621   31.9440 O.2     1  UNL1       -0.2701
     19 N           5.7655   -3.1064   31.7408 N.am    1  UNL1       -0.2989
     20 C           4.7938   -2.0430   32.1594 C.3     1  UNL1        0.1161
     21 C           3.7657   -0.9531   32.0880 C.3     1  UNL1        0.1487
     22 N           2.7927    0.0454   31.5347 N.ar    1  UNL1       -0.2476
     23 C           1.9802    0.8442   30.5591 C.ar    1  UNL1        0.0982
     24 C           1.4161    1.3567   29.2672 C.ar    1  UNL1        0.0589
     25 C           0.9138    1.9783   30.5365 C.ar    1  UNL1        0.1232
     26 N           1.6116    1.3136   31.6859 N.ar    1  UNL1       -0.1676
     27 C           1.1618    1.5274   27.7987 C.ar    1  UNL1        0.1066
     28 C           0.1616    2.6112   28.0727 C.ar    1  UNL1        0.1198
     29 N          -0.3737    3.0915   26.7563 N.ar    1  UNL1       -0.2234
     30 C           0.2956    2.3046   25.6689 C.ar    1  UNL1        0.1639
     31 C           0.5713    1.8902   23.8988 C.ar    1  UNL1        0.0404
     32 C           1.4392    0.9154   23.1594 C.ar    1  UNL1        0.0240
     33 C           2.3504   -0.0031   23.9183 C.ar    1  UNL1        0.1030
     34 N           1.6556    0.8086   24.9711 N.ar    1  UNL1       -0.1637
     35 N           1.2446    1.3379   26.3131 N.ar    1  UNL1       -0.2106
     36 H           6.6001   -4.5617   23.4379 H       1  UNL1        0.1739
     37 H           6.0879   -3.3893   32.6270 H       1  UNL1        0.1498
     38 C           7.5253   -3.8361   20.7407 C.3     1  UNL1        0.2543
     39 O           6.1688   -4.2532   21.2260 O.3     1  UNL1       -0.4553
@<TRIPOS>BOND
     1    38    39    1
     2    39     1    1
     3     1     2   ar
     4     2     3   ar
     5     3     4   ar
     6     4     5   ar
     7     5     6   ar
     8     6     7    1
     9     7     8    1
    10     8     9    2
    11     8    10    2
    12     8    11    1
    13    11    12   ar
    14    12    13   ar
    15    13    14   ar
    16    14    15   ar
    17    15    16   ar
    18    15    17    1
    19    17    18    2
    20    17    19   am
    21    19    20    1
    22    20    21    1
    23    21    22    1
    24    22    23   ar
    25    23    24   ar
    26    24    25   ar
    27    25    26   ar
    28    24    27    1
    29    27    28   ar
    30    28    29   ar
    31    29    30   ar
    32    30    31   ar
    33    31    32   ar
    34    32    33   ar
    35    33    34   ar
    36    34    35   ar
    37     6     1   ar
    38    16    11   ar
    39    26    22   ar
    40    35    27   ar
    41    33     4    1
    42    35    30   ar
    43     7    36    1
    44    19    37    1
@<TRIPOS>MOLECULE
*****
 39 44 0 0 0
SMALL
GASTEIGER

@<TRIPOS>ATOM
      1 C           0.1385    3.0975   26.6119 C.ar    1  UNL1        0.2400
      2 N          -0.1547    3.6519   27.9745 N.ar    1  UNL1       -0.2090
      3 C           0.5226    3.0731   29.1813 C.ar    1  UNL1        0.1037
      4 C           1.5464    1.9366   29.3825 C.ar    1  UNL1        0.0400
      5 C           1.1679    2.1370   27.9449 C.ar    1  UNL1        0.0237
      6 C           1.1089    1.9643   26.4560 C.ar    1  UNL1        0.1179
      7 N           1.3757    1.4374   25.0772 N.pl3   1  UNL1       -0.2104
      8 S           1.9395    0.6132   23.9579 S.O2    1  UNL1        0.0737
      9 O           0.9618    1.6566   23.5047 O.2     1  UNL1       -0.1499
     10 O           1.7177    0.6273   22.4745 O.2     1  UNL1       -0.1499
     11 C           2.9763   -0.6909   23.2114 C.ar    1  UNL1        0.1253
     12 C           2.8354   -0.7705   21.7202 C.ar    1  UNL1        0.0202
     13 C           3.6184   -1.7892   20.9462 C.ar    1  UNL1        0.0015
     14 C           4.5422   -2.7284   21.6635 C.ar    1  UNL1        0.0046
     15 C           4.6831   -2.6489   23.1547 C.ar    1  UNL1        0.0547
     16 C           3.9001   -1.6301   23.9287 C.ar    1  UNL1        0.0247
     17 C           5.6167   -3.6052   23.8356 C.2     1  UNL1        0.2459
     18 O           6.1108   -4.3624   22.6387 O.2     1  UNL1       -0.2701
     19 N           6.3878   -4.3123   24.9105 N.am    1  UNL1       -0.2989
     20 C           6.9126   -4.6936   26.2631 C.3     1  UNL1        0.1161
     21 C           7.1344   -4.7076   27.7465 C.3     1  UNL1        0.1487
     22 N           7.0290   -4.3530   29.2002 N.ar    1  UNL1       -0.2476
     23 C           6.6080   -3.6681   30.4665 C.ar    1  UNL1        0.0982
     24 C           5.9169   -2.7272   31.4083 C.ar    1  UNL1        0.0589
     25 C           6.8713   -3.7216   32.0001 C.ar    1  UNL1        0.1232
     26 N           7.4351   -4.5457   30.8807 N.ar    1  UNL1       -0.1676
     27 C           5.0306   -1.6321   31.9235 C.ar    1  UNL1        0.1066
     28 C           5.4690   -1.9057   33.3317 C.ar    1  UNL1        0.1198
     29 N           4.7546   -0.9444   34.2347 N.ar    1  UNL1       -0.2234
     30 C           3.8747   -0.0767   33.3847 C.ar    1  UNL1        0.1639
     31 C           2.6544    1.2819   33.1695 C.ar    1  UNL1        0.0404
     32 C           1.9485    1.8992   31.9988 C.ar    1  UNL1        0.0240
     33 C           2.2033    1.3849   30.6130 C.ar    1  UNL1        0.1030
     34 N           3.0674    0.5417   31.5031 N.ar    1  UNL1       -0.1637
     35 N           4.0452   -0.5017   31.9563 N.ar    1  UNL1       -0.2106
     36 H           0.7837    2.0300   24.5599 H       1  UNL1        0.1739
     37 H           6.8786   -4.9620   24.3572 H       1  UNL1        0.1498
     38 C          -1.9031    3.1959   25.0082 C.3     1  UNL1        0.2543
     39 O          -0.5388    3.6763   25.4051 O.3     1  UNL1       -0.4553
@<TRIPOS>BOND
     1    38    39    1
     2    39     1    1
     3     1     2   ar
     4     2     3   ar
     5     3     4   ar
     6     4     5   ar
     7     5     6   ar
     8     6     7    1
     9     7     8    1
    10     8     9    2
    11     8    10    2
    12     8    11    1
    13    11    12   ar
    14    12    13   ar
    15    13    14   ar
    16    14    15   ar
    17    15    16   ar
    18    15    17    1
    19    17    18    2
    20    17    19   am
    21    19    20    1
    22    20    21    1
    23    21    22    1
    24    22    23   ar
    25    23    24   ar
    26    24    25   ar
    27    25    26   ar
    28    24    27    1
    29    27    28   ar
    30    28    29   ar
    31    29    30   ar
    32    30    31   ar
    33    31    32   ar
    34    32    33   ar
    35    33    34   ar
    36    34    35   ar
    37     6     1   ar
    38    16    11   ar
    39    26    22   ar
    40    35    27   ar
    41    33     4    1
    42    35    30   ar
    43     7    36    1
    44    19    37    1
@<TRIPOS>MOLECULE
*****
 39 44 0 0 0
SMALL
GASTEIGER

@<TRIPOS>ATOM
      1 C           3.3876   -1.1550   21.6307 C.ar    1  UNL1        0.2400
      2 N           4.3059   -2.1660   21.0106 N.ar    1  UNL1       -0.2090
      3 C           5.1782   -3.0207   21.8816 C.ar    1  UNL1        0.1037
      4 C           5.3810   -3.1235   23.4076 C.ar    1  UNL1        0.0400
      5 C           4.3689   -2.0868   23.0193 C.ar    1  UNL1        0.0237
      6 C           3.3416   -0.9985   23.1218 C.ar    1  UNL1        0.1179
      7 N           2.4106    0.0233   23.7041 N.pl3   1  UNL1       -0.2104
      8 S           1.6766    0.8679   24.7030 S.O2    1  UNL1        0.0737
      9 O           1.3035    1.1573   23.2793 O.2     1  UNL1       -0.1499
     10 O           0.6429    1.9450   24.5581 O.2     1  UNL1       -0.1499
     11 C           1.2287    1.4599   26.3709 C.ar    1  UNL1        0.1253
     12 C           0.1947    2.5463   26.3496 C.ar    1  UNL1        0.0202
     13 C          -0.2880    3.1475   27.6363 C.ar    1  UNL1        0.0015
     14 C           0.2632    2.6622   28.9442 C.ar    1  UNL1        0.0046
     15 C           1.2973    1.5758   28.9655 C.ar    1  UNL1        0.0547
     16 C           1.7800    0.9747   27.6788 C.ar    1  UNL1        0.0247
     17 C           1.8242    1.1176   30.2930 C.2     1  UNL1        0.2459
     18 O           1.0325    2.0160   31.1964 O.2     1  UNL1       -0.2701
     19 N           2.6117    0.3637   31.3232 N.am    1  UNL1       -0.2989
     20 C           3.5746   -0.6044   31.9444 C.3     1  UNL1        0.1161
     21 C           4.6084   -1.6816   32.0892 C.3     1  UNL1        0.1487
     22 N           5.6011   -2.7512   31.7421 N.ar    1  UNL1       -0.2476
     23 C           6.4451   -3.6973   30.9405 C.ar    1  UNL1        0.0982
     24 C           7.0490   -4.4174   29.7715 C.ar    1  UNL1        0.0589
     25 C           7.5159   -4.8094   31.1420 C.ar    1  UNL1        0.1232
     26 N           6.7819   -3.9648   32.1409 N.ar    1  UNL1       -0.1676
     27 C           7.3473   -4.8335   28.3615 C.ar    1  UNL1        0.1066
     28 C           8.3430   -5.8460   28.8446 C.ar    1  UNL1        0.1198
     29 N           8.9188   -6.5387   27.6452 N.ar    1  UNL1       -0.2234
     30 C           8.2790   -5.9543   26.4209 C.ar    1  UNL1        0.1639
     31 C           8.0542   -5.8498   24.5989 C.ar    1  UNL1        0.0404
     32 C           7.2049   -5.0228   23.6798 C.ar    1  UNL1        0.0240
     33 C           6.2683   -3.9964   24.2447 C.ar    1  UNL1        0.1030
     34 N           6.9347   -4.6110   25.4398 N.ar    1  UNL1       -0.1637
     35 N           7.3078   -4.9004   26.8636 N.ar    1  UNL1       -0.2106
     36 H           2.0177    0.3765   22.8734 H       1  UNL1        0.1739
     37 H           2.2622    0.7904   32.1386 H       1  UNL1        0.1498
     38 C           1.3011   -0.8899   20.1055 C.3     1  UNL1        0.2543
     39 O           2.5154   -0.3003   20.7596 O.3     1  UNL1       -0.4553
@<TRIPOS>BOND
     1    38    39    1
     2    39     1    1
     3     1     2   ar
     4     2     3   ar
     5     3     4   ar
     6     4     5   ar
     7     5     6   ar
     8     6     7    1
     9     7     8    1
    10     8     9    2
    11     8    10    2
    12     8    11    1
    13    11    12   ar
    14    12    13   ar
    15    13    14   ar
    16    14    15   ar
    17    15    16   ar
    18    15    17    1
    19    17    18    2
    20    17    19   am
    21    19    20    1
    22    20    21    1
    23    21    22    1
    24    22    23   ar
    25    23    24   ar
    26    24    25   ar
    27    25    26   ar
    28    24    27    1
    29    27    28   ar
    30    28    29   ar
    31    29    30   ar
    32    30    31   ar
    33    31    32   ar
    34    32    33   ar
    35    33    34   ar
    36    34    35   ar
    37     6     1   ar
    38    16    11   ar
    39    26    22   ar
    40    35    27   ar
    41    33     4    1
    42    35    30   ar
    43     7    36    1
    44    19    37    1
@<TRIPOS>MOLECULE
*****
 39 44 0 0 0
SMALL
GASTEIGER

@<TRIPOS>ATOM
      1 C           8.1565   -5.5419   28.4205 C.ar    1  UNL1        0.2400
      2 N           8.3433   -5.5116   29.9085 N.ar    1  UNL1       -0.2090
      3 C           7.5738   -4.5294   30.7412 C.ar    1  UNL1        0.1037
      4 C           6.5365   -3.4370   30.4081 C.ar    1  UNL1        0.0400
      5 C           7.0257   -4.1703   29.1944 C.ar    1  UNL1        0.0237
      6 C           7.2002   -4.5903   27.7651 C.ar    1  UNL1        0.1179
      7 N           7.0409   -4.6514   26.2748 N.pl3   1  UNL1       -0.2104
      8 S           6.5652   -4.3472   24.8852 S.O2    1  UNL1        0.0737
      9 O           7.5761   -5.4535   24.9473 O.2     1  UNL1       -0.1499
     10 O           6.9017   -4.9318   23.5454 O.2     1  UNL1       -0.1499
     11 C           5.5885   -3.4705   23.6161 C.ar    1  UNL1        0.1253
     12 C           5.8448   -3.9745   22.2268 C.ar    1  UNL1        0.0202
     13 C           5.1235   -3.3633   21.0623 C.ar    1  UNL1        0.0015
     14 C           4.1459   -2.2481   21.2871 C.ar    1  UNL1        0.0046
     15 C           3.8896   -1.7441   22.6764 C.ar    1  UNL1        0.0547
     16 C           4.6108   -2.3553   23.8409 C.ar    1  UNL1        0.0247
     17 C           2.9049   -0.6276   22.8605 C.2     1  UNL1        0.2459
     18 O           2.5047   -0.4130   21.4309 O.2     1  UNL1       -0.2701
     19 N           2.0520    0.4183   23.5152 N.am    1  UNL1       -0.2989
     20 C           1.4233    1.2803   24.5696 C.3     1  UNL1        0.1161
     21 C           1.0868    1.8649   25.9094 C.3     1  UNL1        0.1487
     22 N           1.0791    2.1088   27.3894 N.ar    1  UNL1       -0.2476
     23 C           1.4010    1.9856   28.8493 C.ar    1  UNL1        0.0982
     24 C           2.0176    1.5086   30.1308 C.ar    1  UNL1        0.0589
     25 C           1.0191    2.6247   30.2166 C.ar    1  UNL1        0.1232
     26 N           0.5434    2.9290   28.8270 N.ar    1  UNL1       -0.1676
     27 C           2.8621    0.7294   31.0951 C.ar    1  UNL1        0.1066
     28 C           2.3152    1.5168   32.2487 C.ar    1  UNL1        0.1198
     29 N           2.9581    1.0067   33.5043 N.ar    1  UNL1       -0.2234
     30 C           3.9022   -0.0959   33.1266 C.ar    1  UNL1        0.1639
     31 C           5.1367   -1.3920   33.5477 C.ar    1  UNL1        0.0404
     32 C           5.9321   -2.3947   32.7654 C.ar    1  UNL1        0.0240
     33 C           5.7854   -2.4699   31.2745 C.ar    1  UNL1        0.1030
     34 N           4.8539   -1.3737   31.6997 N.ar    1  UNL1       -0.1637
     35 N           3.8429   -0.2673   31.6376 N.ar    1  UNL1       -0.2106
     36 H           7.6719   -5.3800   26.0742 H       1  UNL1        0.1739
     37 H           1.6051    0.7851   22.7183 H       1  UNL1        0.1498
     38 C           8.9403   -7.9764   27.9630 C.3     1  UNL1        0.2543
     39 O           8.9261   -6.5241   27.5880 O.3     1  UNL1       -0.4553
@<TRIPOS>BOND
     1    38    39    1
     2    39     1    1
     3     1     2   ar
     4     2     3   ar
     5     3     4   ar
     6     4     5   ar
     7     5     6   ar
     8     6     7    1
     9     7     8    1
    10     8     9    2
    11     8    10    2
    12     8    11    1
    13    11    12   ar
    14    12    13   ar
    15    13    14   ar
    16    14    15   ar
    17    15    16   ar
    18    15    17    1
    19    17    18    2
    20    17    19   am
    21    19    20    1
    22    20    21    1
    23    21    22    1
    24    22    23   ar
    25    23    24   ar
    26    24    25   ar
    27    25    26   ar
    28    24    27    1
    29    27    28   ar
    30    28    29   ar
    31    29    30   ar
    32    30    31   ar
    33    31    32   ar
    34    32    33   ar
    35    33    34   ar
    36    34    35   ar
    37     6     1   ar
    38    16    11   ar
    39    26    22   ar
    40    35    27   ar
    41    33     4    1
    42    35    30   ar
    43     7    36    1
    44    19    37    1
@<TRIPOS>MOLECULE
*****
 39 44 0 0 0
SMALL
GASTEIGER

@<TRIPOS>ATOM
      1 C           5.9216   -3.6004   21.9189 C.ar    1  UNL1        0.2400
      2 N           6.9765   -4.6278   22.2046 N.ar    1  UNL1       -0.2090
      3 C           7.3685   -4.9262   23.6215 C.ar    1  UNL1        0.1037
      4 C           6.9065   -4.3815   24.9890 C.ar    1  UNL1        0.0400
      5 C           6.1916   -3.7465   23.8333 C.ar    1  UNL1        0.0237
      6 C           5.2586   -2.8715   23.0498 C.ar    1  UNL1        0.1179
      7 N           4.2084   -1.8514   22.7236 N.pl3   1  UNL1       -0.2104
      8 S           3.1548   -0.7967   22.8899 S.O2    1  UNL1        0.0737
      9 O           3.4265   -1.1567   21.4594 O.2     1  UNL1       -0.1499
     10 O           2.3196   -0.0313   21.9070 O.2     1  UNL1       -0.1499
     11 C           2.0697    0.3379   23.8217 C.ar    1  UNL1        0.1253
     12 C           1.1825    1.1609   22.9354 C.ar    1  UNL1        0.0202
     13 C           0.2265    2.1468   23.5387 C.ar    1  UNL1        0.0015
     14 C           0.1576    2.3096   25.0283 C.ar    1  UNL1        0.0046
     15 C           1.0448    1.4866   25.9145 C.ar    1  UNL1        0.0547
     16 C           2.0009    0.5008   25.3112 C.ar    1  UNL1        0.0247
     17 C           0.9467    1.6781   27.3990 C.2     1  UNL1        0.2459
     18 O          -0.1169    2.7350   27.4418 O.2     1  UNL1       -0.2701
     19 N           1.1986    1.5218   28.8694 N.am    1  UNL1       -0.2989
     20 C           1.7735    1.0345   30.1664 C.3     1  UNL1        0.1161
     21 C           2.6089    0.2690   31.1494 C.3     1  UNL1        0.1487
     22 N           3.6142   -0.6916   31.7119 N.ar    1  UNL1       -0.2476
     23 C           4.6806   -1.7434   31.7929 C.ar    1  UNL1        0.0982
     24 C           5.6925   -2.7722   31.3838 C.ar    1  UNL1        0.0589
     25 C           5.5244   -2.5124   32.8515 C.ar    1  UNL1        0.1232
     26 N           4.4709   -1.4577   33.0178 N.ar    1  UNL1       -0.1676
     27 C           6.5403   -3.6668   30.5286 C.ar    1  UNL1        0.1066
     28 C           7.2013   -4.2446   31.7449 C.ar    1  UNL1        0.1198
     29 N           8.2015   -5.2649   31.2882 N.ar    1  UNL1       -0.2234
     30 C           8.1587   -5.3176   29.7899 C.ar    1  UNL1        0.1639
     31 C           8.7253   -5.9820   28.1716 C.ar    1  UNL1        0.0404
     32 C           8.3734   -5.7244   26.7364 C.ar    1  UNL1        0.0240
     33 C           7.3256   -4.7078   26.3918 C.ar    1  UNL1        0.1030
     34 N           7.4036   -4.6900   27.8897 N.ar    1  UNL1       -0.1637
     35 N           7.1320   -4.3300   29.3203 N.ar    1  UNL1       -0.2106
     36 H           4.2150   -1.9203   21.7416 H       1  UNL1        0.1739
     37 H           0.5550    2.1817   29.2151 H       1  UNL1        0.1498
     38 C           4.4932   -4.1429   19.8176 C.3     1  UNL1        0.2543
     39 O           5.5297   -3.3020   20.5021 O.3     1  UNL1       -0.4553
@<TRIPOS>BOND
     1    38    39    1
     2    39     1    1
     3     1     2   ar
     4     2     3   ar
     5     3     4   ar
     6     4     5   ar
     7     5     6   ar
     8     6     7    1
     9     7     8    1
    10     8     9    2
    11     8    10    2
    12     8    11    1
    13    11    12   ar
    14    12    13   ar
    15    13    14   ar
    16    14    15   ar
    17    15    16   ar
    18    15    17    1
    19    17    18    2
    20    17    19   am
    21    19    20    1
    22    20    21    1
    23    21    22    1
    24    22    23   ar
    25    23    24   ar
    26    24    25   ar
    27    25    26   ar
    28    24    27    1
    29    27    28   ar
    30    28    29   ar
    31    29    30   ar
    32    30    31   ar
    33    31    32   ar
    34    32    33   ar
    35    33    34   ar
    36    34    35   ar
    37     6     1   ar
    38    16    11   ar
    39    26    22   ar
    40    35    27   ar
    41    33     4    1
    42    35    30   ar
    43     7    36    1
    44    19    37    1
@<TRIPOS>MOLECULE
*****
 39 44 0 0 0
SMALL
GASTEIGER

@<TRIPOS>ATOM
      1 C           0.8734    1.6240   23.5482 C.ar    1  UNL1        0.2400
      2 N           1.2598    1.0576   22.2141 N.ar    1  UNL1       -0.2090
      3 C           2.2863   -0.0331   22.1312 C.ar    1  UNL1        0.1037
      4 C           3.1225   -0.7876   23.1856 C.ar    1  UNL1        0.0400
      5 C           2.2126    0.2424   23.7866 C.ar    1  UNL1        0.0237
      6 C           1.5133    1.0998   24.7994 C.ar    1  UNL1        0.1179
      7 N           1.1005    1.6917   26.1144 N.pl3   1  UNL1       -0.2104
      8 S           1.0189    1.9540   27.5891 S.O2    1  UNL1        0.0737
      9 O           0.1052    2.8184   26.7718 O.2     1  UNL1       -0.1499
     10 O           0.2032    2.9108   28.4071 O.2     1  UNL1       -0.1499
     11 C           1.4471    1.7135   29.3474 C.ar    1  UNL1        0.1253
     12 C           0.6870    2.6237   30.2660 C.ar    1  UNL1        0.0202
     13 C           0.9176    2.5579   31.7467 C.ar    1  UNL1        0.0015
     14 C           1.9083    1.5819   32.3087 C.ar    1  UNL1        0.0046
     15 C           2.6684    0.6717   31.3902 C.ar    1  UNL1        0.0547
     16 C           2.4378    0.7375   29.9095 C.ar    1  UNL1        0.0247
     17 C           3.6503   -0.2905   31.9902 C.2     1  UNL1        0.2459
     18 O           3.4837    0.0583   33.4395 O.2     1  UNL1       -0.2701
     19 N           4.6871   -1.3675   32.1132 N.am    1  UNL1       -0.2989
     20 C           5.6664   -2.4426   31.7457 C.3     1  UNL1        0.1161
     21 C           6.4821   -3.3994   30.9276 C.3     1  UNL1        0.1487
     22 N           7.0459   -4.1341   29.7476 N.ar    1  UNL1       -0.2476
     23 C           7.2964   -4.5671   28.3335 C.ar    1  UNL1        0.0982
     24 C           7.2069   -4.6515   26.8386 C.ar    1  UNL1        0.0589
     25 C           8.1646   -5.5776   27.5278 C.ar    1  UNL1        0.1232
     26 N           8.0830   -5.3153   29.0024 N.ar    1  UNL1       -0.1676
     27 C           6.7867   -4.3781   25.4248 C.ar    1  UNL1        0.1066
     28 C           7.7274   -5.4296   24.9156 C.ar    1  UNL1        0.1198
     29 N           7.6037   -5.4780   23.4215 N.ar    1  UNL1       -0.2234
     30 C           6.5865   -4.4565   23.0073 C.ar    1  UNL1        0.1639
     31 C           5.6006   -3.5708   21.7327 C.ar    1  UNL1        0.0404
     32 C           4.5692   -2.4819   21.7557 C.ar    1  UNL1        0.0240
     33 C           4.1445   -1.8786   23.0617 C.ar    1  UNL1        0.1030
     34 N           5.1678   -2.9123   23.4281 N.ar    1  UNL1       -0.1637
     35 N           6.0816   -3.7767   24.2454 N.ar    1  UNL1       -0.2106
     36 H           0.4402    2.3490   25.7962 H       1  UNL1        0.1739
     37 H           4.8017   -1.3712   33.0910 H       1  UNL1        0.1498
     38 C          -0.7514    3.2783   22.3763 C.3     1  UNL1        0.2543
     39 O          -0.1530    2.7147   23.6310 O.3     1  UNL1       -0.4553
@<TRIPOS>BOND
     1    38    39    1
     2    39     1    1
     3     1     2   ar
     4     2     3   ar
     5     3     4   ar
     6     4     5   ar
     7     5     6   ar
     8     6     7    1
     9     7     8    1
    10     8     9    2
    11     8    10    2
    12     8    11    1
    13    11    12   ar
    14    12    13   ar
    15    13    14   ar
    16    14    15   ar
    17    15    16   ar
    18    15    17    1
    19    17    18    2
    20    17    19   am
    21    19    20    1
    22    20    21    1
    23    21    22    1
    24    22    23   ar
    25    23    24   ar
    26    24    25   ar
    27    25    26   ar
    28    24    27    1
    29    27    28   ar
    30    28    29   ar
    31    29    30   ar
    32    30    31   ar
    33    31    32   ar
    34    32    33   ar
    35    33    34   ar
    36    34    35   ar
    37     6     1   ar
    38    16    11   ar
    39    26    22   ar
    40    35    27   ar
    41    33     4    1
    42    35    30   ar
    43     7    36    1
    44    19    37    1
@<TRIPOS>MOLECULE
*****
 39 44 0 0 0
SMALL
GASTEIGER

@<TRIPOS>ATOM
      1 C          -1.3727    3.2639   21.9470 C.ar    1  UNL1        0.2400
      2 N          -1.9988    3.7463   23.2219 N.ar    1  UNL1       -0.2090
      3 C          -1.4451    3.3034   24.5438 C.ar    1  UNL1        0.1037
      4 C          -0.2755    2.3836   24.9515 C.ar    1  UNL1        0.0400
      5 C          -0.4284    2.5134   23.4650 C.ar    1  UNL1        0.0237
      6 C          -0.1931    2.3387   21.9939 C.ar    1  UNL1        0.1179
      7 N           0.4051    1.8782   20.6977 N.pl3   1  UNL1       -0.2104
      8 S           1.3013    1.1821   19.7168 S.O2    1  UNL1        0.0737
      9 O           0.2378    2.0202   19.0716 O.2     1  UNL1       -0.1499
     10 O           1.3431    1.1593   18.2176 O.2     1  UNL1       -0.1499
     11 C           2.6806    0.1041   19.1986 C.ar    1  UNL1        0.1253
     12 C           2.8196    0.0050   17.7084 C.ar    1  UNL1        0.0202
     13 C           3.9043   -0.8415   17.1110 C.ar    1  UNL1        0.0015
     14 C           4.8499   -1.5889   18.0039 C.ar    1  UNL1        0.0046
     15 C           4.7109   -1.4898   19.4941 C.ar    1  UNL1        0.0547
     16 C           3.6263   -0.6433   20.0914 C.ar    1  UNL1        0.0247
     17 C           5.6756   -2.2519   20.3534 C.2     1  UNL1        0.2459
     18 O           6.5054   -2.8954   19.2822 O.2     1  UNL1       -0.2701
     19 N           6.3673   -2.8023   21.5653 N.am    1  UNL1       -0.2989
     20 C           6.7109   -3.0811   22.9986 C.3     1  UNL1        0.1161
     21 C           6.6691   -3.0583   24.4978 C.3     1  UNL1        0.1487
     22 N           6.2465   -2.7364   25.9006 N.ar    1  UNL1       -0.2476
     23 C           5.4890   -2.1500   27.0549 C.ar    1  UNL1        0.0982
     24 C           4.4786   -1.3630   27.8356 C.ar    1  UNL1        0.0589
     25 C           5.4862   -2.1582   28.6118 C.ar    1  UNL1        0.1232
     26 N           6.3824   -2.8543   27.6309 N.ar    1  UNL1       -0.1676
     27 C           3.3247   -0.4604   28.1581 C.ar    1  UNL1        0.1066
     28 C           3.5547   -0.6505   29.6281 C.ar    1  UNL1        0.1198
     29 N           2.5246    0.1522   30.3661 N.ar    1  UNL1       -0.2234
     30 C           1.6580    0.8384   29.3522 C.ar    1  UNL1        0.1639
     31 C           0.2589    1.9385   28.8903 C.ar    1  UNL1        0.0404
     32 C          -0.3361    2.4136   27.5979 C.ar    1  UNL1        0.0240
     33 C           0.2493    1.9633   26.2924 C.ar    1  UNL1        0.1030
     34 N           1.0889    1.2980   27.3424 N.ar    1  UNL1       -0.1637
     35 N           2.1525    0.4598   27.9876 N.ar    1  UNL1       -0.2106
     36 H          -0.1890    2.3483   20.0690 H       1  UNL1        0.1739
     37 H           7.0613   -3.3435   21.1240 H       1  UNL1        0.1498
     38 C          -3.3120    3.3010   20.2185 C.3     1  UNL1        0.2543
     39 O          -1.9265    3.7068   20.6252 O.3     1  UNL1       -0.4553
@<TRIPOS>BOND
     1    38    39    1
     2    39     1    1
     3     1     2   ar
     4     2     3   ar
     5     3     4   ar
     6     4     5   ar
     7     5     6   ar
     8     6     7    1
     9     7     8    1
    10     8     9    2
    11     8    10    2
    12     8    11    1
    13    11    12   ar
    14    12    13   ar
    15    13    14   ar
    16    14    15   ar
    17    15    16   ar
    18    15    17    1
    19    17    18    2
    20    17    19   am
    21    19    20    1
    22    20    21    1
    23    21    22    1
    24    22    23   ar
    25    23    24   ar
    26    24    25   ar
    27    25    26   ar
    28    24    27    1
    29    27    28   ar
    30    28    29   ar
    31    29    30   ar
    32    30    31   ar
    33    31    32   ar
    34    32    33   ar
    35    33    34   ar
    36    34    35   ar
    37     6     1   ar
    38    16    11   ar
    39    26    22   ar
    40    35    27   ar
    41    33     4    1
    42    35    30   ar
    43     7    36    1
    44    19    37    1
