@<TRIPOS>MOLECULE
*****
 17 18 0 0 0
SMALL
GASTEIGER

@<TRIPOS>ATOM
      1 C          -2.8457  -19.4562   20.9202 C.2     1  UNL1        0.1223
      2 C          -3.5418  -20.5199   20.1241 C.2     1  UNL1        0.0343
      3 C          -5.0343  -20.6523   20.1928 C.2     1  UNL1        0.0232
      4 C          -5.8308  -19.7210   21.0578 C.2     1  UNL1        0.0975
      5 N          -7.3028  -19.6109   21.3245 N.2     1  UNL1       -0.2200
      6 C          -7.5165  -18.4792   22.2854 C.2     1  UNL1        0.1898
      7 N          -6.1766  -17.8897   22.6127 N.2     1  UNL1       -0.2236
      8 C          -5.1347  -18.6572   21.8539 C.2     1  UNL1        0.0863
      9 C          -3.6422  -18.5248   21.7851 C.3     1  UNL1        0.1112
     10 C          -0.7316  -18.3044   19.9434 C.3     1  UNL1        0.2520
     11 O          -1.3531  -19.3238   20.8514 O.2     1  UNL1       -0.4753
     12 S          -8.8381  -18.0179   22.8245 S.3     1  UNL1       -0.0756
     13 C         -10.1041  -18.6910   22.3837 C.3     1  UNL1        0.0677
     14 C         -10.4995  -20.0092   22.9802 C.3     1  UNL1        0.0438
     15 C          -9.7672  -20.5410   24.1764 C.3     1  UNL1        0.1381
     16 O         -10.2016  -20.1484   25.5574 O.3     1  UNL1       -0.3820
     17 H         -10.0530  -19.1984   25.6853 H       1  UNL1        0.2104
@<TRIPOS>BOND
     1    10    11    1
     2    11     1    1
     3     1     2    2
     4     2     3    1
     5     3     4    2
     6     4     5    1
     7     5     6    2
     8     6    12    1
     9    12    13    1
    10    13    14    1
    11    14    15    1
    12    15    16    1
    13     6     7    1
    14     7     8    2
    15     8     9    1
    16     9     1    1
    17     8     4    1
    18    16    17    1
@<TRIPOS>MOLECULE
*****
 17 18 0 0 0
SMALL
GASTEIGER

@<TRIPOS>ATOM
      1 C         -11.9620  -18.4047   23.2169 C.2     1  UNL1        0.1223
      2 C         -11.3282  -19.2221   24.3032 C.2     1  UNL1        0.0343
      3 C          -9.9275  -19.7324   24.1375 C.2     1  UNL1        0.0232
      4 C          -9.1605  -19.4253   22.8856 C.2     1  UNL1        0.0975
      5 N          -7.7743  -19.7894   22.4429 N.2     1  UNL1       -0.2200
      6 C          -7.5514  -19.1971   21.0830 C.2     1  UNL1        0.1898
      7 N          -8.7998  -18.4668   20.6852 N.2     1  UNL1       -0.2236
      8 C          -9.7942  -18.6079   21.7993 C.2     1  UNL1        0.0863
      9 C         -11.1950  -18.0976   21.9649 C.3     1  UNL1        0.1112
     10 C         -14.1521  -18.2535   24.6064 C.3     1  UNL1        0.2520
     11 O         -13.3628  -17.8944   23.3825 O.2     1  UNL1       -0.4753
     12 S          -6.2998  -19.3144   20.2646 S.3     1  UNL1       -0.0756
     13 C          -5.3675  -20.4694   20.4812 C.3     1  UNL1        0.0677
     14 C          -3.9520  -20.3928   19.9911 C.3     1  UNL1        0.0438
     15 C          -2.9348  -19.6004   20.7575 C.3     1  UNL1        0.1381
     16 O          -1.8116  -20.3028   21.4610 O.3     1  UNL1       -0.3820
     17 H          -2.1700  -20.8458   22.1805 H       1  UNL1        0.2104
@<TRIPOS>BOND
     1    10    11    1
     2    11     1    1
     3     1     2    2
     4     2     3    1
     5     3     4    2
     6     4     5    1
     7     5     6    2
     8     6    12    1
     9    12    13    1
    10    13    14    1
    11    14    15    1
    12    15    16    1
    13     6     7    1
    14     7     8    2
    15     8     9    1
    16     9     1    1
    17     8     4    1
    18    16    17    1
@<TRIPOS>MOLECULE
*****
 17 18 0 0 0
SMALL
GASTEIGER

@<TRIPOS>ATOM
      1 C         -10.4935  -18.0193   22.6688 C.2     1  UNL1        0.1223
      2 C         -10.3537  -19.2347   23.5367 C.2     1  UNL1        0.0343
      3 C          -9.1261  -20.0907   23.4364 C.2     1  UNL1        0.0232
      4 C          -8.0382  -19.7314   22.4682 C.2     1  UNL1        0.0975
      5 N          -6.7236  -20.3796   22.1497 N.2     1  UNL1       -0.2200
      6 C          -6.0509  -19.5649   21.0849 C.2     1  UNL1        0.1898
      7 N          -6.9498  -18.4131   20.7454 N.2     1  UNL1       -0.2236
      8 C          -8.1780  -18.5160   21.6004 C.2     1  UNL1        0.0863
      9 C          -9.4057  -17.6600   21.7007 C.3     1  UNL1        0.1112
     10 C         -13.0257  -17.7697   23.1939 C.3     1  UNL1        0.2520
     11 O         -11.7212  -17.1633   22.7691 O.2     1  UNL1       -0.4753
     12 S          -4.7140  -19.8517   20.4680 S.3     1  UNL1       -0.0756
     13 C          -4.0964  -18.8637   19.5233 C.3     1  UNL1        0.0677
     14 C          -2.6053  -18.7116   19.4663 C.3     1  UNL1        0.0438
     15 C          -1.9968  -17.5600   18.7222 C.3     1  UNL1        0.1381
     16 O          -1.0337  -17.8163   17.6012 O.3     1  UNL1       -0.3820
     17 H          -0.2281  -18.2254   17.9541 H       1  UNL1        0.2104
@<TRIPOS>BOND
     1    10    11    1
     2    11     1    1
     3     1     2    2
     4     2     3    1
     5     3     4    2
     6     4     5    1
     7     5     6    2
     8     6    12    1
     9    12    13    1
    10    13    14    1
    11    14    15    1
    12    15    16    1
    13     6     7    1
    14     7     8    2
    15     8     9    1
    16     9     1    1
    17     8     4    1
    18    16    17    1
@<TRIPOS>MOLECULE
*****
 17 18 0 0 0
SMALL
GASTEIGER

@<TRIPOS>ATOM
      1 C         -10.5779  -18.3874   20.7190 C.2     1  UNL1        0.1223
      2 C         -10.3294  -19.2763   19.5366 C.2     1  UNL1        0.0343
      3 C          -8.9462  -19.7855   19.2586 C.2     1  UNL1        0.0232
      4 C          -7.8114  -19.4059   20.1630 C.2     1  UNL1        0.0975
      5 N          -6.3520  -19.7517   20.1416 N.2     1  UNL1       -0.2200
      6 C          -5.6984  -19.0766   21.3109 C.2     1  UNL1        0.1898
      7 N          -6.7539  -18.3135   22.0549 N.2     1  UNL1       -0.2236
      8 C          -8.0598  -18.5171   21.3455 C.2     1  UNL1        0.0863
      9 C          -9.4431  -18.0079   21.6235 C.3     1  UNL1        0.1112
     10 C         -12.2702  -16.4195   20.8341 C.3     1  UNL1        0.2520
     11 O         -11.9612  -17.8782   20.9970 O.2     1  UNL1       -0.4753
     12 S          -4.2445  -19.1514   21.6726 S.3     1  UNL1       -0.0756
     13 C          -3.2563  -19.7141   20.6943 C.3     1  UNL1        0.0677
     14 C          -2.8468  -18.9105   19.4958 C.3     1  UNL1        0.0438
     15 C          -1.5305  -18.1912   19.4892 C.3     1  UNL1        0.1381
     16 O          -0.8814  -17.8270   18.1870 O.3     1  UNL1       -0.3820
     17 H          -0.6269  -18.6355   17.7153 H       1  UNL1        0.2104
@<TRIPOS>BOND
     1    10    11    1
     2    11     1    1
     3     1     2    2
     4     2     3    1
     5     3     4    2
     6     4     5    1
     7     5     6    2
     8     6    12    1
     9    12    13    1
    10    13    14    1
    11    14    15    1
    12    15    16    1
    13     6     7    1
    14     7     8    2
    15     8     9    1
    16     9     1    1
    17     8     4    1
    18    16    17    1
@<TRIPOS>MOLECULE
*****
 17 18 0 0 0
SMALL
GASTEIGER

@<TRIPOS>ATOM
      1 C         -10.8072  -18.7031   22.0518 C.2     1  UNL1        0.1223
      2 C         -10.4636  -19.6594   23.1551 C.2     1  UNL1        0.0343
      3 C          -9.0600  -20.1694   23.2955 C.2     1  UNL1        0.0232
      4 C          -8.0000  -19.7231   22.3327 C.2     1  UNL1        0.0975
      5 N          -6.5410  -20.0536   22.2220 N.2     1  UNL1       -0.2200
      6 C          -5.9829  -19.3015   21.0502 C.2     1  UNL1        0.1898
      7 N          -7.0970  -18.5062   20.4367 N.2     1  UNL1       -0.2236
      8 C          -8.3436  -18.7668   21.2293 C.2     1  UNL1        0.0863
      9 C          -9.7472  -18.2568   21.0889 C.3     1  UNL1        0.1112
     10 C         -12.9686  -17.7388   23.1235 C.3     1  UNL1        0.2520
     11 O         -12.2108  -18.1931   21.9113 O.2     1  UNL1       -0.4753
     12 S          -4.5605  -19.3383   20.5754 S.3     1  UNL1       -0.0756
     13 C          -3.4370  -19.2868   21.5679 C.3     1  UNL1        0.0677
     14 C          -3.3238  -18.1277   22.5132 C.3     1  UNL1        0.0438
     15 C          -2.3706  -17.0082   22.2164 C.3     1  UNL1        0.1381
     16 O          -2.8970  -15.6482   21.8652 O.3     1  UNL1       -0.3820
     17 H          -3.3653  -15.6919   21.0168 H       1  UNL1        0.2104
@<TRIPOS>BOND
     1    10    11    1
     2    11     1    1
     3     1     2    2
     4     2     3    1
     5     3     4    2
     6     4     5    1
     7     5     6    2
     8     6    12    1
     9    12    13    1
    10    13    14    1
    11    14    15    1
    12    15    16    1
    13     6     7    1
    14     7     8    2
    15     8     9    1
    16     9     1    1
    17     8     4    1
    18    16    17    1
@<TRIPOS>MOLECULE
*****
 17 18 0 0 0
SMALL
GASTEIGER

@<TRIPOS>ATOM
      1 C          -8.0216  -15.6643   25.6925 C.2     1  UNL1        0.1223
      2 C          -6.9166  -15.1444   24.8216 C.2     1  UNL1        0.0343
      3 C          -6.8032  -15.6054   23.3987 C.2     1  UNL1        0.0232
      4 C          -7.7948  -16.5862   22.8467 C.2     1  UNL1        0.0975
      5 N          -7.9355  -17.2172   21.4932 N.2     1  UNL1       -0.2200
      6 C          -9.1276  -18.1270   21.5276 C.2     1  UNL1        0.1898
      7 N          -9.7236  -18.0584   22.9024 N.2     1  UNL1       -0.2236
      8 C          -8.8998  -17.1060   23.7176 C.2     1  UNL1        0.0863
      9 C          -9.0132  -16.6451   25.1405 C.3     1  UNL1        0.1112
     10 C          -6.8965  -14.9355   27.9180 C.3     1  UNL1        0.2520
     11 O          -8.1351  -15.2034   27.1154 O.2     1  UNL1       -0.4753
     12 S          -9.6346  -18.9595   20.3873 S.3     1  UNL1       -0.0756
     13 C         -10.8667  -18.5395   19.6421 C.3     1  UNL1        0.0677
     14 C         -11.7267  -17.4333   20.1775 C.3     1  UNL1        0.0438
     15 C         -11.4866  -16.0185   19.7411 C.3     1  UNL1        0.1381
     16 O         -12.4540  -15.3454   18.8132 O.3     1  UNL1       -0.3820
     17 H         -12.4345  -15.7871   17.9498 H       1  UNL1        0.2104
@<TRIPOS>BOND
     1    10    11    1
     2    11     1    1
     3     1     2    2
     4     2     3    1
     5     3     4    2
     6     4     5    1
     7     5     6    2
     8     6    12    1
     9    12    13    1
    10    13    14    1
    11    14    15    1
    12    15    16    1
    13     6     7    1
    14     7     8    2
    15     8     9    1
    16     9     1    1
    17     8     4    1
    18    16    17    1
@<TRIPOS>MOLECULE
*****
 17 18 0 0 0
SMALL
GASTEIGER

@<TRIPOS>ATOM
      1 C          -2.8884  -19.3584   21.0191 C.2     1  UNL1        0.1223
      2 C          -3.4979  -20.4375   20.1742 C.2     1  UNL1        0.0343
      3 C          -4.9849  -20.6340   20.1663 C.2     1  UNL1        0.0232
      4 C          -5.8625  -19.7513   21.0033 C.2     1  UNL1        0.0975
      5 N          -7.3492  -19.7079   21.1975 N.2     1  UNL1       -0.2200
      6 C          -7.6586  -18.6020   22.1625 C.2     1  UNL1        0.1898
      7 N          -6.3631  -17.9618   22.5647 N.2     1  UNL1       -0.2236
      8 C          -5.2530  -18.6722   21.8483 C.2     1  UNL1        0.0863
      9 C          -3.7660  -18.4758   21.8562 C.3     1  UNL1        0.1112
     10 C          -0.7496  -18.3256   19.9660 C.3     1  UNL1        0.2520
     11 O          -1.4013  -19.1620   21.0270 O.2     1  UNL1       -0.4753
     12 S          -9.0239  -18.2058   22.6412 S.3     1  UNL1       -0.0756
     13 C         -10.2335  -18.5434   21.8210 C.3     1  UNL1        0.0677
     14 C         -10.8577  -17.5014   20.9409 C.3     1  UNL1        0.0438
     15 C         -10.7966  -16.0547   21.3323 C.3     1  UNL1        0.1381
     16 O         -11.5913  -15.5607   22.5046 O.3     1  UNL1       -0.3820
     17 H         -12.5382  -15.6359   22.3082 H       1  UNL1        0.2104
@<TRIPOS>BOND
     1    10    11    1
     2    11     1    1
     3     1     2    2
     4     2     3    1
     5     3     4    2
     6     4     5    1
     7     5     6    2
     8     6    12    1
     9    12    13    1
    10    13    14    1
    11    14    15    1
    12    15    16    1
    13     6     7    1
    14     7     8    2
    15     8     9    1
    16     9     1    1
    17     8     4    1
    18    16    17    1
@<TRIPOS>MOLECULE
*****
 17 18 0 0 0
SMALL
GASTEIGER

@<TRIPOS>ATOM
      1 C          -8.5194  -16.2593   24.3894 C.2     1  UNL1        0.1223
      2 C          -9.6852  -17.0753   23.9153 C.2     1  UNL1        0.0343
      3 C          -9.4774  -18.1633   22.9037 C.2     1  UNL1        0.0232
      4 C          -8.1037  -18.4352   22.3663 C.2     1  UNL1        0.0975
      5 N          -7.5954  -19.4340   21.3693 N.2     1  UNL1       -0.2200
      6 C          -6.1155  -19.2353   21.2272 C.2     1  UNL1        0.1898
      7 N          -5.7090  -18.1137   22.1364 N.2     1  UNL1       -0.2236
      8 C          -6.9378  -17.6192   22.8404 C.2     1  UNL1        0.0863
      9 C          -7.1456  -16.5313   23.8520 C.3     1  UNL1        0.1112
     10 C          -8.2719  -15.3668   26.8167 C.3     1  UNL1        0.2520
     11 O          -8.7272  -15.1714   25.4009 O.2     1  UNL1       -0.4753
     12 S          -5.2023  -20.0204   20.3328 S.3     1  UNL1       -0.0756
     13 C          -3.7211  -19.7895   20.3846 C.3     1  UNL1        0.0677
     14 C          -3.0582  -18.9365   19.3441 C.3     1  UNL1        0.0438
     15 C          -1.7029  -18.3499   19.6072 C.3     1  UNL1        0.1381
     16 O          -0.8871  -17.8074   18.4714 O.3     1  UNL1       -0.3820
     17 H          -0.6375  -18.5325   17.8774 H       1  UNL1        0.2104
@<TRIPOS>BOND
     1    10    11    1
     2    11     1    1
     3     1     2    2
     4     2     3    1
     5     3     4    2
     6     4     5    1
     7     5     6    2
     8     6    12    1
     9    12    13    1
    10    13    14    1
    11    14    15    1
    12    15    16    1
    13     6     7    1
    14     7     8    2
    15     8     9    1
    16     9     1    1
    17     8     4    1
    18    16    17    1
@<TRIPOS>MOLECULE
*****
 17 18 0 0 0
SMALL
GASTEIGER

@<TRIPOS>ATOM
      1 C         -15.9759   -8.8651   19.3173 C.2     1  UNL1        0.1223
      2 C         -16.5118   -7.5143   19.6887 C.2     1  UNL1        0.0343
      3 C         -15.7431   -6.2775   19.3288 C.2     1  UNL1        0.0232
      4 C         -14.4385   -6.3916   18.5974 C.2     1  UNL1        0.0975
      5 N         -13.4657   -5.3577   18.1129 N.2     1  UNL1       -0.2200
      6 C         -12.3285   -6.0696   17.4420 C.2     1  UNL1        0.1898
      7 N         -12.5985   -7.5434   17.5118 N.2     1  UNL1       -0.2236
      8 C         -13.9026   -7.7424   18.2259 C.2     1  UNL1        0.0863
      9 C         -14.6713   -8.9792   18.5858 C.3     1  UNL1        0.1112
     10 C         -17.1441  -11.0745   18.6075 C.3     1  UNL1        0.2520
     11 O         -16.7446  -10.1018   19.6772 O.2     1  UNL1       -0.4753
     12 S         -11.1314   -5.4214   16.8119 S.3     1  UNL1       -0.0756
     13 C          -9.7796   -5.5666   17.4454 C.3     1  UNL1        0.0677
     14 C          -9.6552   -6.1469   18.8229 C.3     1  UNL1        0.0438
     15 C          -9.3338   -7.6016   18.9977 C.3     1  UNL1        0.1381
     16 O          -9.7771   -8.5968   17.9667 O.3     1  UNL1       -0.3820
     17 H         -10.7459   -8.6445   17.9589 H       1  UNL1        0.2104
@<TRIPOS>BOND
     1    10    11    1
     2    11     1    1
     3     1     2    2
     4     2     3    1
     5     3     4    2
     6     4     5    1
     7     5     6    2
     8     6    12    1
     9    12    13    1
    10    13    14    1
    11    14    15    1
    12    15    16    1
    13     6     7    1
    14     7     8    2
    15     8     9    1
    16     9     1    1
    17     8     4    1
    18    16    17    1
