@<TRIPOS>MOLECULE
*****
 31 34 0 0 0
SMALL
GASTEIGER

@<TRIPOS>ATOM
      1 C          -9.8196  -18.3287   22.2081 C.ar    1  UNL1        0.0005
      2 C          -9.6753  -19.7722   22.5891 C.ar    1  UNL1       -0.0011
      3 C          -8.3134  -20.3970   22.6589 C.ar    1  UNL1        0.0143
      4 C          -7.0958  -19.5782   22.3478 C.ar    1  UNL1        0.0483
      5 C          -7.2400  -18.1345   21.9668 C.ar    1  UNL1        0.0143
      6 C          -8.6020  -17.5097   21.8970 C.ar    1  UNL1       -0.0011
      7 N          -5.7339  -20.2029   22.4177 N.pl3   1  UNL1       -0.3125
      8 H          -5.6383  -21.1472   22.6792 H       1  UNL1        0.1522
      9 C          -4.5175  -19.3888   22.0891 C.ar    1  UNL1        0.0483
     10 C          -3.8614  -18.5583   23.1520 C.ar    1  UNL1        0.0146
     11 C          -2.6451  -17.7443   22.8235 C.ar    1  UNL1        0.0013
     12 C          -2.0849  -17.7607   21.4321 C.ar    1  UNL1        0.0001
     13 C          -0.8687  -16.9466   21.1036 C.ar    1  UNL1        0.0000
     14 C          -0.3085  -16.9631   19.7123 C.ar    1  UNL1        0.0000
     15 C          -0.9647  -17.7937   18.6494 C.ar    1  UNL1        0.0000
     16 C          -2.1809  -18.6077   18.9779 C.ar    1  UNL1        0.0000
     17 C          -2.7411  -18.5912   20.3692 C.ar    1  UNL1        0.0012
     18 C          -3.9574  -19.4053   20.6978 C.ar    1  UNL1        0.0146
     19 C         -11.1815  -17.7039   22.1382 C.3     1  UNL1        0.1390
     20 N         -12.2091  -18.0265   23.1822 N.ar    1  UNL1       -0.2273
     21 C         -11.9337  -18.5780   24.5496 C.ar    1  UNL1        0.1975
     22 N         -13.2469  -18.7466   25.2546 N.ar    1  UNL1       -0.2007
     23 C         -14.3340  -18.2993   24.3229 C.ar    1  UNL1        0.2210
     24 N         -13.6926  -17.8542   23.0421 N.ar    1  UNL1       -0.1449
     25 C         -11.5158  -16.7565   21.0243 C.3     1  UNL1        0.1141
     26 C         -11.3001  -17.8546   20.0255 C.3     1  UNL1        0.0134
     27 C         -11.7316  -15.6584   22.0230 C.3     1  UNL1        0.0134
     28 C         -11.8501  -15.8091   19.9104 C.2     1  UNL1        0.3182
     29 O         -13.2836  -15.5136   19.5820 O.2     1  UNL1       -0.2501
     30 C          -9.6679  -14.4012   19.8358 C.3     1  UNL1        0.2556
     31 O         -10.7509  -15.1572   19.1250 O.3     1  UNL1       -0.4444
@<TRIPOS>BOND
     1    30    31    1
     2    31    28    1
     3    28    29    2
     4    28    25    1
     5    25    26    1
     6    25    27    1
     7    25    19    1
     8    19     1    1
     9     1     2   ar
    10     2     3   ar
    11     3     4   ar
    12     4     7    1
    13     7     9    1
    14     9    10   ar
    15    10    11   ar
    16    11    12   ar
    17    12    13   ar
    18    13    14   ar
    19    14    15   ar
    20    15    16   ar
    21    16    17   ar
    22    17    18   ar
    23     4     5   ar
    24     5     6   ar
    25    19    20    1
    26    20    21   ar
    27    21    22   ar
    28    22    23   ar
    29    23    24   ar
    30     6     1   ar
    31    24    20   ar
    32    18     9   ar
    33    17    12   ar
    34     7     8    1
@<TRIPOS>MOLECULE
*****
 31 34 0 0 0
SMALL
GASTEIGER

@<TRIPOS>ATOM
      1 C          -9.4504  -18.5835   21.2784 C.ar    1  UNL1        0.0005
      2 C          -8.4063  -18.7025   22.3486 C.ar    1  UNL1       -0.0011
      3 C          -7.1214  -19.4230   22.0661 C.ar    1  UNL1        0.0143
      4 C          -6.8807  -20.0246   20.7133 C.ar    1  UNL1        0.0483
      5 C          -7.9249  -19.9056   19.6429 C.ar    1  UNL1        0.0143
      6 C          -9.2098  -19.1851   19.9255 C.ar    1  UNL1       -0.0011
      7 N          -5.5958  -20.7451   20.4307 N.pl3   1  UNL1       -0.3125
      8 H          -5.6125  -21.6851   20.1383 H       1  UNL1        0.1522
      9 C          -4.2853  -20.0335   20.5936 C.ar    1  UNL1        0.0483
     10 C          -3.6430  -19.9451   21.9462 C.ar    1  UNL1        0.0146
     11 C          -2.3326  -19.2336   22.1092 C.ar    1  UNL1        0.0013
     12 C          -1.6645  -18.6104   20.9194 C.ar    1  UNL1        0.0001
     13 C          -0.3542  -17.8988   21.0824 C.ar    1  UNL1        0.0000
     14 C           0.3138  -17.2756   19.8927 C.ar    1  UNL1        0.0000
     15 C          -0.3285  -17.3640   18.5401 C.ar    1  UNL1        0.0000
     16 C          -1.6389  -18.0756   18.3772 C.ar    1  UNL1        0.0000
     17 C          -2.3069  -18.6987   19.5668 C.ar    1  UNL1        0.0012
     18 C          -3.6173  -19.4103   19.4039 C.ar    1  UNL1        0.0146
     19 C         -10.7353  -17.8629   21.5610 C.3     1  UNL1        0.1390
     20 N         -11.2601  -16.8539   20.5830 N.ar    1  UNL1       -0.2273
     21 C         -12.7054  -16.5612   20.3084 C.ar    1  UNL1        0.1975
     22 N         -12.7703  -15.4868   19.2636 N.ar    1  UNL1       -0.2007
     23 C         -11.3651  -15.1155   18.8926 C.ar    1  UNL1        0.2210
     24 N         -10.4318  -15.9604   19.7080 N.ar    1  UNL1       -0.1449
     25 C         -11.4955  -18.1515   22.8216 C.3     1  UNL1        0.1141
     26 C         -11.7588  -19.5485   22.3431 C.3     1  UNL1        0.0134
     27 C         -11.2322  -16.7544   23.3000 C.3     1  UNL1        0.0134
     28 C         -12.2556  -18.4399   24.0821 C.2     1  UNL1        0.3182
     29 O         -11.5763  -19.1338   25.2254 O.2     1  UNL1       -0.2501
     30 C         -14.4972  -18.4540   25.3954 C.3     1  UNL1        0.2556
     31 O         -13.6950  -18.0345   24.1994 O.3     1  UNL1       -0.4444
@<TRIPOS>BOND
     1    30    31    1
     2    31    28    1
     3    28    29    2
     4    28    25    1
     5    25    26    1
     6    25    27    1
     7    25    19    1
     8    19     1    1
     9     1     2   ar
    10     2     3   ar
    11     3     4   ar
    12     4     7    1
    13     7     9    1
    14     9    10   ar
    15    10    11   ar
    16    11    12   ar
    17    12    13   ar
    18    13    14   ar
    19    14    15   ar
    20    15    16   ar
    21    16    17   ar
    22    17    18   ar
    23     4     5   ar
    24     5     6   ar
    25    19    20    1
    26    20    21   ar
    27    21    22   ar
    28    22    23   ar
    29    23    24   ar
    30     6     1   ar
    31    24    20   ar
    32    18     9   ar
    33    17    12   ar
    34     7     8    1
@<TRIPOS>MOLECULE
*****
 31 34 0 0 0
SMALL
GASTEIGER

@<TRIPOS>ATOM
      1 C           2.8348    0.0122   20.0890 C.ar    1  UNL1        0.0005
      2 C           3.0846    1.4885   20.1783 C.ar    1  UNL1       -0.0011
      3 C           1.9413    2.4295   20.4176 C.ar    1  UNL1        0.0143
      4 C           0.5481    1.8942   20.5677 C.ar    1  UNL1        0.0483
      5 C           0.2982    0.4178   20.4784 C.ar    1  UNL1        0.0143
      6 C           1.4416   -0.5232   20.2390 C.ar    1  UNL1       -0.0011
      7 N          -0.5952    2.8352   20.8070 N.pl3   1  UNL1       -0.3125
      8 H          -0.9898    3.3320   20.0541 H       1  UNL1        0.1522
      9 C          -1.1374    3.0194   22.1934 C.ar    1  UNL1        0.0483
     10 C          -0.2587    2.7651   23.3822 C.ar    1  UNL1        0.0146
     11 C          -0.8008    2.9492   24.7687 C.ar    1  UNL1        0.0013
     12 C          -2.2217    3.3876   24.9663 C.ar    1  UNL1        0.0001
     13 C          -2.7639    3.5717   26.3527 C.ar    1  UNL1        0.0000
     14 C          -4.1847    4.0100   26.5503 C.ar    1  UNL1        0.0000
     15 C          -5.0634    4.2643   25.3615 C.ar    1  UNL1        0.0000
     16 C          -4.5212    4.0802   23.9751 C.ar    1  UNL1        0.0000
     17 C          -3.1004    3.6418   23.7775 C.ar    1  UNL1        0.0012
     18 C          -2.5582    3.4577   22.3910 C.ar    1  UNL1        0.0146
     19 C           3.9781   -0.9288   19.8497 C.3     1  UNL1        0.1390
     20 N           4.1968   -2.0928   20.7702 N.ar    1  UNL1       -0.2273
     21 C           4.2826   -3.5341   20.3640 C.ar    1  UNL1        0.1975
     22 N           4.5069   -4.3519   21.6013 N.ar    1  UNL1       -0.2007
     23 C           4.5598   -3.4159   22.7723 C.ar    1  UNL1        0.2210
     24 N           4.3682   -2.0197   22.2586 N.ar    1  UNL1       -0.1449
     25 C           4.9028   -0.7059   18.6898 C.3     1  UNL1        0.1141
     26 C           3.8038   -1.0831   17.7411 C.3     1  UNL1        0.0134
     27 C           6.0018   -0.3286   19.6384 C.3     1  UNL1        0.0134
     28 C           5.8275   -0.4829   17.5299 C.2     1  UNL1        0.3182
     29 O           6.8161   -1.5430   17.1443 O.2     1  UNL1       -0.2501
     30 C           6.9781    1.3007   16.0316 C.3     1  UNL1        0.2556
     31 O           5.7635    0.8003   16.7556 O.3     1  UNL1       -0.4444
@<TRIPOS>BOND
     1    30    31    1
     2    31    28    1
     3    28    29    2
     4    28    25    1
     5    25    26    1
     6    25    27    1
     7    25    19    1
     8    19     1    1
     9     1     2   ar
    10     2     3   ar
    11     3     4   ar
    12     4     7    1
    13     7     9    1
    14     9    10   ar
    15    10    11   ar
    16    11    12   ar
    17    12    13   ar
    18    13    14   ar
    19    14    15   ar
    20    15    16   ar
    21    16    17   ar
    22    17    18   ar
    23     4     5   ar
    24     5     6   ar
    25    19    20    1
    26    20    21   ar
    27    21    22   ar
    28    22    23   ar
    29    23    24   ar
    30     6     1   ar
    31    24    20   ar
    32    18     9   ar
    33    17    12   ar
    34     7     8    1
@<TRIPOS>MOLECULE
*****
 31 34 0 0 0
SMALL
GASTEIGER

@<TRIPOS>ATOM
      1 C           4.3405   -1.1725   21.5448 C.ar    1  UNL1        0.0005
      2 C           3.6564   -1.7674   22.7398 C.ar    1  UNL1       -0.0011
      3 C           4.4596   -2.1684   23.9415 C.ar    1  UNL1        0.0143
      4 C           5.9469   -1.9744   23.9483 C.ar    1  UNL1        0.0483
      5 C           6.6312   -1.3794   22.7532 C.ar    1  UNL1        0.0143
      6 C           5.8280   -0.9785   21.5515 C.ar    1  UNL1       -0.0011
      7 N           6.7502   -2.3753   25.1500 N.pl3   1  UNL1       -0.3125
      8 H           6.9755   -1.7069   25.8368 H       1  UNL1        0.1522
      9 C           7.2101   -3.7946   25.3052 C.ar    1  UNL1        0.0483
     10 C           7.4312   -4.6483   24.0918 C.ar    1  UNL1        0.0146
     11 C           7.8911   -6.0676   24.2470 C.ar    1  UNL1        0.0013
     12 C           8.1298   -6.6333   25.6157 C.ar    1  UNL1        0.0001
     13 C           8.5897   -8.0525   25.7708 C.ar    1  UNL1        0.0000
     14 C           8.8283   -8.6182   27.1394 C.ar    1  UNL1        0.0000
     15 C           8.6072   -7.7645   28.3528 C.ar    1  UNL1        0.0000
     16 C           8.1473   -6.3452   28.1976 C.ar    1  UNL1        0.0000
     17 C           7.9086   -5.7796   26.8291 C.ar    1  UNL1        0.0012
     18 C           7.4487   -4.3602   26.6738 C.ar    1  UNL1        0.0146
     19 C           3.5373   -0.7716   20.3431 C.3     1  UNL1        0.1390
     20 N           2.2637    0.0016   20.5162 N.ar    1  UNL1       -0.2273
     21 C           0.8962   -0.4455   20.0920 C.ar    1  UNL1        0.1975
     22 N          -0.0787    0.6343   20.4575 N.ar    1  UNL1       -0.2007
     23 C           0.6863    1.7489   21.1075 C.ar    1  UNL1        0.2210
     24 N           2.1340    1.3579   21.1438 N.ar    1  UNL1       -0.1449
     25 C           4.0077   -1.1440   18.9683 C.3     1  UNL1        0.1141
     26 C           4.3416    0.2923   18.6934 C.3     1  UNL1        0.0134
     27 C           3.6739   -2.5803   19.2431 C.3     1  UNL1        0.0134
     28 C           4.4781   -1.5164   17.5935 C.2     1  UNL1        0.3182
     29 O           3.7620   -0.9867   16.3867 O.2     1  UNL1       -0.2501
     30 C           6.9572   -2.0939   18.1140 C.3     1  UNL1        0.2556
     31 O           5.6647   -2.4186   17.4256 O.3     1  UNL1       -0.4444
@<TRIPOS>BOND
     1    30    31    1
     2    31    28    1
     3    28    29    2
     4    28    25    1
     5    25    26    1
     6    25    27    1
     7    25    19    1
     8    19     1    1
     9     1     2   ar
    10     2     3   ar
    11     3     4   ar
    12     4     7    1
    13     7     9    1
    14     9    10   ar
    15    10    11   ar
    16    11    12   ar
    17    12    13   ar
    18    13    14   ar
    19    14    15   ar
    20    15    16   ar
    21    16    17   ar
    22    17    18   ar
    23     4     5   ar
    24     5     6   ar
    25    19    20    1
    26    20    21   ar
    27    21    22   ar
    28    22    23   ar
    29    23    24   ar
    30     6     1   ar
    31    24    20   ar
    32    18     9   ar
    33    17    12   ar
    34     7     8    1
@<TRIPOS>MOLECULE
*****
 31 34 0 0 0
SMALL
GASTEIGER

@<TRIPOS>ATOM
      1 C           2.7096   -0.0265   20.0839 C.ar    1  UNL1        0.0005
      2 C           2.9660    1.4133   20.4172 C.ar    1  UNL1       -0.0011
      3 C           1.8316    2.2987   20.8407 C.ar    1  UNL1        0.0143
      4 C           0.4408    1.7443   20.9308 C.ar    1  UNL1        0.0483
      5 C           0.1843    0.3044   20.5975 C.ar    1  UNL1        0.0143
      6 C           1.3187   -0.5810   20.1741 C.ar    1  UNL1       -0.0011
      7 N          -0.6936    2.6297   21.3543 N.pl3   1  UNL1       -0.3125
      8 H          -0.8015    2.8719   22.3024 H       1  UNL1        0.1522
      9 C          -1.6635    3.1460   20.3331 C.ar    1  UNL1        0.0483
     10 C          -1.1608    3.6867   19.0274 C.ar    1  UNL1        0.0146
     11 C          -2.1306    4.2030   18.0062 C.ar    1  UNL1        0.0013
     12 C          -3.6032    4.1787   18.2908 C.ar    1  UNL1        0.0001
     13 C          -4.5730    4.6951   17.2696 C.ar    1  UNL1        0.0000
     14 C          -6.0455    4.6708   17.5543 C.ar    1  UNL1        0.0000
     15 C          -6.5482    4.1302   18.8600 C.ar    1  UNL1        0.0000
     16 C          -5.5784    3.6138   19.8812 C.ar    1  UNL1        0.0000
     17 C          -4.1059    3.6381   19.5966 C.ar    1  UNL1        0.0012
     18 C          -3.1360    3.1217   20.6177 C.ar    1  UNL1        0.0146
     19 C           3.8439   -0.9119   19.6605 C.3     1  UNL1        0.1390
     20 N           4.0413   -2.2448   20.3194 N.ar    1  UNL1       -0.2273
     21 C           4.0156   -3.5792   19.6347 C.ar    1  UNL1        0.1975
     22 N           4.2574   -4.6365   20.6709 N.ar    1  UNL1       -0.2007
     23 C           4.4325   -3.9556   21.9960 C.ar    1  UNL1        0.2210
     24 N           4.2989   -2.4775   21.7787 N.ar    1  UNL1       -0.1449
     25 C           4.7810   -0.4642   18.5780 C.3     1  UNL1        0.1141
     26 C           5.9044   -0.4154   19.5707 C.3     1  UNL1        0.0134
     27 C           3.6575   -0.5130   17.5854 C.3     1  UNL1        0.0134
     28 C           5.7179   -0.0166   17.4956 C.2     1  UNL1        0.3182
     29 O           6.8198   -0.9241   17.0348 O.2     1  UNL1       -0.2501
     30 C           6.0339    2.5601   17.5996 C.3     1  UNL1        0.2556
     31 O           5.5531    1.3386   16.8739 O.3     1  UNL1       -0.4444
@<TRIPOS>BOND
     1    30    31    1
     2    31    28    1
     3    28    29    2
     4    28    25    1
     5    25    26    1
     6    25    27    1
     7    25    19    1
     8    19     1    1
     9     1     2   ar
    10     2     3   ar
    11     3     4   ar
    12     4     7    1
    13     7     9    1
    14     9    10   ar
    15    10    11   ar
    16    11    12   ar
    17    12    13   ar
    18    13    14   ar
    19    14    15   ar
    20    15    16   ar
    21    16    17   ar
    22    17    18   ar
    23     4     5   ar
    24     5     6   ar
    25    19    20    1
    26    20    21   ar
    27    21    22   ar
    28    22    23   ar
    29    23    24   ar
    30     6     1   ar
    31    24    20   ar
    32    18     9   ar
    33    17    12   ar
    34     7     8    1
@<TRIPOS>MOLECULE
*****
 31 34 0 0 0
SMALL
GASTEIGER

@<TRIPOS>ATOM
      1 C           2.3252    0.5617   20.2903 C.ar    1  UNL1        0.0005
      2 C           2.5286    1.9839   20.7215 C.ar    1  UNL1       -0.0011
      3 C           1.3704    2.9370   20.7332 C.ar    1  UNL1        0.0143
      4 C           0.0088    2.4679   20.3137 C.ar    1  UNL1        0.0483
      5 C          -0.1946    1.0457   19.8825 C.ar    1  UNL1        0.0143
      6 C           0.9636    0.0926   19.8708 C.ar    1  UNL1       -0.0011
      7 N          -1.1494    3.4210   20.3254 N.pl3   1  UNL1       -0.3125
      8 H          -1.3121    4.0076   19.5516 H       1  UNL1        0.1522
      9 C          -2.0598    3.4805   21.5161 C.ar    1  UNL1        0.0483
     10 C          -3.5408    3.3244   21.3364 C.ar    1  UNL1        0.0146
     11 C          -4.4512    3.3839   22.5271 C.ar    1  UNL1        0.0013
     12 C          -3.8805    3.5994   23.8975 C.ar    1  UNL1        0.0001
     13 C          -4.7909    3.6589   25.0882 C.ar    1  UNL1        0.0000
     14 C          -4.2202    3.8744   26.4585 C.ar    1  UNL1        0.0000
     15 C          -2.7392    4.0304   26.6382 C.ar    1  UNL1        0.0000
     16 C          -1.8289    3.9710   25.4476 C.ar    1  UNL1        0.0000
     17 C          -2.3995    3.7555   24.0772 C.ar    1  UNL1        0.0012
     18 C          -1.4892    3.6960   22.8865 C.ar    1  UNL1        0.0146
     19 C           3.4834   -0.3914   20.2786 C.3     1  UNL1        0.1390
     20 N           4.1527   -0.7742   21.5653 N.ar    1  UNL1       -0.2273
     21 C           3.4777   -1.3594   22.7702 C.ar    1  UNL1        0.1975
     22 N           4.5224   -1.5859   23.8225 N.ar    1  UNL1       -0.2007
     23 C           5.8431   -1.1405   23.2680 C.ar    1  UNL1        0.2210
     24 N           5.6146   -0.6389   21.8729 N.ar    1  UNL1       -0.1449
     25 C           3.9723   -0.9617   18.9802 C.3     1  UNL1        0.1141
     26 C           3.5076   -2.3236   19.4034 C.3     1  UNL1        0.0134
     27 C           4.4370    0.4002   18.5570 C.3     1  UNL1        0.0134
     28 C           4.4612   -1.5319   17.6819 C.2     1  UNL1        0.3182
     29 O           3.8679   -1.0635   16.3863 O.2     1  UNL1       -0.2501
     30 C           6.9333   -2.2069   18.1100 C.3     1  UNL1        0.2556
     31 O           5.5434   -2.5707   17.6791 O.3     1  UNL1       -0.4444
@<TRIPOS>BOND
     1    30    31    1
     2    31    28    1
     3    28    29    2
     4    28    25    1
     5    25    26    1
     6    25    27    1
     7    25    19    1
     8    19     1    1
     9     1     2   ar
    10     2     3   ar
    11     3     4   ar
    12     4     7    1
    13     7     9    1
    14     9    10   ar
    15    10    11   ar
    16    11    12   ar
    17    12    13   ar
    18    13    14   ar
    19    14    15   ar
    20    15    16   ar
    21    16    17   ar
    22    17    18   ar
    23     4     5   ar
    24     5     6   ar
    25    19    20    1
    26    20    21   ar
    27    21    22   ar
    28    22    23   ar
    29    23    24   ar
    30     6     1   ar
    31    24    20   ar
    32    18     9   ar
    33    17    12   ar
    34     7     8    1
@<TRIPOS>MOLECULE
*****
 31 34 0 0 0
SMALL
GASTEIGER

@<TRIPOS>ATOM
      1 C           5.9789   -1.4296   19.2377 C.ar    1  UNL1        0.0005
      2 C           5.4227   -2.8214   19.2970 C.ar    1  UNL1       -0.0011
      3 C           6.2075   -3.9152   19.9587 C.ar    1  UNL1        0.0143
      4 C           7.5485   -3.6171   20.5610 C.ar    1  UNL1        0.0483
      5 C           8.1048   -2.2253   20.5016 C.ar    1  UNL1        0.0143
      6 C           7.3200   -1.1316   19.8400 C.ar    1  UNL1       -0.0011
      7 N           8.3333   -4.7109   21.2226 N.pl3   1  UNL1       -0.3125
      8 H           9.0376   -5.1832   20.7225 H       1  UNL1        0.1522
      9 C           8.0450   -5.0851   22.6463 C.ar    1  UNL1        0.0483
     10 C           7.1548   -4.2162   23.4846 C.ar    1  UNL1        0.0146
     11 C           6.8665   -4.5904   24.9083 C.ar    1  UNL1        0.0013
     12 C           7.4683   -5.8334   25.4937 C.ar    1  UNL1        0.0001
     13 C           7.1800   -6.2075   26.9174 C.ar    1  UNL1        0.0000
     14 C           7.7819   -7.4505   27.5028 C.ar    1  UNL1        0.0000
     15 C           8.6721   -8.3193   26.6645 C.ar    1  UNL1        0.0000
     16 C           8.9604   -7.9452   25.2409 C.ar    1  UNL1        0.0000
     17 C           8.3585   -6.7022   24.6555 C.ar    1  UNL1        0.0012
     18 C           8.6469   -6.3281   23.2317 C.ar    1  UNL1        0.0146
     19 C           5.1940   -0.3359   18.5760 C.3     1  UNL1        0.1390
     20 N           5.8898    0.6591   17.6952 N.ar    1  UNL1       -0.2273
     21 C           5.7354    2.1499   17.7559 C.ar    1  UNL1        0.1975
     22 N           6.6123    2.7502   16.6973 N.ar    1  UNL1       -0.2007
     23 C           7.3087    1.6303   15.9823 C.ar    1  UNL1        0.2210
     24 N           6.8622    0.3380   16.5991 N.ar    1  UNL1       -0.1449
     25 C           3.7134   -0.2371   18.7953 C.3     1  UNL1        0.1141
     26 C           3.4747   -0.6774   17.3813 C.3     1  UNL1        0.0134
     27 C           3.9521    0.2031   20.2092 C.3     1  UNL1        0.0134
     28 C           2.2328   -0.1384   19.0145 C.2     1  UNL1        0.3182
     29 O           1.5571   -1.0518   19.9938 O.2     1  UNL1       -0.2501
     30 C           1.3344    2.2854   18.7531 C.3     1  UNL1        0.2556
     31 O           1.4279    0.8738   18.2544 O.3     1  UNL1       -0.4444
@<TRIPOS>BOND
     1    30    31    1
     2    31    28    1
     3    28    29    2
     4    28    25    1
     5    25    26    1
     6    25    27    1
     7    25    19    1
     8    19     1    1
     9     1     2   ar
    10     2     3   ar
    11     3     4   ar
    12     4     7    1
    13     7     9    1
    14     9    10   ar
    15    10    11   ar
    16    11    12   ar
    17    12    13   ar
    18    13    14   ar
    19    14    15   ar
    20    15    16   ar
    21    16    17   ar
    22    17    18   ar
    23     4     5   ar
    24     5     6   ar
    25    19    20    1
    26    20    21   ar
    27    21    22   ar
    28    22    23   ar
    29    23    24   ar
    30     6     1   ar
    31    24    20   ar
    32    18     9   ar
    33    17    12   ar
    34     7     8    1
@<TRIPOS>MOLECULE
*****
 31 34 0 0 0
SMALL
GASTEIGER

@<TRIPOS>ATOM
      1 C          -8.8424  -18.3957   23.2369 C.ar    1  UNL1        0.0005
      2 C          -8.6068  -19.8769   23.2547 C.ar    1  UNL1       -0.0011
      3 C          -7.6217  -20.4912   22.3048 C.ar    1  UNL1        0.0143
      4 C          -6.8722  -19.6242   21.3371 C.ar    1  UNL1        0.0483
      5 C          -7.1077  -18.1428   21.3193 C.ar    1  UNL1        0.0143
      6 C          -8.0928  -17.5286   22.2692 C.ar    1  UNL1       -0.0011
      7 N          -5.8871  -20.2384   20.3873 N.pl3   1  UNL1       -0.3125
      8 H          -6.1812  -20.9318   19.7532 H       1  UNL1        0.1522
      9 C          -4.4538  -19.7962   20.4034 C.ar    1  UNL1        0.0483
     10 C          -3.5803  -20.1262   21.5773 C.ar    1  UNL1        0.0146
     11 C          -2.1470  -19.6840   21.5935 C.ar    1  UNL1        0.0013
     12 C          -1.5872  -18.9119   20.4357 C.ar    1  UNL1        0.0001
     13 C          -0.1540  -18.4697   20.4519 C.ar    1  UNL1        0.0000
     14 C           0.4057  -17.6976   19.2941 C.ar    1  UNL1        0.0000
     15 C          -0.4678  -17.3676   18.1202 C.ar    1  UNL1        0.0000
     16 C          -1.9010  -17.8097   18.1040 C.ar    1  UNL1        0.0000
     17 C          -2.4607  -18.5819   19.2618 C.ar    1  UNL1        0.0012
     18 C          -3.8940  -19.0241   19.2456 C.ar    1  UNL1        0.0146
     19 C          -9.8274  -17.7814   24.1868 C.3     1  UNL1        0.1390
     20 N          -9.3406  -17.0342   25.3929 N.ar    1  UNL1       -0.2273
     21 C          -8.9891  -15.5769   25.4446 C.ar    1  UNL1        0.1975
     22 N          -8.5511  -15.2551   26.8427 N.ar    1  UNL1       -0.2007
     23 C          -8.6318  -16.5136   27.6550 C.ar    1  UNL1        0.2210
     24 N          -9.1197  -17.6131   26.7590 N.ar    1  UNL1       -0.1449
     25 C         -11.2995  -17.9144   23.9306 C.3     1  UNL1        0.1141
     26 C         -11.2555  -16.7020   23.0486 C.3     1  UNL1        0.0134
     27 C         -11.3434  -19.1269   24.8126 C.3     1  UNL1        0.0134
     28 C         -12.7714  -18.0475   23.6744 C.2     1  UNL1        0.3182
     29 O         -13.3146  -17.8335   22.2927 O.2     1  UNL1       -0.2501
     30 C         -15.1786  -18.4675   24.5571 C.3     1  UNL1        0.2556
     31 O         -13.7003  -18.3945   24.8000 O.3     1  UNL1       -0.4444
@<TRIPOS>BOND
     1    30    31    1
     2    31    28    1
     3    28    29    2
     4    28    25    1
     5    25    26    1
     6    25    27    1
     7    25    19    1
     8    19     1    1
     9     1     2   ar
    10     2     3   ar
    11     3     4   ar
    12     4     7    1
    13     7     9    1
    14     9    10   ar
    15    10    11   ar
    16    11    12   ar
    17    12    13   ar
    18    13    14   ar
    19    14    15   ar
    20    15    16   ar
    21    16    17   ar
    22    17    18   ar
    23     4     5   ar
    24     5     6   ar
    25    19    20    1
    26    20    21   ar
    27    21    22   ar
    28    22    23   ar
    29    23    24   ar
    30     6     1   ar
    31    24    20   ar
    32    18     9   ar
    33    17    12   ar
    34     7     8    1
@<TRIPOS>MOLECULE
*****
 31 34 0 0 0
SMALL
GASTEIGER

@<TRIPOS>ATOM
      1 C           5.4540   -0.9080   33.4406 C.ar    1  UNL1        0.0005
      2 C           6.9001   -0.7747   33.0651 C.ar    1  UNL1       -0.0011
      3 C           7.6527   -1.9634   32.5451 C.ar    1  UNL1        0.0143
      4 C           6.9592   -3.2856   32.4005 C.ar    1  UNL1        0.0483
      5 C           5.5130   -3.4190   32.7760 C.ar    1  UNL1        0.0143
      6 C           4.7604   -2.2302   33.2960 C.ar    1  UNL1       -0.0011
      7 N           7.7117   -4.4744   31.8805 N.pl3   1  UNL1       -0.3125
      8 H           8.3278   -4.9642   32.4719 H       1  UNL1        0.1522
      9 C           7.5256   -4.9168   30.4593 C.ar    1  UNL1        0.0483
     10 C           6.7182   -4.0791   29.5126 C.ar    1  UNL1        0.0146
     11 C           6.5320   -4.5215   28.0915 C.ar    1  UNL1        0.0013
     12 C           7.1533   -5.8018   27.6170 C.ar    1  UNL1        0.0001
     13 C           6.9672   -6.2442   26.1959 C.ar    1  UNL1        0.0000
     14 C           7.5885   -7.5244   25.7215 C.ar    1  UNL1        0.0000
     15 C           8.3959   -8.3621   26.6682 C.ar    1  UNL1        0.0000
     16 C           8.5821   -7.9197   28.0893 C.ar    1  UNL1        0.0000
     17 C           7.9608   -6.6395   28.5637 C.ar    1  UNL1        0.0012
     18 C           8.1469   -6.1970   29.9849 C.ar    1  UNL1        0.0146
     19 C           4.7015    0.2808   33.9606 C.3     1  UNL1        0.1390
     20 N           3.4992    0.7892   33.2217 N.ar    1  UNL1       -0.2273
     21 C           3.0724    0.3785   31.8437 C.ar    1  UNL1        0.1975
     22 N           1.8220    1.1330   31.5014 N.ar    1  UNL1       -0.2007
     23 C           1.4760    2.0102   32.6680 C.ar    1  UNL1        0.2210
     24 N           2.5125    1.7977   33.7312 N.ar    1  UNL1       -0.1449
     25 C           5.1512    0.9611   35.2195 C.3     1  UNL1        0.1141
     26 C           4.5934   -0.1707   36.0305 C.3     1  UNL1        0.0134
     27 C           5.7091    2.0930   34.4085 C.3     1  UNL1        0.0134
     28 C           5.6010    1.6415   36.4784 C.2     1  UNL1        0.3182
     29 O           6.8782    1.2208   37.1431 O.2     1  UNL1       -0.2501
     30 C           4.2617    2.6217   38.4773 C.3     1  UNL1        0.2556
     31 O           4.7736    2.7426   37.0726 O.3     1  UNL1       -0.4444
@<TRIPOS>BOND
     1    30    31    1
     2    31    28    1
     3    28    29    2
     4    28    25    1
     5    25    26    1
     6    25    27    1
     7    25    19    1
     8    19     1    1
     9     1     2   ar
    10     2     3   ar
    11     3     4   ar
    12     4     7    1
    13     7     9    1
    14     9    10   ar
    15    10    11   ar
    16    11    12   ar
    17    12    13   ar
    18    13    14   ar
    19    14    15   ar
    20    15    16   ar
    21    16    17   ar
    22    17    18   ar
    23     4     5   ar
    24     5     6   ar
    25    19    20    1
    26    20    21   ar
    27    21    22   ar
    28    22    23   ar
    29    23    24   ar
    30     6     1   ar
    31    24    20   ar
    32    18     9   ar
    33    17    12   ar
    34     7     8    1
