@<TRIPOS>MOLECULE
*****
 27 31 0 0 0
SMALL
GASTEIGER

@<TRIPOS>ATOM
      1 C          -5.1781  -18.7095   21.6191 C.3     1  UNL1        0.2354
      2 O          -4.9926  -20.1664   21.3142 O.3     1  UNL1       -0.3305
      3 C          -6.3358  -20.7448   20.9803 C.3     1  UNL1        0.1452
      4 C          -7.3513  -19.6453   21.0787 C.3     1  UNL1        0.0393
      5 C          -6.6359  -18.3874   21.4735 C.3     1  UNL1        0.0636
      6 C          -3.2553  -18.0033   23.2173 C.3     1  UNL1        0.1768
      7 O          -4.0959  -17.7442   22.0023 O.3     1  UNL1       -0.3278
      8 C          -8.8238  -19.7800   20.8266 C.3     1  UNL1        0.0291
      9 C          -9.8002  -19.5447   21.9408 C.ar    1  UNL1       -0.0189
     10 C          -9.5057  -20.0617   23.3177 C.ar    1  UNL1       -0.0009
     11 C         -10.4820  -19.8264   24.4319 C.ar    1  UNL1        0.0399
     12 C         -11.7528  -19.0742   24.1692 C.ar    1  UNL1        0.1764
     13 C         -12.0474  -18.5572   22.7922 C.ar    1  UNL1        0.1761
     14 C         -11.0711  -18.7925   21.6780 C.ar    1  UNL1        0.0359
     15 O         -13.3723  -17.8552   22.8342 O.3     1  UNL1       -0.4346
     16 C         -13.8966  -17.9383   24.2371 C.3     1  UNL1        0.4294
     17 O         -12.8957  -18.6917   25.0622 O.3     1  UNL1       -0.4346
     18 C          -7.2674  -17.0434   21.6855 C.3     1  UNL1        0.0316
     19 C          -7.5723  -16.5689   23.0755 C.ar    1  UNL1       -0.0188
     20 C          -8.9952  -16.4755   23.5409 C.ar    1  UNL1       -0.0009
     21 C          -9.3000  -16.0010   24.9308 C.ar    1  UNL1        0.0399
     22 C          -8.1820  -15.6198   25.8553 C.ar    1  UNL1        0.1764
     23 C          -6.7591  -15.7131   25.3899 C.ar    1  UNL1        0.1761
     24 C          -6.4542  -16.1877   24.0000 C.ar    1  UNL1        0.0359
     25 O          -5.8729  -15.2721   26.5169 O.3     1  UNL1       -0.4346
     26 C          -6.7481  -14.9062   27.6789 C.3     1  UNL1        0.4294
     27 O          -8.1752  -15.1211   27.2700 O.3     1  UNL1       -0.4346
@<TRIPOS>BOND
     1     6     7    1
     2     1     7    1
     3     1     2    1
     4     2     3    1
     5     3     4    1
     6     4     8    1
     7     8     9    1
     8     9    10   ar
     9    10    11   ar
    10    11    12   ar
    11    12    13   ar
    12    13    14   ar
    13    13    15    1
    14    15    16    1
    15    16    17    1
    16     4     5    1
    17     5    18    1
    18    18    19    1
    19    19    20   ar
    20    20    21   ar
    21    21    22   ar
    22    22    23   ar
    23    23    24   ar
    24    23    25    1
    25    25    26    1
    26    26    27    1
    27     5     1    1
    28    24    19   ar
    29    14     9   ar
    30    27    22    1
    31    17    12    1
@<TRIPOS>MOLECULE
*****
 27 31 0 0 0
SMALL
GASTEIGER

@<TRIPOS>ATOM
      1 C         -16.5115   -8.5131   18.8609 C.3     1  UNL1        0.2354
      2 O         -17.5916   -8.1044   19.8182 O.3     1  UNL1       -0.3305
      3 C         -17.7581   -6.6168   19.7217 C.3     1  UNL1        0.1452
      4 C         -16.7808   -6.1061   18.7047 C.3     1  UNL1        0.0393
      5 C         -16.0104   -7.2780   18.1727 C.3     1  UNL1        0.0636
      6 C         -16.9886  -11.0557   18.6208 C.3     1  UNL1        0.1768
      7 O         -16.0189   -9.9112   18.6320 O.3     1  UNL1       -0.3278
      8 C         -16.6049   -4.6747   18.2922 C.3     1  UNL1        0.0291
      9 C         -15.3395   -3.9455   18.6347 C.ar    1  UNL1       -0.0189
     10 C         -14.8329   -3.9449   20.0464 C.ar    1  UNL1       -0.0009
     11 C         -13.5676   -3.2158   20.3889 C.ar    1  UNL1        0.0399
     12 C         -12.8089   -2.4872   19.3196 C.ar    1  UNL1        0.1764
     13 C         -13.3156   -2.4877   17.9077 C.ar    1  UNL1        0.1761
     14 C         -14.5809   -3.2169   17.5652 C.ar    1  UNL1        0.0359
     15 O         -12.3608   -1.6875   17.0723 O.3     1  UNL1       -0.4346
     16 C         -11.2641   -1.1923   17.9678 C.3     1  UNL1        0.4294
     17 O         -11.5410   -1.6865   19.3567 O.3     1  UNL1       -0.4346
     18 C         -14.9288   -7.2243   17.1348 C.3     1  UNL1        0.0316
     19 C         -13.5807   -6.6671   17.4846 C.ar    1  UNL1       -0.0188
     20 C         -13.0365   -6.8356   18.8721 C.ar    1  UNL1       -0.0009
     21 C         -11.6885   -6.2783   19.2218 C.ar    1  UNL1        0.0399
     22 C         -10.8847   -5.5526   18.1839 C.ar    1  UNL1        0.1764
     23 C         -11.4289   -5.3840   16.7963 C.ar    1  UNL1        0.1761
     24 C         -12.7769   -5.9413   16.4467 C.ar    1  UNL1        0.0359
     25 O         -10.4156   -4.6275   15.9897 O.3     1  UNL1       -0.4346
     26 C          -9.2450   -4.3284   16.8787 C.3     1  UNL1        0.4294
     27 O          -9.5349   -4.9001   18.2348 O.3     1  UNL1       -0.4346
@<TRIPOS>BOND
     1     6     7    1
     2     1     7    1
     3     1     2    1
     4     2     3    1
     5     3     4    1
     6     4     8    1
     7     8     9    1
     8     9    10   ar
     9    10    11   ar
    10    11    12   ar
    11    12    13   ar
    12    13    14   ar
    13    13    15    1
    14    15    16    1
    15    16    17    1
    16     4     5    1
    17     5    18    1
    18    18    19    1
    19    19    20   ar
    20    20    21   ar
    21    21    22   ar
    22    22    23   ar
    23    23    24   ar
    24    23    25    1
    25    25    26    1
    26    26    27    1
    27     5     1    1
    28    24    19   ar
    29    14     9   ar
    30    27    22    1
    31    17    12    1
@<TRIPOS>MOLECULE
*****
 27 31 0 0 0
SMALL
GASTEIGER

@<TRIPOS>ATOM
      1 C         -10.4107   -1.6795   17.0688 C.3     1  UNL1        0.2354
      2 O          -9.5224   -2.5076   16.1884 O.3     1  UNL1       -0.3305
      3 C          -9.4873   -3.9005   16.7441 C.3     1  UNL1        0.1452
      4 C         -10.3538   -3.9331   17.9680 C.3     1  UNL1        0.0393
      5 C         -10.9245   -2.5605   18.1687 C.3     1  UNL1        0.0636
      6 C         -12.1054    0.1920   16.4557 C.3     1  UNL1        0.1768
      7 O         -10.7292   -0.2257   16.8821 O.3     1  UNL1       -0.3278
      8 C         -10.6055   -5.1285   18.8385 C.3     1  UNL1        0.0291
      9 C         -11.6296   -6.1478   18.4351 C.ar    1  UNL1       -0.0189
     10 C         -11.3905   -7.0176   17.2368 C.ar    1  UNL1       -0.0009
     11 C         -12.4145   -8.0368   16.8335 C.ar    1  UNL1        0.0399
     12 C         -13.6776   -8.1861   17.6285 C.ar    1  UNL1        0.1764
     13 C         -13.9168   -7.3162   18.8269 C.ar    1  UNL1        0.1761
     14 C         -12.8928   -6.2970   19.2302 C.ar    1  UNL1        0.0359
     15 O         -15.2466   -7.6889   19.4123 O.3     1  UNL1       -0.4346
     16 C         -15.8293   -8.7892   18.5758 C.3     1  UNL1        0.4294
     17 O         -14.8596   -9.0964   17.4733 O.3     1  UNL1       -0.4346
     18 C         -11.8471   -2.1423   19.2751 C.3     1  UNL1        0.0316
     19 C         -13.1908   -2.7938   19.4177 C.ar    1  UNL1       -0.0188
     20 C         -13.6987   -3.1756   20.7764 C.ar    1  UNL1       -0.0009
     21 C         -15.0423   -3.8270   20.9190 C.ar    1  UNL1        0.0399
     22 C         -15.8780   -4.0965   19.7028 C.ar    1  UNL1        0.1764
     23 C         -15.3701   -3.7146   18.3441 C.ar    1  UNL1        0.1761
     24 C         -14.0265   -3.0633   18.2016 C.ar    1  UNL1        0.0359
     25 O         -16.4098   -4.1023   17.3348 O.3     1  UNL1       -0.4346
     26 C         -17.5603   -4.7238   18.0697 C.3     1  UNL1        0.4294
     27 O         -17.2317   -4.7202   19.5332 O.3     1  UNL1       -0.4346
@<TRIPOS>BOND
     1     6     7    1
     2     1     7    1
     3     1     2    1
     4     2     3    1
     5     3     4    1
     6     4     8    1
     7     8     9    1
     8     9    10   ar
     9    10    11   ar
    10    11    12   ar
    11    12    13   ar
    12    13    14   ar
    13    13    15    1
    14    15    16    1
    15    16    17    1
    16     4     5    1
    17     5    18    1
    18    18    19    1
    19    19    20   ar
    20    20    21   ar
    21    21    22   ar
    22    22    23   ar
    23    23    24   ar
    24    23    25    1
    25    25    26    1
    26    26    27    1
    27     5     1    1
    28    24    19   ar
    29    14     9   ar
    30    27    22    1
    31    17    12    1
@<TRIPOS>MOLECULE
*****
 27 31 0 0 0
SMALL
GASTEIGER

@<TRIPOS>ATOM
      1 C         -11.7042   -5.8916   19.0817 C.3     1  UNL1        0.2354
      2 O         -11.9195   -7.1623   18.3143 O.3     1  UNL1       -0.3305
      3 C         -13.3827   -7.4894   18.3601 C.3     1  UNL1        0.1452
      4 C         -14.0717   -6.4207   19.1559 C.3     1  UNL1        0.0393
      5 C         -13.0344   -5.4333   19.6019 C.3     1  UNL1        0.0636
      6 C          -9.5988   -4.7177   18.1125 C.3     1  UNL1        0.1768
      7 O         -10.3896   -5.2006   19.2921 O.3     1  UNL1       -0.3278
      8 C         -15.5403   -6.3517   19.4534 C.3     1  UNL1        0.0291
      9 C         -16.4391   -7.4870   19.0616 C.ar    1  UNL1       -0.0189
     10 C         -16.5702   -8.6832   19.9570 C.ar    1  UNL1       -0.0009
     11 C         -17.4689   -9.8184   19.5652 C.ar    1  UNL1        0.0399
     12 C         -18.2366   -9.7574   18.2780 C.ar    1  UNL1        0.1764
     13 C         -18.1055   -8.5612   17.3825 C.ar    1  UNL1        0.1761
     14 C         -17.2068   -7.4259   17.7743 C.ar    1  UNL1        0.0359
     15 O         -18.9800   -8.7813   16.1839 O.3     1  UNL1       -0.4346
     16 C         -19.6516  -10.1136   16.3385 C.3     1  UNL1        0.4294
     17 O         -19.1921  -10.7169   17.6327 O.3     1  UNL1       -0.4346
     18 C         -13.2836   -4.2034   20.4237 C.3     1  UNL1        0.0316
     19 C         -13.4461   -2.8724   19.7514 C.ar    1  UNL1       -0.0188
     20 C         -14.7752   -2.1774   19.7754 C.ar    1  UNL1       -0.0009
     21 C         -14.9377   -0.8464   19.1031 C.ar    1  UNL1        0.0399
     22 C         -13.7712   -0.2104   18.4069 C.ar    1  UNL1        0.1764
     23 C         -12.4421   -0.9053   18.3830 C.ar    1  UNL1        0.1761
     24 C         -12.2796   -2.2363   19.0553 C.ar    1  UNL1        0.0359
     25 O         -11.4802   -0.0400   17.6242 O.3     1  UNL1       -0.4346
     26 C         -12.2147    1.1898   17.1791 C.3     1  UNL1        0.4294
     27 O         -13.6307    1.0845   17.6629 O.3     1  UNL1       -0.4346
@<TRIPOS>BOND
     1     6     7    1
     2     1     7    1
     3     1     2    1
     4     2     3    1
     5     3     4    1
     6     4     8    1
     7     8     9    1
     8     9    10   ar
     9    10    11   ar
    10    11    12   ar
    11    12    13   ar
    12    13    14   ar
    13    13    15    1
    14    15    16    1
    15    16    17    1
    16     4     5    1
    17     5    18    1
    18    18    19    1
    19    19    20   ar
    20    20    21   ar
    21    21    22   ar
    22    22    23   ar
    23    23    24   ar
    24    23    25    1
    25    25    26    1
    26    26    27    1
    27     5     1    1
    28    24    19   ar
    29    14     9   ar
    30    27    22    1
    31    17    12    1
@<TRIPOS>MOLECULE
*****
 27 31 0 0 0
SMALL
GASTEIGER

@<TRIPOS>ATOM
      1 C         -11.6520   -5.7762   17.4723 C.3     1  UNL1        0.2354
      2 O         -11.5123   -6.6716   16.2769 O.3     1  UNL1       -0.3305
      3 C         -12.4543   -7.8260   16.4498 C.3     1  UNL1        0.1452
      4 C         -13.1762   -7.6442   17.7520 C.3     1  UNL1        0.0393
      5 C         -12.6804   -6.3774   18.3840 C.3     1  UNL1        0.0636
      6 C          -9.8490   -4.4447   18.7862 C.3     1  UNL1        0.1768
      7 O         -10.8961   -4.5034   17.7137 O.3     1  UNL1       -0.3278
      8 C         -14.2121   -8.5672   18.3221 C.3     1  UNL1        0.0291
      9 C         -15.6436   -8.1269   18.4075 C.ar    1  UNL1       -0.0189
     10 C         -16.2702   -7.3871   17.2630 C.ar    1  UNL1       -0.0009
     11 C         -17.7015   -6.9468   17.3483 C.ar    1  UNL1        0.0399
     12 C         -18.5063   -7.2463   18.5782 C.ar    1  UNL1        0.1764
     13 C         -17.8796   -7.9861   19.7228 C.ar    1  UNL1        0.1761
     14 C         -16.4483   -8.4264   19.6375 C.ar    1  UNL1        0.0359
     15 O         -18.9138   -8.1374   20.7987 O.3     1  UNL1       -0.4346
     16 C         -20.1796   -7.4911   20.3190 C.3     1  UNL1        0.4294
     17 O         -19.9277   -6.9404   18.9467 O.3     1  UNL1       -0.4346
     18 C         -13.1334   -5.8112   19.6971 C.3     1  UNL1        0.0316
     19 C         -14.0762   -4.6448   19.7256 C.ar    1  UNL1       -0.0188
     20 C         -13.5412   -3.2458   19.6442 C.ar    1  UNL1       -0.0009
     21 C         -14.4840   -2.0795   19.6727 C.ar    1  UNL1        0.0399
     22 C         -15.9618   -2.3122   19.7826 C.ar    1  UNL1        0.1764
     23 C         -16.4968   -3.7111   19.8640 C.ar    1  UNL1        0.1761
     24 C         -15.5540   -4.8774   19.8355 C.ar    1  UNL1        0.0359
     25 O         -17.9912   -3.6307   19.9652 O.3     1  UNL1       -0.4346
     26 C         -18.3798   -2.1820   19.9463 C.3     1  UNL1        0.4294
     27 O         -17.1255   -1.3671   19.8335 O.3     1  UNL1       -0.4346
@<TRIPOS>BOND
     1     6     7    1
     2     1     7    1
     3     1     2    1
     4     2     3    1
     5     3     4    1
     6     4     8    1
     7     8     9    1
     8     9    10   ar
     9    10    11   ar
    10    11    12   ar
    11    12    13   ar
    12    13    14   ar
    13    13    15    1
    14    15    16    1
    15    16    17    1
    16     4     5    1
    17     5    18    1
    18    18    19    1
    19    19    20   ar
    20    20    21   ar
    21    21    22   ar
    22    22    23   ar
    23    23    24   ar
    24    23    25    1
    25    25    26    1
    26    26    27    1
    27     5     1    1
    28    24    19   ar
    29    14     9   ar
    30    27    22    1
    31    17    12    1
@<TRIPOS>MOLECULE
*****
 27 31 0 0 0
SMALL
GASTEIGER

@<TRIPOS>ATOM
      1 C         -10.9523   -7.4669   17.9748 C.3     1  UNL1        0.2354
      2 O         -10.8812   -8.1206   16.6266 O.3     1  UNL1       -0.3305
      3 C         -12.2349   -8.0162   15.9888 C.3     1  UNL1        0.1452
      4 C         -13.1426   -7.2979   16.9428 C.3     1  UNL1        0.0393
      5 C         -12.3500   -6.9584   18.1702 C.3     1  UNL1        0.0636
      6 C          -9.3015   -5.9882   19.3306 C.3     1  UNL1        0.1768
      7 O          -9.8240   -7.3433   18.9553 O.3     1  UNL1       -0.3278
      8 C         -14.5890   -6.9757   16.7102 C.3     1  UNL1        0.0291
      9 C         -15.6456   -7.6098   17.5656 C.ar    1  UNL1       -0.0189
     10 C         -15.6378   -9.0926   17.7912 C.ar    1  UNL1       -0.0009
     11 C         -16.6944   -9.7267   18.6466 C.ar    1  UNL1        0.0399
     12 C         -17.7587   -8.8779   19.2763 C.ar    1  UNL1        0.1764
     13 C         -17.7665   -7.3949   19.0507 C.ar    1  UNL1        0.1761
     14 C         -16.7100   -6.7609   18.1954 C.ar    1  UNL1        0.0359
     15 O         -18.9335   -6.8187   19.7964 O.3     1  UNL1       -0.4346
     16 C         -19.6470   -7.9455   20.4829 C.3     1  UNL1        0.4294
     17 O         -18.9209   -9.2182   20.1615 O.3     1  UNL1       -0.4346
     18 C         -12.8646   -6.2371   19.3805 C.3     1  UNL1        0.0316
     19 C         -13.2439   -4.7889   19.2856 C.ar    1  UNL1       -0.0188
     20 C         -14.5939   -4.3348   19.7560 C.ar    1  UNL1       -0.0009
     21 C         -14.9732   -2.8867   19.6611 C.ar    1  UNL1        0.0399
     22 C         -14.0025   -1.8926   19.0958 C.ar    1  UNL1        0.1764
     23 C         -12.6525   -2.3467   18.6254 C.ar    1  UNL1        0.1761
     24 C         -12.2732   -3.7948   18.7204 C.ar    1  UNL1        0.0359
     25 O         -11.9106   -1.1460   18.1176 O.3     1  UNL1       -0.4346
     26 C         -12.8021    0.0502   18.2741 C.3     1  UNL1        0.4294
     27 O         -14.0949   -0.4112   18.8787 O.3     1  UNL1       -0.4346
@<TRIPOS>BOND
     1     6     7    1
     2     1     7    1
     3     1     2    1
     4     2     3    1
     5     3     4    1
     6     4     8    1
     7     8     9    1
     8     9    10   ar
     9    10    11   ar
    10    11    12   ar
    11    12    13   ar
    12    13    14   ar
    13    13    15    1
    14    15    16    1
    15    16    17    1
    16     4     5    1
    17     5    18    1
    18    18    19    1
    19    19    20   ar
    20    20    21   ar
    21    21    22   ar
    22    22    23   ar
    23    23    24   ar
    24    23    25    1
    25    25    26    1
    26    26    27    1
    27     5     1    1
    28    24    19   ar
    29    14     9   ar
    30    27    22    1
    31    17    12    1
@<TRIPOS>MOLECULE
*****
 27 31 0 0 0
SMALL
GASTEIGER

@<TRIPOS>ATOM
      1 C         -10.1220   -5.4124   18.1737 C.3     1  UNL1        0.2354
      2 O          -9.4836   -5.0493   16.8658 O.3     1  UNL1       -0.3305
      3 C         -10.4563   -4.2093   16.0925 C.3     1  UNL1        0.1452
      4 C         -11.6960   -4.0532   16.9224 C.3     1  UNL1        0.0393
      5 C         -11.4895   -4.7967   18.2087 C.3     1  UNL1        0.0636
      6 C          -9.3269   -7.7217   19.0599 C.3     1  UNL1        0.1768
      7 O          -9.5020   -6.2449   19.2565 O.3     1  UNL1       -0.3278
      8 C         -12.9263   -3.2879   16.5341 C.3     1  UNL1        0.0291
      9 C         -13.2154   -1.9602   17.1695 C.ar    1  UNL1       -0.0189
     10 C         -12.1623   -0.8923   17.1877 C.ar    1  UNL1       -0.0009
     11 C         -12.4513    0.4354   17.8231 C.ar    1  UNL1        0.0399
     12 C         -13.7935    0.6952   18.4403 C.ar    1  UNL1        0.1764
     13 C         -14.8467   -0.3727   18.4221 C.ar    1  UNL1        0.1761
     14 C         -14.5577   -1.7004   17.7868 C.ar    1  UNL1        0.0359
     15 O         -16.0679    0.1689   19.1043 O.3     1  UNL1       -0.4346
     16 C         -15.7694    1.5715   19.5440 C.3     1  UNL1        0.4294
     17 O         -14.3638    1.8968   19.1336 O.3     1  UNL1       -0.4346
     18 C         -12.4769   -4.9056   19.3325 C.3     1  UNL1        0.0316
     19 C         -13.6624   -5.8157   19.2039 C.ar    1  UNL1       -0.0188
     20 C         -15.0437   -5.2882   19.4560 C.ar    1  UNL1       -0.0009
     21 C         -16.2291   -6.1984   19.3273 C.ar    1  UNL1        0.0399
     22 C         -16.0330   -7.6359   18.9466 C.ar    1  UNL1        0.1764
     23 C         -14.6517   -8.1634   18.6945 C.ar    1  UNL1        0.1761
     24 C         -13.4664   -7.2533   18.8232 C.ar    1  UNL1        0.0359
     25 O         -14.7681   -9.6155   18.3369 O.3     1  UNL1       -0.4346
     26 C         -16.2214   -9.9855   18.3680 C.3     1  UNL1        0.4294
     27 O         -17.0032   -8.7621   18.7448 O.3     1  UNL1       -0.4346
@<TRIPOS>BOND
     1     6     7    1
     2     1     7    1
     3     1     2    1
     4     2     3    1
     5     3     4    1
     6     4     8    1
     7     8     9    1
     8     9    10   ar
     9    10    11   ar
    10    11    12   ar
    11    12    13   ar
    12    13    14   ar
    13    13    15    1
    14    15    16    1
    15    16    17    1
    16     4     5    1
    17     5    18    1
    18    18    19    1
    19    19    20   ar
    20    20    21   ar
    21    21    22   ar
    22    22    23   ar
    23    23    24   ar
    24    23    25    1
    25    25    26    1
    26    26    27    1
    27     5     1    1
    28    24    19   ar
    29    14     9   ar
    30    27    22    1
    31    17    12    1
@<TRIPOS>MOLECULE
*****
 27 31 0 0 0
SMALL
GASTEIGER

@<TRIPOS>ATOM
      1 C         -11.3940   -3.7837   18.8376 C.3     1  UNL1        0.2354
      2 O         -10.7078   -2.9005   17.8380 O.3     1  UNL1       -0.3305
      3 C         -11.4721   -1.6125   17.7556 C.3     1  UNL1        0.1452
      4 C         -12.6307   -1.6995   18.7044 C.3     1  UNL1        0.0393
      5 C         -12.5824   -3.0413   19.3731 C.3     1  UNL1        0.0636
      6 C          -9.5304   -5.5757   19.0938 C.3     1  UNL1        0.1768
      7 O         -10.9668   -5.1662   19.2325 O.3     1  UNL1       -0.3278
      8 C         -13.6573   -0.6321   18.9427 C.3     1  UNL1        0.0291
      9 C         -15.1172   -0.9555   18.8229 C.ar    1  UNL1       -0.0189
     10 C         -15.6403   -1.6128   17.5804 C.ar    1  UNL1       -0.0009
     11 C         -17.1001   -1.9362   17.4606 C.ar    1  UNL1        0.0399
     12 C         -18.0368   -1.6021   18.5835 C.ar    1  UNL1        0.1764
     13 C         -17.5137   -0.9447   19.8262 C.ar    1  UNL1        0.1761
     14 C         -16.0539   -0.6213   19.9459 C.ar    1  UNL1        0.0359
     15 O         -18.6680   -0.7356   20.7611 O.3     1  UNL1       -0.4346
     16 C         -19.9044   -1.2638   20.0962 C.3     1  UNL1        0.4294
     17 O         -19.5144   -1.7993   18.7504 O.3     1  UNL1       -0.4346
     18 C         -13.5523   -3.5513   20.3975 C.3     1  UNL1        0.0316
     19 C         -14.5487   -4.6092   20.0257 C.ar    1  UNL1       -0.0188
     20 C         -16.0168   -4.3046   20.0676 C.ar    1  UNL1       -0.0009
     21 C         -17.0131   -5.3624   19.6958 C.ar    1  UNL1        0.0399
     22 C         -16.5414   -6.7248   19.2820 C.ar    1  UNL1        0.1764
     23 C         -15.0732   -7.0294   19.2401 C.ar    1  UNL1        0.1761
     24 C         -14.0769   -5.9716   19.6119 C.ar    1  UNL1        0.0359
     25 O         -14.9076   -8.4525   18.7957 O.3     1  UNL1       -0.4346
     26 C         -16.2734   -9.0274   18.5631 C.3     1  UNL1        0.4294
     27 O         -17.2832   -7.9597   18.8636 O.3     1  UNL1       -0.4346
@<TRIPOS>BOND
     1     6     7    1
     2     1     7    1
     3     1     2    1
     4     2     3    1
     5     3     4    1
     6     4     8    1
     7     8     9    1
     8     9    10   ar
     9    10    11   ar
    10    11    12   ar
    11    12    13   ar
    12    13    14   ar
    13    13    15    1
    14    15    16    1
    15    16    17    1
    16     4     5    1
    17     5    18    1
    18    18    19    1
    19    19    20   ar
    20    20    21   ar
    21    21    22   ar
    22    22    23   ar
    23    23    24   ar
    24    23    25    1
    25    25    26    1
    26    26    27    1
    27     5     1    1
    28    24    19   ar
    29    14     9   ar
    30    27    22    1
    31    17    12    1
@<TRIPOS>MOLECULE
*****
 27 31 0 0 0
SMALL
GASTEIGER

@<TRIPOS>ATOM
      1 C         -10.6801   -2.6606   17.5024 C.3     1  UNL1        0.2354
      2 O         -11.0314   -1.2207   17.7337 O.3     1  UNL1       -0.3305
      3 C         -12.0409   -1.1620   18.8415 C.3     1  UNL1        0.1452
      4 C         -12.3136   -2.5656   19.2950 C.3     1  UNL1        0.0393
      5 C         -11.4726   -3.4918   18.4674 C.3     1  UNL1        0.0636
      6 C          -8.9180   -4.4224   16.7669 C.3     1  UNL1        0.1768
      7 O          -9.7073   -3.1783   16.4849 O.3     1  UNL1       -0.3278
      8 C         -13.2610   -2.9717   20.3847 C.3     1  UNL1        0.0291
      9 C         -14.7236   -3.1243   20.0887 C.ar    1  UNL1       -0.0189
     10 C         -15.3644   -4.4790   20.1525 C.ar    1  UNL1       -0.0009
     11 C         -16.8269   -4.6316   19.8564 C.ar    1  UNL1        0.0399
     12 C         -17.6487   -3.4295   19.4967 C.ar    1  UNL1        0.1764
     13 C         -17.0080   -2.0747   19.4329 C.ar    1  UNL1        0.1761
     14 C         -15.5454   -1.9220   19.7289 C.ar    1  UNL1        0.0359
     15 O         -18.0643   -1.0797   19.0531 O.3     1  UNL1       -0.4346
     16 C         -19.3579   -1.8196   18.8821 C.3     1  UNL1        0.4294
     17 O         -19.1011   -3.2718   19.1563 O.3     1  UNL1       -0.4346
     18 C         -11.4314   -4.9866   18.5842 C.3     1  UNL1        0.0316
     19 C         -12.6119   -5.8055   18.1530 C.ar    1  UNL1       -0.0188
     20 C         -13.5330   -5.2902   17.0872 C.ar    1  UNL1       -0.0009
     21 C         -14.7135   -6.1090   16.6560 C.ar    1  UNL1        0.0399
     22 C         -14.9728   -7.4432   17.2906 C.ar    1  UNL1        0.1764
     23 C         -14.0516   -7.9586   18.3563 C.ar    1  UNL1        0.1761
     24 C         -12.8712   -7.1397   18.7875 C.ar    1  UNL1        0.0359
     25 O         -14.5576   -9.3000   18.7973 O.3     1  UNL1       -0.4346
     26 C         -15.7914   -9.6138   18.0041 C.3     1  UNL1        0.4294
     27 O         -16.0481   -8.4662   17.0728 O.3     1  UNL1       -0.4346
@<TRIPOS>BOND
     1     6     7    1
     2     1     7    1
     3     1     2    1
     4     2     3    1
     5     3     4    1
     6     4     8    1
     7     8     9    1
     8     9    10   ar
     9    10    11   ar
    10    11    12   ar
    11    12    13   ar
    12    13    14   ar
    13    13    15    1
    14    15    16    1
    15    16    17    1
    16     4     5    1
    17     5    18    1
    18    18    19    1
    19    19    20   ar
    20    20    21   ar
    21    21    22   ar
    22    22    23   ar
    23    23    24   ar
    24    23    25    1
    25    25    26    1
    26    26    27    1
    27     5     1    1
    28    24    19   ar
    29    14     9   ar
    30    27    22    1
    31    17    12    1
