@<TRIPOS>MOLECULE
*****
 32 33 0 0 0
SMALL
GASTEIGER

@<TRIPOS>ATOM
      1 C          -8.2434  -15.8775   25.4600 C.3     1  UNL1        0.0931
      2 C          -8.4092  -15.9105   26.9504 C.3     1  UNL1        0.0230
      3 C          -7.0604  -15.6987   27.5718 C.3     1  UNL1        0.0233
      4 C          -6.0610  -15.5348   26.4653 C.3     1  UNL1        0.0934
      5 N          -6.7921  -15.6453   25.1602 N.am    1  UNL1       -0.2797
      6 C          -6.1795  -15.5418   23.7949 C.2     1  UNL1        0.2270
      7 O          -7.0413  -15.6735   22.5742 O.2     1  UNL1       -0.2748
      8 C          -9.3368  -16.0470   24.4473 C.3     1  UNL1        0.1155
      9 C          -9.5968  -18.5364   25.1440 C.3     1  UNL1        0.1149
     10 N         -10.0198  -17.3739   24.2958 N.3     1  UNL1       -0.1489
     11 S         -11.1260  -17.5381   23.2961 S.O2    1  UNL1        0.1303
     12 O         -10.3641  -16.6974   22.3148 O.2     1  UNL1       -0.1495
     13 O         -11.8879  -18.3788   24.2773 O.2     1  UNL1       -0.1495
     14 C         -12.2321  -17.7024   22.2964 C.3     1  UNL1        0.5359
     15 F         -12.9457  -16.5254   22.8926 F       1  UNL1       -0.1493
     16 F         -11.5186  -18.8794   21.7001 F       1  UNL1       -0.1493
     17 F         -13.3384  -17.8666   21.2967 F       1  UNL1       -0.1493
     18 C          -4.7052  -15.3066   23.6503 C.3     1  UNL1        0.1010
     19 C          -3.8455  -16.3303   22.9698 C.3     1  UNL1        0.0644
     20 N          -2.8591  -15.9049   21.9229 N.3     1  UNL1       -0.3215
     21 H          -2.9067  -14.8933   21.8019 H       1  UNL1        0.1188
     22 H          -3.0816  -16.3638   21.0396 H       1  UNL1        0.1188
     23 C          -3.9724  -17.7793   23.3361 C.3     1  UNL1        0.0447
     24 C          -4.5906  -18.7459   22.3698 C.ar    1  UNL1        0.0090
     25 C          -6.0832  -18.8623   22.2770 C.ar    1  UNL1        0.0300
     26 C          -6.7014  -19.8289   21.3108 C.ar    1  UNL1        0.1672
     27 F          -8.1940  -19.9454   21.2180 F       1  UNL1       -0.2018
     28 C          -5.8270  -20.6790   20.4374 C.ar    1  UNL1        0.1696
     29 F          -6.4453  -21.6455   19.4712 F       1  UNL1       -0.2017
     30 C          -4.3345  -20.5625   20.5302 C.ar    1  UNL1        0.0612
     31 C          -3.7163  -19.5960   21.4964 C.ar    1  UNL1        0.1386
     32 F          -2.2236  -19.4795   21.5892 F       1  UNL1       -0.2044
@<TRIPOS>BOND
     1     9    10    1
     2    10     8    1
     3     1     8    1
     4     1     2    1
     5     2     3    1
     6     3     4    1
     7     4     5    1
     8     5     6   am
     9     6     7    2
    10     6    18    1
    11    18    19    1
    12    19    20    1
    13    19    23    1
    14    23    24    1
    15    24    25   ar
    16    25    26   ar
    17    26    27    1
    18    26    28   ar
    19    28    29    1
    20    28    30   ar
    21    30    31   ar
    22    31    32    1
    23    10    11    1
    24    11    12    2
    25    11    13    2
    26    11    14    1
    27    14    15    1
    28    14    16    1
    29    14    17    1
    30     5     1    1
    31    31    24   ar
    32    20    21    1
    33    20    22    1
@<TRIPOS>MOLECULE
*****
 32 33 0 0 0
SMALL
GASTEIGER

@<TRIPOS>ATOM
      1 C          -9.4452  -17.0511   24.1134 C.3     1  UNL1        0.0931
      2 C          -9.3059  -15.7290   24.8079 C.3     1  UNL1        0.0230
      3 C          -7.9263  -15.2060   24.5369 C.3     1  UNL1        0.0233
      4 C          -7.2131  -16.2050   23.6749 C.3     1  UNL1        0.0934
      5 N          -8.1517  -17.3454   23.4131 N.am    1  UNL1       -0.2797
      6 C          -7.8500  -18.5657   22.5948 C.2     1  UNL1        0.2270
      7 O          -8.8938  -19.6287   22.4203 O.2     1  UNL1       -0.2748
      8 C         -10.6639  -17.9255   24.1183 C.3     1  UNL1        0.1155
      9 C         -13.2181  -18.0074   23.6492 C.3     1  UNL1        0.1149
     10 N         -11.8366  -17.5827   23.2479 N.3     1  UNL1       -0.1489
     11 S         -11.6276  -16.8152   21.9762 S.O2    1  UNL1        0.1303
     12 O         -12.0865  -15.5603   22.6581 O.2     1  UNL1       -0.1495
     13 O         -11.1688  -18.0699   21.2943 O.2     1  UNL1       -0.1495
     14 C         -11.4186  -16.0476   20.7045 C.3     1  UNL1        0.5359
     15 F          -9.9740  -15.8540   21.0588 F       1  UNL1       -0.1493
     16 F         -12.8633  -16.2413   20.3502 F       1  UNL1       -0.1493
     17 F         -11.2096  -15.2801   19.4328 F       1  UNL1       -0.1493
     18 C          -6.5044  -18.7230   21.9509 C.3     1  UNL1        0.1010
     19 C          -6.3862  -19.3947   20.6148 C.3     1  UNL1        0.0644
     20 N          -7.5149  -19.3105   19.6305 N.3     1  UNL1       -0.3215
     21 H          -8.2761  -18.7630   20.0321 H       1  UNL1        0.1188
     22 H          -7.8487  -20.2499   19.4149 H       1  UNL1        0.1188
     23 C          -5.1392  -20.1506   20.2632 C.3     1  UNL1        0.0447
     24 C          -3.8142  -19.4474   20.2507 C.ar    1  UNL1        0.0090
     25 C          -3.2668  -18.9019   18.9652 C.ar    1  UNL1        0.0300
     26 C          -1.9419  -18.1988   18.9527 C.ar    1  UNL1        0.1672
     27 F          -1.3943  -17.6532   17.6672 F       1  UNL1       -0.2018
     28 C          -1.1644  -18.0412   20.2258 C.ar    1  UNL1        0.1696
     29 F           0.1605  -17.3380   20.2133 F       1  UNL1       -0.2017
     30 C          -1.7119  -18.5867   21.5114 C.ar    1  UNL1        0.0612
     31 C          -3.0368  -19.2898   21.5238 C.ar    1  UNL1        0.1386
     32 F          -3.5844  -19.8354   22.8094 F       1  UNL1       -0.2044
@<TRIPOS>BOND
     1     9    10    1
     2    10     8    1
     3     1     8    1
     4     1     2    1
     5     2     3    1
     6     3     4    1
     7     4     5    1
     8     5     6   am
     9     6     7    2
    10     6    18    1
    11    18    19    1
    12    19    20    1
    13    19    23    1
    14    23    24    1
    15    24    25   ar
    16    25    26   ar
    17    26    27    1
    18    26    28   ar
    19    28    29    1
    20    28    30   ar
    21    30    31   ar
    22    31    32    1
    23    10    11    1
    24    11    12    2
    25    11    13    2
    26    11    14    1
    27    14    15    1
    28    14    16    1
    29    14    17    1
    30     5     1    1
    31    31    24   ar
    32    20    21    1
    33    20    22    1
@<TRIPOS>MOLECULE
*****
 32 33 0 0 0
SMALL
GASTEIGER

@<TRIPOS>ATOM
      1 C          -8.2117  -15.7710   25.3568 C.3     1  UNL1        0.0931
      2 C          -8.3759  -15.3807   26.7958 C.3     1  UNL1        0.0230
      3 C          -7.0106  -15.2926   27.4109 C.3     1  UNL1        0.0233
      4 C          -6.0027  -15.6285   26.3520 C.3     1  UNL1        0.0934
      5 N          -6.7450  -15.9241   25.0825 N.am    1  UNL1       -0.2797
      6 C          -6.1287  -16.3058   23.7694 C.2     1  UNL1        0.2270
      7 O          -7.0029  -16.5730   22.5801 O.2     1  UNL1       -0.2748
      8 C          -9.3197  -15.9727   24.3660 C.3     1  UNL1        0.1155
      9 C          -9.6460  -18.4028   25.2253 C.3     1  UNL1        0.1149
     10 N         -10.0353  -17.2893   24.2987 N.3     1  UNL1       -0.1489
     11 S         -11.1402  -17.4924   23.3048 S.O2    1  UNL1        0.1303
     12 O         -11.6919  -18.6055   24.1454 O.2     1  UNL1       -0.1495
     13 O         -10.5885  -16.3793   22.4641 O.2     1  UNL1       -0.1495
     14 C         -12.2451  -17.6954   22.3108 C.3     1  UNL1        0.5359
     15 F         -11.2573  -18.2458   21.3252 F       1  UNL1       -0.1493
     16 F         -13.2329  -17.1450   23.2964 F       1  UNL1       -0.1493
     17 F         -13.3500  -17.8985   21.3167 F       1  UNL1       -0.1493
     18 C          -4.6383  -16.4205   23.6455 C.3     1  UNL1        0.1010
     19 C          -3.9547  -17.7124   23.9828 C.3     1  UNL1        0.0644
     20 N          -3.3581  -17.9119   25.3445 N.3     1  UNL1       -0.3215
     21 H          -3.5080  -17.0746   25.9074 H       1  UNL1        0.1188
     22 H          -2.3572  -18.0867   25.2549 H       1  UNL1        0.1188
     23 C          -3.8679  -18.8047   22.9585 C.3     1  UNL1        0.0447
     24 C          -3.2632  -18.5262   21.6144 C.ar    1  UNL1        0.0090
     25 C          -1.9268  -17.8517   21.5184 C.ar    1  UNL1        0.0300
     26 C          -1.3221  -17.5732   20.1743 C.ar    1  UNL1        0.1672
     27 F           0.0143  -16.8987   20.0783 F       1  UNL1       -0.2018
     28 C          -2.0538  -17.9691   18.9261 C.ar    1  UNL1        0.1696
     29 F          -1.4490  -17.6905   17.5819 F       1  UNL1       -0.2017
     30 C          -3.3901  -18.6435   19.0221 C.ar    1  UNL1        0.0612
     31 C          -3.9948  -18.9220   20.3662 C.ar    1  UNL1        0.1386
     32 F          -5.3312  -19.5965   20.4622 F       1  UNL1       -0.2044
@<TRIPOS>BOND
     1     9    10    1
     2    10     8    1
     3     1     8    1
     4     1     2    1
     5     2     3    1
     6     3     4    1
     7     4     5    1
     8     5     6   am
     9     6     7    2
    10     6    18    1
    11    18    19    1
    12    19    20    1
    13    19    23    1
    14    23    24    1
    15    24    25   ar
    16    25    26   ar
    17    26    27    1
    18    26    28   ar
    19    28    29    1
    20    28    30   ar
    21    30    31   ar
    22    31    32    1
    23    10    11    1
    24    11    12    2
    25    11    13    2
    26    11    14    1
    27    14    15    1
    28    14    16    1
    29    14    17    1
    30     5     1    1
    31    31    24   ar
    32    20    21    1
    33    20    22    1
@<TRIPOS>MOLECULE
*****
 32 33 0 0 0
SMALL
GASTEIGER

@<TRIPOS>ATOM
      1 C          -9.6258  -18.4927   21.5578 C.3     1  UNL1        0.0931
      2 C         -10.1240  -19.8748   21.8607 C.3     1  UNL1        0.0230
      3 C          -9.4599  -20.3407   23.1225 C.3     1  UNL1        0.0233
      4 C          -8.5514  -19.2466   23.5994 C.3     1  UNL1        0.0934
      5 N          -8.6539  -18.1045   22.6324 N.am    1  UNL1       -0.2797
      6 C          -7.9144  -16.8027   22.7239 C.2     1  UNL1        0.2270
      7 O          -8.1196  -15.7483   21.6769 O.2     1  UNL1       -0.2748
      8 C         -10.0288  -17.6473   20.3861 C.3     1  UNL1        0.1155
      9 C         -11.5241  -15.7697   19.3918 C.3     1  UNL1        0.1149
     10 N         -11.2338  -16.7590   20.4812 N.3     1  UNL1       -0.1489
     11 S         -12.1484  -16.8602   21.6657 S.O2    1  UNL1        0.1303
     12 O         -11.3666  -15.7854   22.3613 O.2     1  UNL1       -0.1495
     13 O         -12.9302  -17.9349   20.9702 O.2     1  UNL1       -0.1495
     14 C         -13.0631  -16.9613   22.8502 C.3     1  UNL1        0.5359
     15 F         -12.9888  -18.4578   22.7798 F       1  UNL1       -0.1493
     16 F         -13.1374  -15.4647   22.9207 F       1  UNL1       -0.1493
     17 F         -13.9778  -17.0625   24.0348 F       1  UNL1       -0.1493
     18 C          -6.9696  -16.5553   23.8623 C.3     1  UNL1        0.1010
     19 C          -5.5872  -16.0398   23.5913 C.3     1  UNL1        0.0644
     20 N          -5.3977  -14.6649   23.0221 N.3     1  UNL1       -0.3215
     21 H          -6.3079  -14.2261   22.8831 H       1  UNL1        0.1188
     22 H          -4.9120  -14.7312   22.1276 H       1  UNL1        0.1188
     23 C          -4.3944  -16.8991   23.8894 C.3     1  UNL1        0.0447
     24 C          -3.5294  -17.3961   22.7692 C.ar    1  UNL1        0.0090
     25 C          -2.4687  -16.5078   22.1898 C.ar    1  UNL1        0.0300
     26 C          -1.6037  -17.0049   21.0697 C.ar    1  UNL1        0.1672
     27 F          -0.5430  -16.1165   20.4902 F       1  UNL1       -0.2018
     28 C          -1.7994  -18.3903   20.5290 C.ar    1  UNL1        0.1696
     29 F          -0.9343  -18.8874   19.4089 F       1  UNL1       -0.2017
     30 C          -2.8601  -19.2786   21.1084 C.ar    1  UNL1        0.0612
     31 C          -3.7251  -18.7816   22.2285 C.ar    1  UNL1        0.1386
     32 F          -4.7858  -19.6699   22.8080 F       1  UNL1       -0.2044
@<TRIPOS>BOND
     1     9    10    1
     2    10     8    1
     3     1     8    1
     4     1     2    1
     5     2     3    1
     6     3     4    1
     7     4     5    1
     8     5     6   am
     9     6     7    2
    10     6    18    1
    11    18    19    1
    12    19    20    1
    13    19    23    1
    14    23    24    1
    15    24    25   ar
    16    25    26   ar
    17    26    27    1
    18    26    28   ar
    19    28    29    1
    20    28    30   ar
    21    30    31   ar
    22    31    32    1
    23    10    11    1
    24    11    12    2
    25    11    13    2
    26    11    14    1
    27    14    15    1
    28    14    16    1
    29    14    17    1
    30     5     1    1
    31    31    24   ar
    32    20    21    1
    33    20    22    1
@<TRIPOS>MOLECULE
*****
 32 33 0 0 0
SMALL
GASTEIGER

@<TRIPOS>ATOM
      1 C          -5.4482  -19.1400   22.0325 C.3     1  UNL1        0.0931
      2 C          -6.0221  -20.0942   21.0275 C.3     1  UNL1        0.0230
      3 C          -7.3624  -19.5705   20.6037 C.3     1  UNL1        0.0233
      4 C          -7.6167  -18.2926   21.3469 C.3     1  UNL1        0.0934
      5 N          -6.4337  -18.0265   22.2299 N.am    1  UNL1       -0.2797
      6 C          -6.2657  -16.8531   23.1489 C.2     1  UNL1        0.2270
      7 O          -5.0211  -16.7199   23.9754 O.2     1  UNL1       -0.2748
      8 C          -4.1217  -19.2755   22.7195 C.3     1  UNL1        0.1155
      9 C          -2.1035  -17.7197   23.2265 C.3     1  UNL1        0.1149
     10 N          -2.9449  -18.4770   22.2423 N.3     1  UNL1       -0.1489
     11 S          -2.6094  -18.4360   20.7809 S.O2    1  UNL1        0.1303
     12 O          -2.8963  -16.9638   20.7563 O.2     1  UNL1       -0.1495
     13 O          -2.3225  -19.9081   20.8054 O.2     1  UNL1       -0.1495
     14 C          -2.2739  -18.3949   19.3195 C.3     1  UNL1        0.5359
     15 F          -1.2679  -17.3134   19.5808 F       1  UNL1       -0.1493
     16 F          -3.2799  -19.4765   19.0581 F       1  UNL1       -0.1493
     17 F          -1.9383  -18.3538   17.8580 F       1  UNL1       -0.1493
     18 C          -7.3424  -15.8128   23.2415 C.3     1  UNL1        0.1010
     19 C          -8.0099  -15.5392   24.5567 C.3     1  UNL1        0.0644
     20 N          -7.2822  -14.7745   25.6223 N.3     1  UNL1       -0.3215
     21 H          -6.3537  -14.5206   25.2847 H       1  UNL1        0.1188
     22 H          -7.1937  -15.3544   26.4567 H       1  UNL1        0.1188
     23 C          -9.4050  -16.0303   24.8062 C.3     1  UNL1        0.0447
     24 C          -9.9022  -17.2624   24.1099 C.ar    1  UNL1        0.0090
     25 C          -9.4068  -18.6139   24.5320 C.ar    1  UNL1        0.0300
     26 C          -9.9040  -19.8459   23.8357 C.ar    1  UNL1        0.1672
     27 F          -9.4086  -21.1975   24.2578 F       1  UNL1       -0.2018
     28 C         -10.8965  -19.7266   22.7174 C.ar    1  UNL1        0.1696
     29 F         -11.3937  -20.9587   22.0212 F       1  UNL1       -0.2017
     30 C         -11.3919  -18.3751   22.2953 C.ar    1  UNL1        0.0612
     31 C         -10.8947  -17.1431   22.9916 C.ar    1  UNL1        0.1386
     32 F         -11.3901  -15.7915   22.5695 F       1  UNL1       -0.2044
@<TRIPOS>BOND
     1     9    10    1
     2    10     8    1
     3     1     8    1
     4     1     2    1
     5     2     3    1
     6     3     4    1
     7     4     5    1
     8     5     6   am
     9     6     7    2
    10     6    18    1
    11    18    19    1
    12    19    20    1
    13    19    23    1
    14    23    24    1
    15    24    25   ar
    16    25    26   ar
    17    26    27    1
    18    26    28   ar
    19    28    29    1
    20    28    30   ar
    21    30    31   ar
    22    31    32    1
    23    10    11    1
    24    11    12    2
    25    11    13    2
    26    11    14    1
    27    14    15    1
    28    14    16    1
    29    14    17    1
    30     5     1    1
    31    31    24   ar
    32    20    21    1
    33    20    22    1
@<TRIPOS>MOLECULE
*****
 32 33 0 0 0
SMALL
GASTEIGER

@<TRIPOS>ATOM
      1 C          -4.5764  -18.1088   22.7614 C.3     1  UNL1        0.0931
      2 C          -3.9198  -16.8378   23.2125 C.3     1  UNL1        0.0230
      3 C          -4.9829  -15.9410   23.7745 C.3     1  UNL1        0.0233
      4 C          -6.2964  -16.6578   23.6708 C.3     1  UNL1        0.0934
      5 N          -6.0452  -17.9976   23.0447 N.am    1  UNL1       -0.2797
      6 C          -7.0810  -19.0426   22.7530 C.2     1  UNL1        0.2270
      7 O          -6.6783  -20.3417   22.1204 O.2     1  UNL1       -0.2748
      8 C          -3.8855  -19.2845   22.1367 C.3     1  UNL1        0.1155
      9 C          -3.9573  -19.9082   19.6156 C.3     1  UNL1        0.1149
     10 N          -3.3154  -19.1718   20.7539 N.3     1  UNL1       -0.1489
     11 S          -2.1034  -18.3226   20.5093 S.O2    1  UNL1        0.1303
     12 O          -2.9117  -17.4248   19.6200 O.2     1  UNL1       -0.1495
     13 O          -1.2950  -19.2202   21.3986 O.2     1  UNL1       -0.1495
     14 C          -0.8913  -17.4734   20.2648 C.3     1  UNL1        0.5359
     15 F          -1.5978  -16.2929   20.8628 F       1  UNL1       -0.1493
     16 F          -0.1848  -18.6538   19.6668 F       1  UNL1       -0.1493
     17 F           0.3207  -16.6240   20.0203 F       1  UNL1       -0.1493
     18 C          -8.5194  -18.7885   23.0939 C.3     1  UNL1        0.1010
     19 C          -9.4596  -19.9414   23.2861 C.3     1  UNL1        0.0644
     20 N          -9.1260  -21.0256   24.2675 N.3     1  UNL1       -0.3215
     21 H          -8.2309  -20.8192   24.7109 H       1  UNL1        0.1188
     22 H          -9.0656  -21.9192   23.7795 H       1  UNL1        0.1188
     23 C         -10.7334  -20.0101   22.4970 C.3     1  UNL1        0.0447
     24 C         -11.1950  -18.8176   21.7126 C.ar    1  UNL1        0.0090
     25 C         -11.9351  -17.7087   22.3998 C.ar    1  UNL1        0.0300
     26 C         -12.3967  -16.5163   21.6155 C.ar    1  UNL1        0.1672
     27 F         -13.1369  -15.4073   22.3027 F       1  UNL1       -0.2018
     28 C         -12.1180  -16.4329   20.1440 C.ar    1  UNL1        0.1696
     29 F         -12.5796  -15.2404   19.3597 F       1  UNL1       -0.2017
     30 C         -11.3779  -17.5418   19.4568 C.ar    1  UNL1        0.0612
     31 C         -10.9163  -18.7342   20.2411 C.ar    1  UNL1        0.1386
     32 F         -10.1761  -19.8432   19.5539 F       1  UNL1       -0.2044
@<TRIPOS>BOND
     1     9    10    1
     2    10     8    1
     3     1     8    1
     4     1     2    1
     5     2     3    1
     6     3     4    1
     7     4     5    1
     8     5     6   am
     9     6     7    2
    10     6    18    1
    11    18    19    1
    12    19    20    1
    13    19    23    1
    14    23    24    1
    15    24    25   ar
    16    25    26   ar
    17    26    27    1
    18    26    28   ar
    19    28    29    1
    20    28    30   ar
    21    30    31   ar
    22    31    32    1
    23    10    11    1
    24    11    12    2
    25    11    13    2
    26    11    14    1
    27    14    15    1
    28    14    16    1
    29    14    17    1
    30     5     1    1
    31    31    24   ar
    32    20    21    1
    33    20    22    1
@<TRIPOS>MOLECULE
*****
 32 33 0 0 0
SMALL
GASTEIGER

@<TRIPOS>ATOM
      1 C         -10.7406  -16.9997   23.2425 C.3     1  UNL1        0.0931
      2 C         -11.5895  -18.0791   23.8460 C.3     1  UNL1        0.0230
      3 C         -10.7998  -18.7320   24.9416 C.3     1  UNL1        0.0233
      4 C          -9.4627  -18.0560   25.0151 C.3     1  UNL1        0.0934
      5 N          -9.4261  -16.9854   23.9650 N.am    1  UNL1       -0.2797
      6 C          -8.2769  -16.0626   23.6864 C.2     1  UNL1        0.2270
      7 O          -8.3863  -15.0359   22.5984 O.2     1  UNL1       -0.2748
      8 C         -11.1366  -16.0937   22.1145 C.3     1  UNL1        0.1155
      9 C         -11.2624  -15.6129   19.5644 C.3     1  UNL1        0.1149
     10 N         -11.0207  -16.5674   20.6960 N.3     1  UNL1       -0.1489
     11 S         -10.6632  -17.9956   20.4090 S.O2    1  UNL1        0.1303
     12 O         -12.1174  -18.3279   20.2507 O.2     1  UNL1       -0.1495
     13 O          -9.2090  -17.6633   20.5673 O.2     1  UNL1       -0.1495
     14 C         -10.3056  -19.4238   20.1221 C.3     1  UNL1        0.5359
     15 F          -9.2319  -18.9657   19.1802 F       1  UNL1       -0.1493
     16 F         -11.3794  -19.8819   21.0640 F       1  UNL1       -0.1493
     17 F          -9.9480  -20.8520   19.8351 F       1  UNL1       -0.1493
     18 C          -7.0184  -16.1666   24.4958 C.3     1  UNL1        0.1010
     19 C          -5.6833  -16.0097   23.8301 C.3     1  UNL1        0.0644
     20 N          -5.3659  -14.7546   23.0726 N.3     1  UNL1       -0.3215
     21 H          -6.1647  -14.1216   23.1134 H       1  UNL1        0.1188
     22 H          -5.1649  -14.9862   22.0998 H       1  UNL1        0.1188
     23 C          -4.6659  -17.1080   23.9218 C.3     1  UNL1        0.0447
     24 C          -4.4470  -18.0269   22.7565 C.ar    1  UNL1        0.0090
     25 C          -5.5761  -18.8715   22.2450 C.ar    1  UNL1        0.0300
     26 C          -5.3571  -19.7903   21.0798 C.ar    1  UNL1        0.1672
     27 F          -6.4862  -20.6350   20.5681 F       1  UNL1       -0.2018
     28 C          -4.0091  -19.8645   20.4261 C.ar    1  UNL1        0.1696
     29 F          -3.7901  -20.7834   19.2608 F       1  UNL1       -0.2017
     30 C          -2.8800  -19.0199   20.9377 C.ar    1  UNL1        0.0612
     31 C          -3.0989  -18.1011   22.1029 C.ar    1  UNL1        0.1386
     32 F          -1.9698  -17.2565   22.6145 F       1  UNL1       -0.2044
@<TRIPOS>BOND
     1     9    10    1
     2    10     8    1
     3     1     8    1
     4     1     2    1
     5     2     3    1
     6     3     4    1
     7     4     5    1
     8     5     6   am
     9     6     7    2
    10     6    18    1
    11    18    19    1
    12    19    20    1
    13    19    23    1
    14    23    24    1
    15    24    25   ar
    16    25    26   ar
    17    26    27    1
    18    26    28   ar
    19    28    29    1
    20    28    30   ar
    21    30    31   ar
    22    31    32    1
    23    10    11    1
    24    11    12    2
    25    11    13    2
    26    11    14    1
    27    14    15    1
    28    14    16    1
    29    14    17    1
    30     5     1    1
    31    31    24   ar
    32    20    21    1
    33    20    22    1
@<TRIPOS>MOLECULE
*****
 32 33 0 0 0
SMALL
GASTEIGER

@<TRIPOS>ATOM
      1 C          -7.9782  -19.2677   20.0070 C.3     1  UNL1        0.0931
      2 C          -8.8037  -19.6603   18.8176 C.3     1  UNL1        0.0230
      3 C         -10.2062  -19.9085   19.2883 C.3     1  UNL1        0.0233
      4 C         -10.2474  -19.6693   20.7685 C.3     1  UNL1        0.0934
      5 N          -8.8705  -19.2732   21.2127 N.am    1  UNL1       -0.2797
      6 C          -8.4583  -18.9410   22.6161 C.2     1  UNL1        0.2270
      7 O          -7.0376  -18.5600   22.9102 O.2     1  UNL1       -0.2748
      8 C          -6.5170  -18.9290   19.9930 C.3     1  UNL1        0.1155
      9 C          -5.9401  -21.3901   20.5934 C.3     1  UNL1        0.1149
     10 N          -5.4991  -19.9859   20.3042 N.3     1  UNL1       -0.1489
     11 S          -4.0400  -19.6385   20.3261 S.O2    1  UNL1        0.1303
     12 O          -4.3377  -18.4420   21.1806 O.2     1  UNL1       -0.1495
     13 O          -3.7423  -20.8348   19.4716 O.2     1  UNL1       -0.1495
     14 C          -2.5810  -19.2910   20.3481 C.3     1  UNL1        0.5359
     15 F          -2.5180  -19.6476   21.8037 F       1  UNL1       -0.1493
     16 F          -2.6440  -18.9344   18.8924 F       1  UNL1       -0.1493
     17 F          -1.1219  -18.9436   20.3701 F       1  UNL1       -0.1493
     18 C          -9.4667  -18.9899   23.7254 C.3     1  UNL1        0.1010
     19 C         -10.5092  -17.9173   23.8391 C.3     1  UNL1        0.0644
     20 N         -11.9556  -18.2892   23.9792 N.3     1  UNL1       -0.3215
     21 H         -12.0471  -19.3050   23.9786 H       1  UNL1        0.1188
     22 H         -12.4839  -17.8997   23.1984 H       1  UNL1        0.1188
     23 C         -10.1053  -16.4730   23.8128 C.3     1  UNL1        0.0447
     24 C          -8.7853  -16.0527   24.3884 C.ar    1  UNL1        0.0090
     25 C          -8.5235  -16.2093   25.8570 C.ar    1  UNL1        0.0300
     26 C          -7.2037  -15.7890   26.4325 C.ar    1  UNL1        0.1672
     27 F          -6.9418  -15.9455   27.9012 F       1  UNL1       -0.2018
     28 C          -6.1455  -15.2122   25.5394 C.ar    1  UNL1        0.1696
     29 F          -4.8256  -14.7919   26.1149 F       1  UNL1       -0.2017
     30 C          -6.4073  -15.0557   24.0707 C.ar    1  UNL1        0.0612
     31 C          -7.7272  -15.4760   23.4952 C.ar    1  UNL1        0.1386
     32 F          -7.9890  -15.3194   22.0265 F       1  UNL1       -0.2044
@<TRIPOS>BOND
     1     9    10    1
     2    10     8    1
     3     1     8    1
     4     1     2    1
     5     2     3    1
     6     3     4    1
     7     4     5    1
     8     5     6   am
     9     6     7    2
    10     6    18    1
    11    18    19    1
    12    19    20    1
    13    19    23    1
    14    23    24    1
    15    24    25   ar
    16    25    26   ar
    17    26    27    1
    18    26    28   ar
    19    28    29    1
    20    28    30   ar
    21    30    31   ar
    22    31    32    1
    23    10    11    1
    24    11    12    2
    25    11    13    2
    26    11    14    1
    27    14    15    1
    28    14    16    1
    29    14    17    1
    30     5     1    1
    31    31    24   ar
    32    20    21    1
    33    20    22    1
@<TRIPOS>MOLECULE
*****
 32 33 0 0 0
SMALL
GASTEIGER

@<TRIPOS>ATOM
      1 C          -5.5916  -19.1647   22.2055 C.3     1  UNL1        0.0931
      2 C          -6.5655  -20.1979   21.7220 C.3     1  UNL1        0.0230
      3 C          -7.9436  -19.6115   21.8068 C.3     1  UNL1        0.0233
      4 C          -7.8212  -18.2159   22.3428 C.3     1  UNL1        0.0934
      5 N          -6.3676  -17.9397   22.5892 N.am    1  UNL1       -0.2797
      6 C          -5.7912  -16.6629   23.1252 C.2     1  UNL1        0.2270
      7 O          -4.3096  -16.5323   23.3198 O.2     1  UNL1       -0.2748
      8 C          -4.1029  -19.3278   22.2905 C.3     1  UNL1        0.1155
      9 C          -3.5139  -20.5319   20.0648 C.3     1  UNL1        0.1149
     10 N          -3.2847  -19.4120   21.0361 N.3     1  UNL1       -0.1489
     11 S          -2.2373  -18.3763   20.7529 S.O2    1  UNL1        0.1303
     12 O          -1.3145  -19.0423   21.7302 O.2     1  UNL1       -0.1495
     13 O          -3.1600  -17.7103   19.7757 O.2     1  UNL1       -0.1495
     14 C          -1.1899  -17.3406   20.4698 C.3     1  UNL1        0.5359
     15 F          -1.9145  -16.3668   21.3511 F       1  UNL1       -0.1493
     16 F          -0.4652  -18.3143   19.5885 F       1  UNL1       -0.1493
     17 F          -0.1425  -16.3048   20.1867 F       1  UNL1       -0.1493
     18 C          -6.6964  -15.5166   23.4667 C.3     1  UNL1        0.1010
     19 C          -6.9810  -15.1875   24.9023 C.3     1  UNL1        0.0644
     20 N          -5.8617  -14.7823   25.8149 N.3     1  UNL1       -0.3215
     21 H          -4.9830  -14.7841   25.2969 H       1  UNL1        0.1188
     22 H          -5.8002  -15.4414   26.5910 H       1  UNL1        0.1188
     23 C          -8.3849  -15.2636   25.4251 C.3     1  UNL1        0.0447
     24 C          -9.3680  -16.2082   24.7996 C.ar    1  UNL1        0.0090
     25 C         -10.1086  -15.8066   23.5585 C.ar    1  UNL1        0.0300
     26 C         -11.0917  -16.7512   22.9331 C.ar    1  UNL1        0.1672
     27 F         -11.8323  -16.3496   21.6920 F       1  UNL1       -0.2018
     28 C         -11.3342  -18.0974   23.5486 C.ar    1  UNL1        0.1696
     29 F         -12.3173  -19.0420   22.9231 F       1  UNL1       -0.2017
     30 C         -10.5936  -18.4990   24.7897 C.ar    1  UNL1        0.0612
     31 C          -9.6105  -17.5544   25.4151 C.ar    1  UNL1        0.1386
     32 F          -8.8698  -17.9560   26.6562 F       1  UNL1       -0.2044
@<TRIPOS>BOND
     1     9    10    1
     2    10     8    1
     3     1     8    1
     4     1     2    1
     5     2     3    1
     6     3     4    1
     7     4     5    1
     8     5     6   am
     9     6     7    2
    10     6    18    1
    11    18    19    1
    12    19    20    1
    13    19    23    1
    14    23    24    1
    15    24    25   ar
    16    25    26   ar
    17    26    27    1
    18    26    28   ar
    19    28    29    1
    20    28    30   ar
    21    30    31   ar
    22    31    32    1
    23    10    11    1
    24    11    12    2
    25    11    13    2
    26    11    14    1
    27    14    15    1
    28    14    16    1
    29    14    17    1
    30     5     1    1
    31    31    24   ar
    32    20    21    1
    33    20    22    1
