@<TRIPOS>MOLECULE
*****
 31 34 0 0 0
SMALL
GASTEIGER

@<TRIPOS>ATOM
      1 N          -6.1705  -18.1609   22.3290 N.ar    1  UNL1       -0.3048
      2 C          -7.2403  -19.2030   22.1882 C.ar    1  UNL1        0.0833
      3 C          -8.3999  -18.7958   23.0481 C.ar    1  UNL1        0.0579
      4 C          -8.0468  -17.5022   23.7204 C.ar    1  UNL1        0.0207
      5 C          -8.8020  -16.6309   24.6798 C.ar    1  UNL1        0.0016
      6 C          -8.1793  -15.3672   25.1948 C.ar    1  UNL1        0.0001
      7 C          -6.8014  -14.9748   24.7503 C.ar    1  UNL1        0.0015
      8 C          -6.0463  -15.8461   23.7909 C.ar    1  UNL1        0.0175
      9 C          -6.6690  -17.1098   23.2759 C.ar    1  UNL1        0.0641
     10 C          -2.1683  -18.1841   20.2717 C.ar    1  UNL1        0.0141
     11 C          -2.2872  -17.6683   21.6751 C.ar    1  UNL1        0.0026
     12 C          -3.6213  -17.6606   22.3609 C.ar    1  UNL1        0.0176
     13 C          -4.8365  -18.1687   21.6432 C.ar    1  UNL1        0.0640
     14 C          -4.7176  -18.6846   20.2397 C.ar    1  UNL1        0.0176
     15 C          -3.3835  -18.6923   19.5539 C.ar    1  UNL1        0.0026
     16 O           0.4174  -18.4098   20.3832 O.co2   1  UNL1       -0.5446
     17 C          -0.8343  -18.1918   19.5859 C.2     1  UNL1        0.0729
     18 O          -0.7520  -17.9815   18.1030 O.co2   1  UNL1       -0.5446
     19 C          -9.6867  -19.5499   23.2078 C.2     1  UNL1        0.1978
     20 O          -9.6704  -20.9635   23.7091 O.2     1  UNL1       -0.2865
     21 C         -10.9899  -18.8903   22.8661 C.ar    1  UNL1        0.0535
     22 C         -11.9829  -18.5859   23.9483 C.ar    1  UNL1        0.0607
     23 CL        -11.6727  -18.9412   25.3723 Cl      1  UNL1       -0.0821
     24 C         -13.2861  -17.9264   23.6068 C.ar    1  UNL1        0.0115
     25 C         -13.5962  -17.5712   22.1828 C.ar    1  UNL1        0.0008
     26 C         -12.6032  -17.8755   21.1005 C.ar    1  UNL1        0.0040
     27 C         -11.3001  -18.5351   21.4421 C.ar    1  UNL1        0.0753
     28 C         -10.3071  -18.8394   20.3599 C.3     1  UNL1        0.4187
     29 F          -9.3141  -19.1438   19.2776 F       1  UNL1       -0.1659
     30 F          -9.8141  -17.4238   20.4140 F       1  UNL1       -0.1659
     31 F         -10.8000  -20.2551   20.3057 F       1  UNL1       -0.1659
@<TRIPOS>UNITY_ATOM_ATTR
16 1
charge -1
@<TRIPOS>BOND
     1    16    17   ar
     2    17    18   ar
     3    17    10    1
     4    10    11   ar
     5    11    12   ar
     6    12    13   ar
     7    13     1    1
     8     1     2   ar
     9     2     3   ar
    10     3    19    1
    11    19    20    2
    12    19    21    1
    13    21    22   ar
    14    22    23    1
    15    22    24   ar
    16    24    25   ar
    17    25    26   ar
    18    26    27   ar
    19    27    28    1
    20    28    29    1
    21    28    30    1
    22    28    31    1
    23     3     4   ar
    24     4     5   ar
    25     5     6   ar
    26     6     7   ar
    27     7     8   ar
    28     8     9   ar
    29    13    14   ar
    30    14    15   ar
    31    15    10   ar
    32     9     1   ar
    33    27    21   ar
    34     9     4   ar
@<TRIPOS>MOLECULE
*****
 31 34 0 0 0
SMALL
GASTEIGER

@<TRIPOS>ATOM
      1 N          -6.2785  -17.9585   21.8022 N.ar    1  UNL1       -0.3048
      2 C          -7.3912  -18.7573   21.1906 C.ar    1  UNL1        0.0833
      3 C          -8.6619  -18.4048   21.9054 C.ar    1  UNL1        0.0579
      4 C          -8.3347  -17.3881   22.9587 C.ar    1  UNL1        0.0207
      5 C          -9.1877  -16.6779   23.9676 C.ar    1  UNL1        0.0016
      6 C          -8.5676  -15.6919   24.9127 C.ar    1  UNL1        0.0001
      7 C          -7.0946  -15.4161   24.8489 C.ar    1  UNL1        0.0015
      8 C          -6.2416  -16.1263   23.8400 C.ar    1  UNL1        0.0175
      9 C          -6.8616  -17.1123   22.8949 C.ar    1  UNL1        0.0641
     10 C          -1.9510  -18.0796   20.5742 C.ar    1  UNL1        0.0141
     11 C          -2.3348  -17.5298   21.9160 C.ar    1  UNL1        0.0026
     12 C          -3.7773  -17.4895   22.3253 C.ar    1  UNL1        0.0176
     13 C          -4.8360  -17.9989   21.3929 C.ar    1  UNL1        0.0640
     14 C          -4.4522  -18.5487   20.0510 C.ar    1  UNL1        0.0176
     15 C          -3.0097  -18.5890   19.6417 C.ar    1  UNL1        0.0026
     16 O           0.1063  -19.4103   19.7102 O.co2   1  UNL1       -0.5446
     17 C          -0.5084  -18.1199   20.1649 C.2     1  UNL1        0.0729
     18 O           0.3193  -16.8698   20.2104 O.co2   1  UNL1       -0.5446
     19 C         -10.0213  -18.9697   21.6175 C.2     1  UNL1        0.1978
     20 O         -10.2164  -19.9008   20.4579 O.2     1  UNL1       -0.2865
     21 C         -11.1858  -18.6033   22.4893 C.ar    1  UNL1        0.0535
     22 C         -12.1894  -17.5943   22.0153 C.ar    1  UNL1        0.0607
     23 CL        -12.0285  -16.9516   20.6695 Cl      1  UNL1       -0.0821
     24 C         -13.3538  -17.2280   22.8870 C.ar    1  UNL1        0.0115
     25 C         -13.5146  -17.8707   24.2327 C.ar    1  UNL1        0.0008
     26 C         -12.5111  -18.8798   24.7067 C.ar    1  UNL1        0.0040
     27 C         -11.3467  -19.2461   23.8350 C.ar    1  UNL1        0.0753
     28 C         -10.3431  -20.2552   24.3090 C.3     1  UNL1        0.4187
     29 F          -9.3395  -21.2642   24.7830 F       1  UNL1       -0.1659
     30 F          -9.9421  -19.3334   25.4224 F       1  UNL1       -0.1659
     31 F         -10.7441  -21.1769   23.1956 F       1  UNL1       -0.1659
@<TRIPOS>UNITY_ATOM_ATTR
16 1
charge -1
@<TRIPOS>BOND
     1    16    17   ar
     2    17    18   ar
     3    17    10    1
     4    10    11   ar
     5    11    12   ar
     6    12    13   ar
     7    13     1    1
     8     1     2   ar
     9     2     3   ar
    10     3    19    1
    11    19    20    2
    12    19    21    1
    13    21    22   ar
    14    22    23    1
    15    22    24   ar
    16    24    25   ar
    17    25    26   ar
    18    26    27   ar
    19    27    28    1
    20    28    29    1
    21    28    30    1
    22    28    31    1
    23     3     4   ar
    24     4     5   ar
    25     5     6   ar
    26     6     7   ar
    27     7     8   ar
    28     8     9   ar
    29    13    14   ar
    30    14    15   ar
    31    15    10   ar
    32     9     1   ar
    33    27    21   ar
    34     9     4   ar
@<TRIPOS>MOLECULE
*****
 31 34 0 0 0
SMALL
GASTEIGER

@<TRIPOS>ATOM
      1 N          -5.9066  -16.8138   23.1977 N.ar    1  UNL1       -0.3048
      2 C          -7.2644  -17.1260   22.6419 C.ar    1  UNL1        0.0833
      3 C          -8.2878  -16.7024   23.6534 C.ar    1  UNL1        0.0579
      4 C          -7.5625  -16.1286   24.8344 C.ar    1  UNL1        0.0207
      5 C          -8.0521  -15.5522   26.1298 C.ar    1  UNL1        0.0016
      6 C          -7.0699  -15.0447   27.1436 C.ar    1  UNL1        0.0001
      7 C          -5.5982  -15.1136   26.8619 C.ar    1  UNL1        0.0015
      8 C          -5.1087  -15.6899   25.5665 C.ar    1  UNL1        0.0175
      9 C          -6.0908  -16.1974   24.5527 C.ar    1  UNL1        0.0641
     10 C          -1.9712  -17.5905   21.1581 C.ar    1  UNL1        0.0141
     11 C          -2.2355  -16.2588   21.7960 C.ar    1  UNL1        0.0026
     12 C          -3.5473  -16.0000   22.4758 C.ar    1  UNL1        0.0176
     13 C          -4.5948  -17.0727   22.5179 C.ar    1  UNL1        0.0640
     14 C          -4.3305  -18.4044   21.8800 C.ar    1  UNL1        0.0176
     15 C          -3.0187  -18.6633   21.2002 C.ar    1  UNL1        0.0026
     16 O           0.3461  -16.7445   20.3431 O.co2   1  UNL1       -0.5446
     17 C          -0.6594  -17.8493   20.4783 C.2     1  UNL1        0.0729
     18 O          -0.3531  -19.2130   19.9336 O.co2   1  UNL1       -0.5446
     19 C          -9.7754  -16.8303   23.5094 C.2     1  UNL1        0.1978
     20 O         -10.6732  -15.7307   23.9938 O.2     1  UNL1       -0.2865
     21 C         -10.3653  -18.0580   22.8807 C.ar    1  UNL1        0.0535
     22 C         -10.3934  -19.3504   23.6415 C.ar    1  UNL1        0.0607
     23 CL         -9.8316  -19.4152   25.0309 Cl      1  UNL1       -0.0821
     24 C         -10.9832  -20.5780   23.0130 C.ar    1  UNL1        0.0115
     25 C         -11.5449  -20.5131   21.6237 C.ar    1  UNL1        0.0008
     26 C         -11.5168  -19.2207   20.8629 C.ar    1  UNL1        0.0040
     27 C         -10.9270  -17.9931   21.4914 C.ar    1  UNL1        0.0753
     28 C         -10.8989  -16.7006   20.7307 C.3     1  UNL1        0.4187
     29 F         -10.8708  -15.4082   19.9699 F       1  UNL1       -0.1659
     30 F         -12.2502  -16.3488   21.2785 F       1  UNL1       -0.1659
     31 F          -9.5476  -17.0525   20.1828 F       1  UNL1       -0.1659
@<TRIPOS>UNITY_ATOM_ATTR
16 1
charge -1
@<TRIPOS>BOND
     1    16    17   ar
     2    17    18   ar
     3    17    10    1
     4    10    11   ar
     5    11    12   ar
     6    12    13   ar
     7    13     1    1
     8     1     2   ar
     9     2     3   ar
    10     3    19    1
    11    19    20    2
    12    19    21    1
    13    21    22   ar
    14    22    23    1
    15    22    24   ar
    16    24    25   ar
    17    25    26   ar
    18    26    27   ar
    19    27    28    1
    20    28    29    1
    21    28    30    1
    22    28    31    1
    23     3     4   ar
    24     4     5   ar
    25     5     6   ar
    26     6     7   ar
    27     7     8   ar
    28     8     9   ar
    29    13    14   ar
    30    14    15   ar
    31    15    10   ar
    32     9     1   ar
    33    27    21   ar
    34     9     4   ar
@<TRIPOS>MOLECULE
*****
 31 34 0 0 0
SMALL
GASTEIGER

@<TRIPOS>ATOM
      1 N           6.8624   -4.3855   23.2273 N.ar    1  UNL1       -0.3048
      2 C           5.6069   -3.5651   23.2058 C.ar    1  UNL1        0.0833
      3 C           5.6258   -2.7212   21.9658 C.ar    1  UNL1        0.0579
      4 C           6.8930   -3.0200   21.2210 C.ar    1  UNL1        0.0207
      5 C           7.4498   -2.4884   19.9336 C.ar    1  UNL1        0.0016
      6 C           8.7708   -2.9854   19.4259 C.ar    1  UNL1        0.0001
      7 C           9.5351   -4.0140   20.2055 C.ar    1  UNL1        0.0015
      8 C           8.9784   -4.5456   21.4929 C.ar    1  UNL1        0.0175
      9 C           7.6574   -4.0486   22.0006 C.ar    1  UNL1        0.0641
     10 C           8.0382   -7.3388   26.4126 C.ar    1  UNL1        0.0141
     11 C           8.4007   -7.5967   24.9801 C.ar    1  UNL1        0.0026
     12 C           8.0088   -6.6122   23.9184 C.ar    1  UNL1        0.0176
     13 C           7.2544   -5.3699   24.2890 C.ar    1  UNL1        0.0640
     14 C           6.8918   -5.1120   25.7216 C.ar    1  UNL1        0.0176
     15 C           7.2837   -6.0965   26.7833 C.ar    1  UNL1        0.0026
     16 O           9.3673   -7.9106   28.5704 O.co2   1  UNL1       -0.5446
     17 C           8.4301   -8.3232   27.4743 C.2     1  UNL1        0.0729
     18 O           7.8848   -9.7201   27.4400 O.co2   1  UNL1       -0.5446
     19 C           4.5639   -1.7492   21.5446 C.2     1  UNL1        0.1978
     20 O           3.4063   -1.4621   22.4543 O.2     1  UNL1       -0.2865
     21 C           4.6595   -1.0641   20.2136 C.ar    1  UNL1        0.0535
     22 C           5.2581    0.3080   20.1176 C.ar    1  UNL1        0.0607
     23 CL          5.7610    0.9949   21.3526 Cl      1  UNL1       -0.0821
     24 C           5.3538    0.9931   18.7866 C.ar    1  UNL1        0.0115
     25 C           4.8509    0.3061   17.5517 C.ar    1  UNL1        0.0008
     26 C           4.2523   -1.0659   17.6477 C.ar    1  UNL1        0.0040
     27 C           4.1566   -1.7510   18.9786 C.ar    1  UNL1        0.0753
     28 C           3.5581   -3.1231   19.0746 C.3     1  UNL1        0.4187
     29 F           2.9595   -4.4951   19.1706 F       1  UNL1       -0.1659
     30 F           4.7947   -3.7057   18.4571 F       1  UNL1       -0.1659
     31 F           2.3215   -2.5404   19.6921 F       1  UNL1       -0.1659
@<TRIPOS>UNITY_ATOM_ATTR
16 1
charge -1
@<TRIPOS>BOND
     1    16    17   ar
     2    17    18   ar
     3    17    10    1
     4    10    11   ar
     5    11    12   ar
     6    12    13   ar
     7    13     1    1
     8     1     2   ar
     9     2     3   ar
    10     3    19    1
    11    19    20    2
    12    19    21    1
    13    21    22   ar
    14    22    23    1
    15    22    24   ar
    16    24    25   ar
    17    25    26   ar
    18    26    27   ar
    19    27    28    1
    20    28    29    1
    21    28    30    1
    22    28    31    1
    23     3     4   ar
    24     4     5   ar
    25     5     6   ar
    26     6     7   ar
    27     7     8   ar
    28     8     9   ar
    29    13    14   ar
    30    14    15   ar
    31    15    10   ar
    32     9     1   ar
    33    27    21   ar
    34     9     4   ar
@<TRIPOS>MOLECULE
*****
 31 34 0 0 0
SMALL
GASTEIGER

@<TRIPOS>ATOM
      1 N           0.4516    1.8281   20.6080 N.ar    1  UNL1       -0.3048
      2 C          -0.4118    2.7850   19.8406 C.ar    1  UNL1        0.0833
      3 C          -1.2375    3.5571   20.8264 C.ar    1  UNL1        0.0579
      4 C          -0.8845    3.0774   22.2031 C.ar    1  UNL1        0.0207
      5 C          -1.3787    3.4757   23.5622 C.ar    1  UNL1        0.0016
      6 C          -0.8290    2.8053   24.7862 C.ar    1  UNL1        0.0001
      7 C           0.2150    1.7367   24.6512 C.ar    1  UNL1        0.0015
      8 C           0.7092    1.3385   23.2922 C.ar    1  UNL1        0.0175
      9 C           0.1595    2.0089   22.0681 C.ar    1  UNL1        0.0641
     10 C           3.4007   -1.0752   18.8403 C.ar    1  UNL1        0.0141
     11 C           3.3090    0.3219   18.3022 C.ar    1  UNL1        0.0026
     12 C           2.3260    1.2897   18.8914 C.ar    1  UNL1        0.0176
     13 C           1.4347    0.8604   20.0188 C.ar    1  UNL1        0.0640
     14 C           1.5263   -0.5368   20.5570 C.ar    1  UNL1        0.0176
     15 C           2.5093   -1.5046   19.9677 C.ar    1  UNL1        0.0026
     16 O           5.3811   -1.5729   17.2342 O.co2   1  UNL1       -0.5446
     17 C           4.3837   -2.0429   18.2511 C.2     1  UNL1        0.0729
     18 O           4.3692   -3.4806   18.6788 O.co2   1  UNL1       -0.5446
     19 C          -2.2403    4.6219   20.4940 C.2     1  UNL1        0.1978
     20 O          -1.9420    6.0577   20.8089 O.2     1  UNL1       -0.2865
     21 C          -3.5416    4.2509   19.8465 C.ar    1  UNL1        0.0535
     22 C          -3.6214    4.0988   18.3563 C.ar    1  UNL1        0.0607
     23 CL         -2.3998    4.3179   17.5137 Cl      1  UNL1       -0.0821
     24 C          -4.9225    3.7278   17.7088 C.ar    1  UNL1        0.0115
     25 C          -6.1439    3.5088   18.5515 C.ar    1  UNL1        0.0008
     26 C          -6.0642    3.6608   20.0417 C.ar    1  UNL1        0.0040
     27 C          -4.7630    4.0319   20.6892 C.ar    1  UNL1        0.0753
     28 C          -4.6833    4.1839   22.1793 C.3     1  UNL1        0.4187
     29 F          -4.6035    4.3359   23.6694 F       1  UNL1       -0.1659
     30 F          -4.4286    2.7120   22.3158 F       1  UNL1       -0.1659
     31 F          -4.9379    5.6558   22.0428 F       1  UNL1       -0.1659
@<TRIPOS>UNITY_ATOM_ATTR
16 1
charge -1
@<TRIPOS>BOND
     1    16    17   ar
     2    17    18   ar
     3    17    10    1
     4    10    11   ar
     5    11    12   ar
     6    12    13   ar
     7    13     1    1
     8     1     2   ar
     9     2     3   ar
    10     3    19    1
    11    19    20    2
    12    19    21    1
    13    21    22   ar
    14    22    23    1
    15    22    24   ar
    16    24    25   ar
    17    25    26   ar
    18    26    27   ar
    19    27    28    1
    20    28    29    1
    21    28    30    1
    22    28    31    1
    23     3     4   ar
    24     4     5   ar
    25     5     6   ar
    26     6     7   ar
    27     7     8   ar
    28     8     9   ar
    29    13    14   ar
    30    14    15   ar
    31    15    10   ar
    32     9     1   ar
    33    27    21   ar
    34     9     4   ar
@<TRIPOS>MOLECULE
*****
 31 34 0 0 0
SMALL
GASTEIGER

@<TRIPOS>ATOM
      1 N           0.0040    1.9089   22.6964 N.ar    1  UNL1       -0.3048
      2 C          -0.8060    3.0001   22.0614 C.ar    1  UNL1        0.0833
      3 C          -1.5739    3.6976   23.1449 C.ar    1  UNL1        0.0579
      4 C          -1.2386    3.0374   24.4494 C.ar    1  UNL1        0.0207
      5 C          -1.6953    3.3001   25.8538 C.ar    1  UNL1        0.0016
      6 C          -1.1767    2.4572   26.9810 C.ar    1  UNL1        0.0001
      7 C          -0.2015    1.3517   26.7038 C.ar    1  UNL1        0.0015
      8 C           0.2552    1.0891   25.2994 C.ar    1  UNL1        0.0175
      9 C          -0.2634    1.9319   24.1722 C.ar    1  UNL1        0.0641
     10 C           2.7534   -0.9348   20.5506 C.ar    1  UNL1        0.0141
     11 C           1.3496   -0.7358   20.0610 C.ar    1  UNL1        0.0026
     12 C           0.4331    0.2121   20.7763 C.ar    1  UNL1        0.0176
     13 C           0.9204    0.9610   21.9811 C.ar    1  UNL1        0.0640
     14 C           2.3244    0.7620   22.4706 C.ar    1  UNL1        0.0176
     15 C           3.2408   -0.1858   21.7554 C.ar    1  UNL1        0.0026
     16 O           5.0954   -1.4950   19.5753 O.co2   1  UNL1       -0.5446
     17 C           3.6699   -1.8827   19.8353 C.2     1  UNL1        0.0729
     18 O           3.1608   -3.2182   19.3800 O.co2   1  UNL1       -0.5446
     19 C          -2.5125    4.8525   22.9568 C.2     1  UNL1        0.1978
     20 O          -2.2040    6.1795   23.5842 O.2     1  UNL1       -0.2865
     21 C          -3.7597    4.6803   22.1413 C.ar    1  UNL1        0.0535
     22 C          -3.7440    4.9867   20.6730 C.ar    1  UNL1        0.0607
     23 CL         -2.4810    5.4653   20.0203 Cl      1  UNL1       -0.0821
     24 C          -4.9910    4.8146   19.8575 C.ar    1  UNL1        0.0115
     25 C          -6.2539    4.3360   20.5103 C.ar    1  UNL1        0.0008
     26 C          -6.2696    4.0295   21.9786 C.ar    1  UNL1        0.0040
     27 C          -5.0225    4.2017   22.7941 C.ar    1  UNL1        0.0753
     28 C          -5.0383    3.8952   24.2624 C.3     1  UNL1        0.4187
     29 F          -5.0540    3.5888   25.7306 F       1  UNL1       -0.1659
     30 F          -4.7141    2.4609   23.9665 F       1  UNL1       -0.1659
     31 F          -5.3624    5.3296   24.5582 F       1  UNL1       -0.1659
@<TRIPOS>UNITY_ATOM_ATTR
16 1
charge -1
@<TRIPOS>BOND
     1    16    17   ar
     2    17    18   ar
     3    17    10    1
     4    10    11   ar
     5    11    12   ar
     6    12    13   ar
     7    13     1    1
     8     1     2   ar
     9     2     3   ar
    10     3    19    1
    11    19    20    2
    12    19    21    1
    13    21    22   ar
    14    22    23    1
    15    22    24   ar
    16    24    25   ar
    17    25    26   ar
    18    26    27   ar
    19    27    28    1
    20    28    29    1
    21    28    30    1
    22    28    31    1
    23     3     4   ar
    24     4     5   ar
    25     5     6   ar
    26     6     7   ar
    27     7     8   ar
    28     8     9   ar
    29    13    14   ar
    30    14    15   ar
    31    15    10   ar
    32     9     1   ar
    33    27    21   ar
    34     9     4   ar
@<TRIPOS>MOLECULE
*****
 31 34 0 0 0
SMALL
GASTEIGER

@<TRIPOS>ATOM
      1 N           6.1569   -3.4820   24.7334 N.ar    1  UNL1       -0.3048
      2 C           6.7790   -4.0833   23.5082 C.ar    1  UNL1        0.0833
      3 C           6.1418   -3.4507   22.3067 C.ar    1  UNL1        0.0579
      4 C           5.1258   -2.4583   22.7893 C.ar    1  UNL1        0.0207
      5 C           4.1933   -1.5396   22.0569 C.ar    1  UNL1        0.0016
      6 C           3.2702   -0.6402   22.8243 C.ar    1  UNL1        0.0001
      7 C           3.2796   -0.6596   24.3242 C.ar    1  UNL1        0.0015
      8 C           4.2120   -1.5783   25.0566 C.ar    1  UNL1        0.0175
      9 C           5.1351   -2.4777   24.2892 C.ar    1  UNL1        0.0641
     10 C           7.1766   -4.5103   28.9941 C.ar    1  UNL1        0.0141
     11 C           6.8769   -5.6021   28.0101 C.ar    1  UNL1        0.0026
     12 C           6.5370   -5.2593   26.5899 C.ar    1  UNL1        0.0176
     13 C           6.4968   -3.8248   26.1536 C.ar    1  UNL1        0.0640
     14 C           6.7964   -2.7329   27.1376 C.ar    1  UNL1        0.0176
     15 C           7.1363   -3.0757   28.5578 C.ar    1  UNL1        0.0026
     16 O           8.4694   -3.9898   31.1866 O.co2   1  UNL1       -0.5446
     17 C           7.5165   -4.8530   30.4143 C.2     1  UNL1        0.0729
     18 O           6.9034   -6.0591   31.0621 O.co2   1  UNL1       -0.5446
     19 C           6.4640   -3.7566   20.8740 C.2     1  UNL1        0.1978
     20 O           7.0933   -5.0686   20.5104 O.2     1  UNL1       -0.2865
     21 C           6.1567   -2.7503   19.8047 C.ar    1  UNL1        0.0535
     22 C           7.0726   -1.5822   19.5887 C.ar    1  UNL1        0.0607
     23 CL          8.2957   -1.4204   20.4419 Cl      1  UNL1       -0.0821
     24 C           6.7654   -0.5760   18.5196 C.ar    1  UNL1        0.0115
     25 C           5.5423   -0.7379   17.6664 C.ar    1  UNL1        0.0008
     26 C           4.6265   -1.9060   17.8825 C.ar    1  UNL1        0.0040
     27 C           4.9336   -2.9122   18.9516 C.ar    1  UNL1        0.0753
     28 C           4.0178   -4.0803   19.1676 C.3     1  UNL1        0.4187
     29 F           3.1019   -5.2485   19.3837 F       1  UNL1       -0.1659
     30 F           4.9051   -4.9344   18.3114 F       1  UNL1       -0.1659
     31 F           3.1304   -3.2263   20.0239 F       1  UNL1       -0.1659
@<TRIPOS>UNITY_ATOM_ATTR
16 1
charge -1
@<TRIPOS>BOND
     1    16    17   ar
     2    17    18   ar
     3    17    10    1
     4    10    11   ar
     5    11    12   ar
     6    12    13   ar
     7    13     1    1
     8     1     2   ar
     9     2     3   ar
    10     3    19    1
    11    19    20    2
    12    19    21    1
    13    21    22   ar
    14    22    23    1
    15    22    24   ar
    16    24    25   ar
    17    25    26   ar
    18    26    27   ar
    19    27    28    1
    20    28    29    1
    21    28    30    1
    22    28    31    1
    23     3     4   ar
    24     4     5   ar
    25     5     6   ar
    26     6     7   ar
    27     7     8   ar
    28     8     9   ar
    29    13    14   ar
    30    14    15   ar
    31    15    10   ar
    32     9     1   ar
    33    27    21   ar
    34     9     4   ar
@<TRIPOS>MOLECULE
*****
 31 34 0 0 0
SMALL
GASTEIGER

@<TRIPOS>ATOM
      1 N           3.8393   -0.4901   31.7359 N.ar    1  UNL1       -0.3048
      2 C           2.7920   -0.1266   30.7255 C.ar    1  UNL1        0.0833
      3 C           1.9667    0.9893   31.2944 C.ar    1  UNL1        0.0579
      4 C           2.5040    1.3155   32.6564 C.ar    1  UNL1        0.0207
      5 C           2.0889    2.3269   33.6833 C.ar    1  UNL1        0.0016
      6 C           2.8311    2.4239   34.9831 C.ar    1  UNL1        0.0001
      7 C           3.9884    1.5095   35.2560 C.ar    1  UNL1        0.0015
      8 C           4.4035    0.4981   34.2291 C.ar    1  UNL1        0.0175
      9 C           3.6613    0.4011   32.9292 C.ar    1  UNL1        0.0641
     10 C           6.9663   -3.6924   31.2693 C.ar    1  UNL1        0.0141
     11 C           6.7712   -2.6714   30.1879 C.ar    1  UNL1        0.0026
     12 C           5.7288   -1.6040   30.3435 C.ar    1  UNL1        0.0176
     13 C           4.8816   -1.5576   31.5803 C.ar    1  UNL1        0.0640
     14 C           5.0767   -2.5787   32.6618 C.ar    1  UNL1        0.0176
     15 C           6.1190   -3.6461   32.5062 C.ar    1  UNL1        0.0026
     16 O           7.6558   -6.0629   30.4599 O.co2   1  UNL1       -0.5446
     17 C           8.0086   -4.7598   31.1137 C.2     1  UNL1        0.0729
     18 O           9.4036   -4.5242   31.6119 O.co2   1  UNL1       -0.5446
     19 C           0.8077    1.6612   30.6197 C.2     1  UNL1        0.1978
     20 O          -0.4515    1.9347   31.3876 O.2     1  UNL1       -0.2865
     21 C           0.9078    2.0598   29.1770 C.ar    1  UNL1        0.0535
     22 C           1.7305    3.2505   28.7832 C.ar    1  UNL1        0.0607
     23 CL          2.4532    4.0428   29.8321 Cl      1  UNL1       -0.0821
     24 C           1.8307    3.6491   27.3406 C.ar    1  UNL1        0.0115
     25 C           1.1080    2.8568   26.2918 C.ar    1  UNL1        0.0008
     26 C           0.2853    1.6660   26.6856 C.ar    1  UNL1        0.0040
     27 C           0.1851    1.2674   28.1282 C.ar    1  UNL1        0.0753
     28 C          -0.6376    0.0767   28.5220 C.3     1  UNL1        0.4187
     29 F          -1.4604   -1.1141   28.9158 F       1  UNL1       -0.1659
     30 F           0.5962   -0.7764   28.5202 F       1  UNL1       -0.1659
     31 F          -1.8714    0.9297   28.5237 F       1  UNL1       -0.1659
@<TRIPOS>UNITY_ATOM_ATTR
16 1
charge -1
@<TRIPOS>BOND
     1    16    17   ar
     2    17    18   ar
     3    17    10    1
     4    10    11   ar
     5    11    12   ar
     6    12    13   ar
     7    13     1    1
     8     1     2   ar
     9     2     3   ar
    10     3    19    1
    11    19    20    2
    12    19    21    1
    13    21    22   ar
    14    22    23    1
    15    22    24   ar
    16    24    25   ar
    17    25    26   ar
    18    26    27   ar
    19    27    28    1
    20    28    29    1
    21    28    30    1
    22    28    31    1
    23     3     4   ar
    24     4     5   ar
    25     5     6   ar
    26     6     7   ar
    27     7     8   ar
    28     8     9   ar
    29    13    14   ar
    30    14    15   ar
    31    15    10   ar
    32     9     1   ar
    33    27    21   ar
    34     9     4   ar
@<TRIPOS>MOLECULE
*****
 31 34 0 0 0
SMALL
GASTEIGER

@<TRIPOS>ATOM
      1 N           3.0696   -0.6668   23.8960 N.ar    1  UNL1       -0.3048
      2 C           1.8589    0.2016   24.0696 C.ar    1  UNL1        0.0833
      3 C           1.8475    0.7037   25.4830 C.ar    1  UNL1        0.0579
      4 C           3.0511    0.1457   26.1829 C.ar    1  UNL1        0.0207
      5 C           3.5569    0.2994   27.5866 C.ar    1  UNL1        0.0016
      6 C           4.8180   -0.3938   28.0095 C.ar    1  UNL1        0.0001
      7 C           5.5734   -1.2408   27.0287 C.ar    1  UNL1        0.0015
      8 C           5.0676   -1.3946   25.6250 C.ar    1  UNL1        0.0175
      9 C           3.8065   -0.7013   25.2021 C.ar    1  UNL1        0.0641
     10 C           4.2790   -2.7947   20.1198 C.ar    1  UNL1        0.0141
     11 C           4.6566   -3.3639   21.4552 C.ar    1  UNL1        0.0026
     12 C           4.2534   -2.6546   22.7139 C.ar    1  UNL1        0.0176
     13 C           3.4728   -1.3761   22.6373 C.ar    1  UNL1        0.0640
     14 C           3.0952   -0.8069   21.3017 C.ar    1  UNL1        0.0176
     15 C           3.4983   -1.5162   20.0430 C.ar    1  UNL1        0.0026
     16 O           4.4416   -4.9779   18.7209 O.co2   1  UNL1       -0.5446
     17 C           4.6822   -3.5040   18.8610 C.2     1  UNL1        0.0729
     18 O           5.3258   -2.7394   17.7425 O.co2   1  UNL1       -0.5446
     19 C           0.8139    1.6055   26.0899 C.2     1  UNL1        0.1978
     20 O          -0.4181    1.9640   25.3130 O.2     1  UNL1       -0.2865
     21 C           1.0123    2.1489   27.4740 C.ar    1  UNL1        0.0535
     22 C           1.8673    3.3627   27.6877 C.ar    1  UNL1        0.0607
     23 CL          2.5239    4.0331   26.5174 Cl      1  UNL1       -0.0821
     24 C           2.0657    3.9061   29.0716 C.ar    1  UNL1        0.0115
     25 C           1.4091    3.2357   30.2418 C.ar    1  UNL1        0.0008
     26 C           0.5541    2.0219   30.0281 C.ar    1  UNL1        0.0040
     27 C           0.3557    1.4785   28.6442 C.ar    1  UNL1        0.0753
     28 C          -0.4993    0.2647   28.4304 C.3     1  UNL1        0.4187
     29 F          -1.3543   -0.9490   28.2167 F       1  UNL1       -0.1659
     30 F          -1.6844    1.1458   28.1674 F       1  UNL1       -0.1659
     31 F           0.6858   -0.6164   28.6935 F       1  UNL1       -0.1659
@<TRIPOS>UNITY_ATOM_ATTR
16 1
charge -1
@<TRIPOS>BOND
     1    16    17   ar
     2    17    18   ar
     3    17    10    1
     4    10    11   ar
     5    11    12   ar
     6    12    13   ar
     7    13     1    1
     8     1     2   ar
     9     2     3   ar
    10     3    19    1
    11    19    20    2
    12    19    21    1
    13    21    22   ar
    14    22    23    1
    15    22    24   ar
    16    24    25   ar
    17    25    26   ar
    18    26    27   ar
    19    27    28    1
    20    28    29    1
    21    28    30    1
    22    28    31    1
    23     3     4   ar
    24     4     5   ar
    25     5     6   ar
    26     6     7   ar
    27     7     8   ar
    28     8     9   ar
    29    13    14   ar
    30    14    15   ar
    31    15    10   ar
    32     9     1   ar
    33    27    21   ar
    34     9     4   ar
