@<TRIPOS>MOLECULE
*****
 30 34 0 0 0
SMALL
GASTEIGER

@<TRIPOS>ATOM
      1 N         -12.8325   -2.8366   18.8483 N.3     1  UNL1       -0.2659
      2 C         -13.2841   -3.5402   20.0937 C.3     1  UNL1        0.0941
      3 C         -14.0445   -4.8292   19.9931 C.3     1  UNL1        0.1096
      4 N         -14.3534   -5.4146   18.6470 N.pl3   1  UNL1       -0.2882
      5 C         -13.9019   -4.7111   17.4016 C.3     1  UNL1        0.1096
      6 C         -13.1414   -3.4221   17.5023 C.3     1  UNL1        0.0941
      7 C         -15.1139   -6.7037   18.5464 C.ar    1  UNL1        0.1635
      8 N         -16.5964   -6.6841   18.3192 N.ar    1  UNL1       -0.2247
      9 C         -17.3569   -7.9731   18.2186 C.ar    1  UNL1        0.1195
     10 C         -18.8395   -7.9535   17.9914 C.ar    1  UNL1        0.1195
     11 N         -19.5999   -9.2425   17.8908 N.ar    1  UNL1       -0.2406
     12 C         -18.8777  -10.5512   18.0174 C.ar    1  UNL1        0.1005
     13 C         -17.3952  -10.5708   18.2446 C.ar    1  UNL1        0.0414
     14 C         -16.6348   -9.2818   18.3452 C.ar    1  UNL1        0.1035
     15 N         -15.1522   -9.3013   18.5725 N.ar    1  UNL1       -0.2264
     16 C         -14.3918   -8.0123   18.6731 C.ar    1  UNL1        0.1603
     17 N         -12.9092   -8.0319   18.9003 N.pl3   1  UNL1       -0.3175
     18 H         -12.5496   -8.2798   19.7826 H       1  UNL1        0.1482
     19 C         -11.9744   -7.6737   17.7832 C.3     1  UNL1        0.0706
     20 C         -10.7141   -7.0163   17.3043 C.3     1  UNL1        0.0212
     21 C         -11.6158   -7.7107   16.3272 C.3     1  UNL1        0.0212
     22 C         -12.0720   -1.5476   18.9489 C.3     1  UNL1        0.1015
     23 F         -14.1531    3.3829   16.2361 F       1  UNL1       -0.2041
     24 C         -13.6328    2.1503   16.9143 C.ar    1  UNL1        0.1424
     25 C         -14.5030    1.4015   17.8797 C.ar    1  UNL1        0.0295
     26 C         -13.9828    0.1689   18.5579 C.ar    1  UNL1        0.0016
     27 C         -12.5923   -0.3150   18.2707 C.ar    1  UNL1        0.0215
     28 C         -11.7221    0.4338   17.3054 C.ar    1  UNL1        0.1397
     29 F         -10.3316   -0.0500   17.0182 F       1  UNL1       -0.2044
     30 C         -12.2423    1.6665   16.6271 C.ar    1  UNL1        0.0590
@<TRIPOS>BOND
     1    23    24    1
     2    24    25   ar
     3    25    26   ar
     4    26    27   ar
     5    27    22    1
     6    22     1    1
     7     1     2    1
     8     2     3    1
     9     3     4    1
    10     4     7    1
    11     7     8   ar
    12     8     9   ar
    13     9    10   ar
    14    10    11   ar
    15    11    12   ar
    16    12    13   ar
    17    13    14   ar
    18    14    15   ar
    19    15    16   ar
    20    16    17    1
    21    17    19    1
    22    19    20    1
    23    20    21    1
    24     4     5    1
    25     5     6    1
    26    27    28   ar
    27    28    29    1
    28    28    30   ar
    29    30    24   ar
    30     6     1    1
    31    16     7   ar
    32    21    19    1
    33    14     9   ar
    34    17    18    1
@<TRIPOS>MOLECULE
*****
 30 34 0 0 0
SMALL
GASTEIGER

@<TRIPOS>ATOM
      1 N           6.8583   -4.1714   22.3225 N.3     1  UNL1       -0.2659
      2 C           7.9561   -4.8530   23.0841 C.3     1  UNL1        0.0941
      3 C           7.9468   -4.8425   24.5840 C.3     1  UNL1        0.1096
      4 N           6.8396   -4.1503   25.3223 N.pl3   1  UNL1       -0.2882
      5 C           5.7418   -3.4687   24.5607 C.3     1  UNL1        0.1096
      6 C           5.7511   -3.4792   23.0608 C.3     1  UNL1        0.0941
      7 C           6.8303   -4.1398   26.8223 C.ar    1  UNL1        0.1635
      8 N           7.0038   -2.8479   27.5644 N.ar    1  UNL1       -0.2247
      9 C           6.9945   -2.8374   29.0644 C.ar    1  UNL1        0.1195
     10 C           7.1680   -1.5454   29.8064 C.ar    1  UNL1        0.1195
     11 N           7.1586   -1.5350   31.3063 N.ar    1  UNL1       -0.2406
     12 C           6.9758   -2.8165   32.0642 C.ar    1  UNL1        0.1005
     13 C           6.8023   -4.1084   31.3221 C.ar    1  UNL1        0.0414
     14 C           6.8116   -4.1189   29.8222 C.ar    1  UNL1        0.1035
     15 N           6.6381   -5.4109   29.0801 N.ar    1  UNL1       -0.2264
     16 C           6.6474   -5.4213   27.5802 C.ar    1  UNL1        0.1603
     17 N           6.4739   -6.7133   26.8380 N.pl3   1  UNL1       -0.3175
     18 H           5.6215   -6.9113   26.3870 H       1  UNL1        0.1482
     19 C           7.5992   -7.7037   26.7831 C.3     1  UNL1        0.0706
     20 C           8.2920   -8.9145   27.3343 C.3     1  UNL1        0.0212
     21 C           8.8553   -8.2081   26.1369 C.3     1  UNL1        0.0212
     22 C           6.8676   -4.1819   20.8225 C.3     1  UNL1        0.1015
     23 F           3.2470   -0.4944   17.7741 F       1  UNL1       -0.2041
     24 C           4.1521   -1.4163   18.5362 C.ar    1  UNL1        0.1424
     25 C           5.5981   -1.0632   18.7221 C.ar    1  UNL1        0.0295
     26 C           6.5033   -1.9851   19.4842 C.ar    1  UNL1        0.0016
     27 C           5.9625   -3.2600   20.0604 C.ar    1  UNL1        0.0215
     28 C           4.5166   -3.6132   19.8745 C.ar    1  UNL1        0.1397
     29 F           3.9758   -4.8881   20.4507 F       1  UNL1       -0.2044
     30 C           3.6114   -2.6913   19.1124 C.ar    1  UNL1        0.0590
@<TRIPOS>BOND
     1    23    24    1
     2    24    25   ar
     3    25    26   ar
     4    26    27   ar
     5    27    22    1
     6    22     1    1
     7     1     2    1
     8     2     3    1
     9     3     4    1
    10     4     7    1
    11     7     8   ar
    12     8     9   ar
    13     9    10   ar
    14    10    11   ar
    15    11    12   ar
    16    12    13   ar
    17    13    14   ar
    18    14    15   ar
    19    15    16   ar
    20    16    17    1
    21    17    19    1
    22    19    20    1
    23    20    21    1
    24     4     5    1
    25     5     6    1
    26    27    28   ar
    27    28    29    1
    28    28    30   ar
    29    30    24   ar
    30     6     1    1
    31    16     7   ar
    32    21    19    1
    33    14     9   ar
    34    17    18    1
@<TRIPOS>MOLECULE
*****
 30 34 0 0 0
SMALL
GASTEIGER

@<TRIPOS>ATOM
      1 N           7.2561   -2.9734   23.3267 N.3     1  UNL1       -0.2659
      2 C           7.6428   -1.7798   22.5048 C.3     1  UNL1        0.0941
      3 C           6.6083   -1.0657   21.6864 C.3     1  UNL1        0.1096
      4 N           5.1871   -1.5452   21.6899 N.pl3   1  UNL1       -0.2882
      5 C           4.8003   -2.7388   22.5119 C.3     1  UNL1        0.1096
      6 C           5.8348   -3.4529   23.3303 C.3     1  UNL1        0.0941
      7 C           4.1525   -0.8311   20.8715 C.ar    1  UNL1        0.1635
      8 N           3.3170    0.2477   21.4943 N.ar    1  UNL1       -0.2247
      9 C           2.2824    0.9619   20.6759 C.ar    1  UNL1        0.1195
     10 C           1.4469    2.0407   21.2987 C.ar    1  UNL1        0.1195
     11 N           0.4124    2.7548   20.4803 N.ar    1  UNL1       -0.2406
     12 C           0.2135    2.3901   19.0389 C.ar    1  UNL1        0.1005
     13 C           1.0491    1.3113   18.4161 C.ar    1  UNL1        0.0414
     14 C           2.0835    0.5972   19.2345 C.ar    1  UNL1        0.1035
     15 N           2.9191   -0.4817   18.6117 N.ar    1  UNL1       -0.2264
     16 C           3.9536   -1.1958   19.4301 C.ar    1  UNL1        0.1603
     17 N           4.7892   -2.2747   18.8073 N.pl3   1  UNL1       -0.3175
     18 H           5.6071   -2.0398   18.3122 H       1  UNL1        0.1482
     19 C           4.3786   -3.7114   18.9387 C.3     1  UNL1        0.0706
     20 C           4.6583   -5.1680   18.7154 C.3     1  UNL1        0.0212
     21 C           3.3876   -4.7431   19.3898 C.3     1  UNL1        0.0212
     22 C           8.2906   -3.6875   24.1452 C.3     1  UNL1        0.1015
     23 F           6.9728   -8.9422   26.7243 F       1  UNL1       -0.2041
     24 C           7.3022   -7.6285   26.0795 C.ar    1  UNL1        0.1424
     25 C           8.1039   -7.5952   24.8121 C.ar    1  UNL1        0.0295
     26 C           8.4334   -6.2816   24.1673 C.ar    1  UNL1        0.0016
     27 C           7.9612   -5.0012   24.7899 C.ar    1  UNL1        0.0215
     28 C           7.1595   -5.0344   26.0573 C.ar    1  UNL1        0.1397
     29 F           6.6873   -3.7540   26.6799 F       1  UNL1       -0.2044
     30 C           6.8300   -6.3481   26.7021 C.ar    1  UNL1        0.0590
@<TRIPOS>BOND
     1    23    24    1
     2    24    25   ar
     3    25    26   ar
     4    26    27   ar
     5    27    22    1
     6    22     1    1
     7     1     2    1
     8     2     3    1
     9     3     4    1
    10     4     7    1
    11     7     8   ar
    12     8     9   ar
    13     9    10   ar
    14    10    11   ar
    15    11    12   ar
    16    12    13   ar
    17    13    14   ar
    18    14    15   ar
    19    15    16   ar
    20    16    17    1
    21    17    19    1
    22    19    20    1
    23    20    21    1
    24     4     5    1
    25     5     6    1
    26    27    28   ar
    27    28    29    1
    28    28    30   ar
    29    30    24   ar
    30     6     1    1
    31    16     7   ar
    32    21    19    1
    33    14     9   ar
    34    17    18    1
@<TRIPOS>MOLECULE
*****
 30 34 0 0 0
SMALL
GASTEIGER

@<TRIPOS>ATOM
      1 N           4.2272   -0.1942   23.2964 N.3     1  UNL1       -0.2659
      2 C           4.1615    1.0304   24.1601 C.3     1  UNL1        0.0941
      3 C           4.0897    0.8928   25.6521 C.3     1  UNL1        0.1096
      4 N           4.0836   -0.4693   26.2803 N.pl3   1  UNL1       -0.2882
      5 C           4.1492   -1.6938   25.4165 C.3     1  UNL1        0.1096
      6 C           4.2210   -1.5563   23.9246 C.3     1  UNL1        0.0941
      7 C           4.0118   -0.6068   27.7723 C.ar    1  UNL1        0.1635
      8 N           5.2576   -0.8825   28.5608 N.ar    1  UNL1       -0.2247
      9 C           5.1859   -1.0200   30.0528 C.ar    1  UNL1        0.1195
     10 C           6.4317   -1.2957   30.8414 C.ar    1  UNL1        0.1195
     11 N           6.3599   -1.4332   32.3333 N.ar    1  UNL1       -0.2406
     12 C           5.0422   -1.2950   33.0367 C.ar    1  UNL1        0.1005
     13 C           3.7964   -1.0192   32.2481 C.ar    1  UNL1        0.0414
     14 C           3.8682   -0.8818   30.7562 C.ar    1  UNL1        0.1035
     15 N           2.6224   -0.6060   29.9676 N.ar    1  UNL1       -0.2264
     16 C           2.6942   -0.4685   28.4756 C.ar    1  UNL1        0.1603
     17 N           1.4483   -0.1928   27.6870 N.pl3   1  UNL1       -0.3175
     18 H           1.4943   -0.1097   26.7071 H       1  UNL1        0.1482
     19 C           0.1324   -0.0437   28.3914 C.3     1  UNL1        0.0706
     20 C          -1.1940   -0.6124   28.8000 C.3     1  UNL1        0.0212
     21 C          -0.8202    0.7833   29.2028 C.3     1  UNL1        0.0212
     22 C           4.2989   -0.0567   21.8044 C.3     1  UNL1        0.1015
     23 F           4.8021   -4.9450   18.3619 F       1  UNL1       -0.2041
     24 C           4.6763   -3.7229   19.2225 C.ar    1  UNL1        0.1424
     25 C           5.8961   -3.1244   19.8581 C.ar    1  UNL1        0.0295
     26 C           5.7703   -1.9023   20.7187 C.ar    1  UNL1        0.0016
     27 C           4.4247   -1.2787   20.9438 C.ar    1  UNL1        0.0215
     28 C           3.2050   -1.8772   20.3083 C.ar    1  UNL1        0.1397
     29 F           1.8594   -1.2537   20.5333 F       1  UNL1       -0.2044
     30 C           3.3307   -3.0994   19.4476 C.ar    1  UNL1        0.0590
@<TRIPOS>BOND
     1    23    24    1
     2    24    25   ar
     3    25    26   ar
     4    26    27   ar
     5    27    22    1
     6    22     1    1
     7     1     2    1
     8     2     3    1
     9     3     4    1
    10     4     7    1
    11     7     8   ar
    12     8     9   ar
    13     9    10   ar
    14    10    11   ar
    15    11    12   ar
    16    12    13   ar
    17    13    14   ar
    18    14    15   ar
    19    15    16   ar
    20    16    17    1
    21    17    19    1
    22    19    20    1
    23    20    21    1
    24     4     5    1
    25     5     6    1
    26    27    28   ar
    27    28    29    1
    28    28    30   ar
    29    30    24   ar
    30     6     1    1
    31    16     7   ar
    32    21    19    1
    33    14     9   ar
    34    17    18    1
@<TRIPOS>MOLECULE
*****
 30 34 0 0 0
SMALL
GASTEIGER

@<TRIPOS>ATOM
      1 N           5.2845   -0.7408   34.8923 N.3     1  UNL1       -0.2659
      2 C           6.5840   -0.4869   34.1874 C.3     1  UNL1        0.0941
      3 C           6.8733   -1.1645   32.8809 C.3     1  UNL1        0.1096
      4 N           5.8632   -2.0961   32.2793 N.pl3   1  UNL1       -0.2882
      5 C           4.5638   -2.3500   32.9842 C.3     1  UNL1        0.1096
      6 C           4.2744   -1.6723   34.2907 C.3     1  UNL1        0.0941
      7 C           6.1526   -2.7738   30.9727 C.ar    1  UNL1        0.1635
      8 N           6.7726   -4.1395   30.9574 N.ar    1  UNL1       -0.2247
      9 C           7.0620   -4.8172   29.6508 C.ar    1  UNL1        0.1195
     10 C           7.6820   -6.1830   29.6355 C.ar    1  UNL1        0.1195
     11 N           7.9714   -6.8606   28.3289 N.ar    1  UNL1       -0.2406
     12 C           7.6408   -6.1725   27.0378 C.ar    1  UNL1        0.1005
     13 C           7.0208   -4.8067   27.0531 C.ar    1  UNL1        0.0414
     14 C           6.7314   -4.1291   28.3596 C.ar    1  UNL1        0.1035
     15 N           6.1114   -2.7633   28.3750 N.ar    1  UNL1       -0.2264
     16 C           5.8220   -2.0857   29.6815 C.ar    1  UNL1        0.1603
     17 N           5.2020   -0.7198   29.6969 N.pl3   1  UNL1       -0.3175
     18 H           5.7746    0.0809   29.6858 H       1  UNL1        0.1482
     19 C           3.7094   -0.5741   29.7292 C.3     1  UNL1        0.0706
     20 C           2.4383   -0.3937   30.5050 C.3     1  UNL1        0.0212
     21 C           2.3954   -0.5020   29.0095 C.3     1  UNL1        0.0212
     22 C           4.9951   -0.0631   36.1989 C.3     1  UNL1        0.1015
     23 F           1.2119    4.5899   36.3918 F       1  UNL1       -0.2041
     24 C           2.1577    3.4266   36.3436 C.ar    1  UNL1        0.1424
     25 C           2.7670    3.0090   35.0380 C.ar    1  UNL1        0.0295
     26 C           3.7128    1.8458   34.9898 C.ar    1  UNL1        0.0016
     27 C           4.0493    1.1001   36.2471 C.ar    1  UNL1        0.0215
     28 C           3.4401    1.5177   37.5526 C.ar    1  UNL1        0.1397
     29 F           3.7766    0.7721   38.8099 F       1  UNL1       -0.2044
     30 C           2.4942    2.6810   37.6009 C.ar    1  UNL1        0.0590
@<TRIPOS>BOND
     1    23    24    1
     2    24    25   ar
     3    25    26   ar
     4    26    27   ar
     5    27    22    1
     6    22     1    1
     7     1     2    1
     8     2     3    1
     9     3     4    1
    10     4     7    1
    11     7     8   ar
    12     8     9   ar
    13     9    10   ar
    14    10    11   ar
    15    11    12   ar
    16    12    13   ar
    17    13    14   ar
    18    14    15   ar
    19    15    16   ar
    20    16    17    1
    21    17    19    1
    22    19    20    1
    23    20    21    1
    24     4     5    1
    25     5     6    1
    26    27    28   ar
    27    28    29    1
    28    28    30   ar
    29    30    24   ar
    30     6     1    1
    31    16     7   ar
    32    21    19    1
    33    14     9   ar
    34    17    18    1
@<TRIPOS>MOLECULE
*****
 30 34 0 0 0
SMALL
GASTEIGER

@<TRIPOS>ATOM
      1 N           2.3237    1.5946   18.9526 N.3     1  UNL1       -0.2659
      2 C           1.4079    0.5821   19.5740 C.3     1  UNL1        0.0941
      3 C           0.1749    1.0319   20.3001 C.3     1  UNL1        0.1096
      4 N          -0.1423    2.4943   20.4048 N.pl3   1  UNL1       -0.2882
      5 C           0.7735    3.5067   19.7834 C.3     1  UNL1        0.1096
      6 C           2.0065    3.0569   19.0573 C.3     1  UNL1        0.0941
      7 C          -1.3754    2.9441   21.1309 C.ar    1  UNL1        0.1635
      8 N          -2.6878    3.0147   20.4079 N.ar    1  UNL1       -0.2247
      9 C          -3.9209    3.4645   21.1340 C.ar    1  UNL1        0.1195
     10 C          -5.2332    3.5351   20.4110 C.ar    1  UNL1        0.1195
     11 N          -6.4662    3.9849   21.1371 N.ar    1  UNL1       -0.2406
     12 C          -6.3869    4.3641   22.5863 C.ar    1  UNL1        0.1005
     13 C          -5.0746    4.2935   23.3092 C.ar    1  UNL1        0.0414
     14 C          -3.8416    3.8437   22.5831 C.ar    1  UNL1        0.1035
     15 N          -2.5291    3.7731   23.3061 N.ar    1  UNL1       -0.2264
     16 C          -1.2961    3.3233   22.5800 C.ar    1  UNL1        0.1603
     17 N           0.0163    3.2527   23.3030 N.pl3   1  UNL1       -0.3175
     18 H           0.6910    3.9569   23.1683 H       1  UNL1        0.1482
     19 C           0.3007    2.1092   24.2311 C.3     1  UNL1        0.0706
     20 C          -0.0524    1.3036   25.4461 C.3     1  UNL1        0.0212
     21 C           1.1463    0.9342   24.6237 C.3     1  UNL1        0.0212
     22 C           3.5569    1.1447   18.2265 C.3     1  UNL1        0.1015
     23 F           6.2816   -3.9586   19.8175 F       1  UNL1       -0.2041
     24 C           5.6004   -2.6828   19.4198 C.ar    1  UNL1        0.1424
     25 C           5.5920   -1.5128   20.3585 C.ar    1  UNL1        0.0295
     26 C           4.9108   -0.2370   19.9607 C.ar    1  UNL1        0.0016
     27 C           4.2380   -0.1311   18.6243 C.ar    1  UNL1        0.0215
     28 C           4.2465   -1.3009   17.6855 C.ar    1  UNL1        0.1397
     29 F           3.5737   -1.1950   16.3491 F       1  UNL1       -0.2044
     30 C           4.9277   -2.5768   18.0833 C.ar    1  UNL1        0.0590
@<TRIPOS>BOND
     1    23    24    1
     2    24    25   ar
     3    25    26   ar
     4    26    27   ar
     5    27    22    1
     6    22     1    1
     7     1     2    1
     8     2     3    1
     9     3     4    1
    10     4     7    1
    11     7     8   ar
    12     8     9   ar
    13     9    10   ar
    14    10    11   ar
    15    11    12   ar
    16    12    13   ar
    17    13    14   ar
    18    14    15   ar
    19    15    16   ar
    20    16    17    1
    21    17    19    1
    22    19    20    1
    23    20    21    1
    24     4     5    1
    25     5     6    1
    26    27    28   ar
    27    28    29    1
    28    28    30   ar
    29    30    24   ar
    30     6     1    1
    31    16     7   ar
    32    21    19    1
    33    14     9   ar
    34    17    18    1
@<TRIPOS>MOLECULE
*****
 30 34 0 0 0
SMALL
GASTEIGER

@<TRIPOS>ATOM
      1 N           5.5824    0.4414   36.1093 N.3     1  UNL1       -0.2659
      2 C           4.4643   -0.4061   35.5786 C.3     1  UNL1        0.0941
      3 C           4.6583   -1.2029   34.3227 C.3     1  UNL1        0.1096
      4 N           5.9703   -1.1524   33.5975 N.pl3   1  UNL1       -0.2882
      5 C           7.0884   -0.3049   34.1282 C.3     1  UNL1        0.1096
      6 C           6.8944    0.4920   35.3841 C.3     1  UNL1        0.0941
      7 C           6.1643   -1.9493   32.3415 C.ar    1  UNL1        0.1635
      8 N           6.7616   -3.3235   32.4100 N.ar    1  UNL1       -0.2247
      9 C           6.9556   -4.1204   31.1540 C.ar    1  UNL1        0.1195
     10 C           7.5529   -5.4946   31.2225 C.ar    1  UNL1        0.1195
     11 N           7.7468   -6.2914   29.9665 N.ar    1  UNL1       -0.2406
     12 C           7.3434   -5.7141   28.6422 C.ar    1  UNL1        0.1005
     13 C           6.7461   -4.3399   28.5737 C.ar    1  UNL1        0.0414
     14 C           6.5521   -3.5431   29.8297 C.ar    1  UNL1        0.1035
     15 N           5.9548   -2.1688   29.7613 N.ar    1  UNL1       -0.2264
     16 C           5.7609   -1.3719   31.0172 C.ar    1  UNL1        0.1603
     17 N           5.1635    0.0023   30.9488 N.pl3   1  UNL1       -0.3175
     18 H           5.7271    0.7928   31.1123 H       1  UNL1        0.1482
     19 C           3.7074    0.1722   30.6312 C.3     1  UNL1        0.0706
     20 C           2.3740   -0.4243   30.2902 C.3     1  UNL1        0.0212
     21 C           2.5187    1.0629   30.4222 C.3     1  UNL1        0.0212
     22 C           5.3884    1.2383   37.3653 C.3     1  UNL1        0.1015
     23 F          -0.1320    2.8592   39.0674 F       1  UNL1       -0.2041
     24 C           1.2481    2.4540   38.6418 C.ar    1  UNL1        0.1424
     25 C           1.8596    1.1947   39.1806 C.ar    1  UNL1        0.0295
     26 C           3.2397    0.7895   38.7550 C.ar    1  UNL1        0.0016
     27 C           4.0083    1.6435   37.7908 C.ar    1  UNL1        0.0215
     28 C           3.3969    2.9028   37.2521 C.ar    1  UNL1        0.1397
     29 F           4.1655    3.7569   36.2878 F       1  UNL1       -0.2044
     30 C           2.0167    3.3081   37.6776 C.ar    1  UNL1        0.0590
@<TRIPOS>BOND
     1    23    24    1
     2    24    25   ar
     3    25    26   ar
     4    26    27   ar
     5    27    22    1
     6    22     1    1
     7     1     2    1
     8     2     3    1
     9     3     4    1
    10     4     7    1
    11     7     8   ar
    12     8     9   ar
    13     9    10   ar
    14    10    11   ar
    15    11    12   ar
    16    12    13   ar
    17    13    14   ar
    18    14    15   ar
    19    15    16   ar
    20    16    17    1
    21    17    19    1
    22    19    20    1
    23    20    21    1
    24     4     5    1
    25     5     6    1
    26    27    28   ar
    27    28    29    1
    28    28    30   ar
    29    30    24   ar
    30     6     1    1
    31    16     7   ar
    32    21    19    1
    33    14     9   ar
    34    17    18    1
@<TRIPOS>MOLECULE
*****
 30 34 0 0 0
SMALL
GASTEIGER

@<TRIPOS>ATOM
      1 N           3.0520    0.6800   20.3237 N.3     1  UNL1       -0.2659
      2 C           2.8757    2.0589   20.8871 C.3     1  UNL1        0.0941
      3 C           1.5667    2.7733   20.7255 C.3     1  UNL1        0.1096
      4 N           0.4341    2.1089   20.0004 N.pl3   1  UNL1       -0.2882
      5 C           0.6104    0.7300   19.4370 C.3     1  UNL1        0.1096
      6 C           1.9194    0.0155   19.5986 C.3     1  UNL1        0.0941
      7 C          -0.8749    2.8234   19.8388 C.ar    1  UNL1        0.1635
      8 N          -1.9348    2.6945   20.8924 N.ar    1  UNL1       -0.2247
      9 C          -3.2438    3.4090   20.7308 C.ar    1  UNL1        0.1195
     10 C          -4.3036    3.2802   21.7844 C.ar    1  UNL1        0.1195
     11 N          -5.6126    3.9947   21.6227 N.ar    1  UNL1       -0.2406
     12 C          -5.8616    4.8380   20.4075 C.ar    1  UNL1        0.1005
     13 C          -4.8018    4.9668   19.3539 C.ar    1  UNL1        0.0414
     14 C          -3.4929    4.2523   19.5156 C.ar    1  UNL1        0.1035
     15 N          -2.4329    4.3812   18.4620 N.ar    1  UNL1       -0.2264
     16 C          -1.1240    3.6667   18.6236 C.ar    1  UNL1        0.1603
     17 N          -0.0641    3.7955   17.5700 N.pl3   1  UNL1       -0.3175
     18 H          -0.0820    3.2090   16.7795 H       1  UNL1        0.1482
     19 C           1.0231    4.8179   17.7209 C.3     1  UNL1        0.0706
     20 C           2.4813    5.1648   17.7778 C.3     1  UNL1        0.0212
     21 C           1.4478    6.2419   17.9254 C.3     1  UNL1        0.0212
     22 C           4.3610   -0.0345   20.4853 C.3     1  UNL1        0.1015
     23 F           4.9528   -5.6850   18.5562 F       1  UNL1       -0.2041
     24 C           4.8049   -4.2724   19.0385 C.ar    1  UNL1        0.1424
     25 C           5.1789   -3.1303   18.1408 C.ar    1  UNL1        0.0295
     26 C           5.0310   -1.7177   18.6230 C.ar    1  UNL1        0.0016
     27 C           4.5090   -1.4471   20.0030 C.ar    1  UNL1        0.0215
     28 C           4.1349   -2.5891   20.9007 C.ar    1  UNL1        0.1397
     29 F           3.6129   -2.3185   22.2807 F       1  UNL1       -0.2044
     30 C           4.2829   -4.0018   20.4184 C.ar    1  UNL1        0.0590
@<TRIPOS>BOND
     1    23    24    1
     2    24    25   ar
     3    25    26   ar
     4    26    27   ar
     5    27    22    1
     6    22     1    1
     7     1     2    1
     8     2     3    1
     9     3     4    1
    10     4     7    1
    11     7     8   ar
    12     8     9   ar
    13     9    10   ar
    14    10    11   ar
    15    11    12   ar
    16    12    13   ar
    17    13    14   ar
    18    14    15   ar
    19    15    16   ar
    20    16    17    1
    21    17    19    1
    22    19    20    1
    23    20    21    1
    24     4     5    1
    25     5     6    1
    26    27    28   ar
    27    28    29    1
    28    28    30   ar
    29    30    24   ar
    30     6     1    1
    31    16     7   ar
    32    21    19    1
    33    14     9   ar
    34    17    18    1
@<TRIPOS>MOLECULE
*****
 30 34 0 0 0
SMALL
GASTEIGER

@<TRIPOS>ATOM
      1 N           4.9114   -2.0320   19.2702 N.3     1  UNL1       -0.2659
      2 C           6.2179   -1.6127   19.8762 C.3     1  UNL1        0.0941
      3 C           6.7460   -2.3245   21.0863 C.3     1  UNL1        0.1096
      4 N           5.9675   -3.4554   21.6905 N.pl3   1  UNL1       -0.2882
      5 C           4.6610   -3.8746   21.0845 C.3     1  UNL1        0.1096
      6 C           4.1330   -3.1629   19.8744 C.3     1  UNL1        0.0941
      7 C           6.4957   -4.1671   22.9007 C.ar    1  UNL1        0.1635
      8 N           7.4315   -5.3282   22.7391 N.ar    1  UNL1       -0.2247
      9 C           7.9596   -6.0400   23.9494 C.ar    1  UNL1        0.1195
     10 C           8.8954   -7.2010   23.7877 C.ar    1  UNL1        0.1195
     11 N           9.4235   -7.9127   24.9979 N.ar    1  UNL1       -0.2406
     12 C           9.0158   -7.4633   26.3697 C.ar    1  UNL1        0.1005
     13 C           8.0800   -6.3022   26.5313 C.ar    1  UNL1        0.0414
     14 C           7.5519   -5.5905   25.3212 C.ar    1  UNL1        0.1035
     15 N           6.6161   -4.4294   25.4827 N.ar    1  UNL1       -0.2264
     16 C           6.0880   -3.7177   24.2725 C.ar    1  UNL1        0.1603
     17 N           5.1522   -2.5566   24.4341 N.pl3   1  UNL1       -0.3175
     18 H           4.5523   -2.3014   23.6963 H       1  UNL1        0.1482
     19 C           5.1304   -1.7842   25.7198 C.3     1  UNL1        0.0706
     20 C           4.5494   -1.5451   27.0818 C.3     1  UNL1        0.0212
     21 C           5.6736   -0.6855   26.5845 C.3     1  UNL1        0.0212
     22 C           4.3832   -1.3202   18.0600 C.3     1  UNL1        0.1015
     23 F           1.3685    3.8295   18.6857 F       1  UNL1       -0.2041
     24 C           2.1222    2.5421   18.5293 C.ar    1  UNL1        0.1424
     25 C           1.3837    1.2364   18.5250 C.ar    1  UNL1        0.0295
     26 C           2.1374   -0.0510   18.3686 C.ar    1  UNL1        0.0016
     27 C           3.6295   -0.0328   18.2164 C.ar    1  UNL1        0.0215
     28 C           4.3680    1.2728   18.2207 C.ar    1  UNL1        0.1397
     29 F           5.8602    1.2909   18.0685 F       1  UNL1       -0.2044
     30 C           3.6143    2.5603   18.3771 C.ar    1  UNL1        0.0590
@<TRIPOS>BOND
     1    23    24    1
     2    24    25   ar
     3    25    26   ar
     4    26    27   ar
     5    27    22    1
     6    22     1    1
     7     1     2    1
     8     2     3    1
     9     3     4    1
    10     4     7    1
    11     7     8   ar
    12     8     9   ar
    13     9    10   ar
    14    10    11   ar
    15    11    12   ar
    16    12    13   ar
    17    13    14   ar
    18    14    15   ar
    19    15    16   ar
    20    16    17    1
    21    17    19    1
    22    19    20    1
    23    20    21    1
    24     4     5    1
    25     5     6    1
    26    27    28   ar
    27    28    29    1
    28    28    30   ar
    29    30    24   ar
    30     6     1    1
    31    16     7   ar
    32    21    19    1
    33    14     9   ar
    34    17    18    1
