@<TRIPOS>MOLECULE
*****
 25 26 0 0 0
SMALL
GASTEIGER

@<TRIPOS>ATOM
      1 C          -8.7190  -15.9331   24.4308 C.ar    1  UNL1        0.0527
      2 C          -8.4794  -15.7604   25.9014 C.ar    1  UNL1        0.1091
      3 N          -7.0242  -15.4562   26.1014 N.ar    1  UNL1       -0.2035
      4 C          -6.3645  -15.4408   24.7543 C.ar    1  UNL1        0.2628
      5 S          -7.4120  -15.7356   23.7219 S.2     1  UNL1       -0.0283
      6 C         -10.1222  -16.3876   22.2919 C.2     1  UNL1       -0.0064
      7 C         -10.0347  -16.2480   23.7829 C.2     1  UNL1        0.0052
      8 C         -11.4378  -16.7025   21.6440 C.3     1  UNL1        0.0939
      9 C         -11.5101  -16.9242   20.1622 C.3     1  UNL1        0.0262
     10 C         -14.1663  -18.0988   24.1649 C.3     1  UNL1        0.0946
     11 C         -12.9231  -18.0055   23.3311 C.2     1  UNL1        0.2232
     12 O         -11.9216  -19.1221   23.3504 O.2     1  UNL1       -0.2751
     13 N         -12.6812  -16.7957   22.4779 N.am    1  UNL1       -0.3022
     14 H         -13.3385  -16.0629   22.4652 H       1  UNL1        0.1497
     15 O          -4.9124  -15.1771   24.4868 O.3     1  UNL1       -0.4313
     16 C          -4.1433  -16.0788   23.5671 C.ar    1  UNL1        0.1479
     17 C          -3.2493  -15.4915   22.5156 C.ar    1  UNL1        0.0407
     18 C          -2.4803  -16.3931   21.5961 C.ar    1  UNL1        0.0400
     19 C          -2.6054  -17.8821   21.7280 C.ar    1  UNL1        0.1386
     20 C          -3.4994  -18.4694   22.7796 C.ar    1  UNL1        0.0400
     21 C          -4.2684  -17.5677   23.6991 C.ar    1  UNL1        0.0407
     22 O          -1.8363  -18.7837   20.8084 O.3     1  UNL1       -0.4792
     23 C          -1.0407  -18.2005   19.6785 C.3     1  UNL1        0.1661
     24 C           0.4078  -17.8644   19.8762 C.3     1  UNL1        0.0472
     25 C          -1.6935  -17.9532   18.3508 C.3     1  UNL1        0.0472
@<TRIPOS>BOND
     1    10    11    1
     2    11    12    2
     3    11    13   am
     4    13     8    1
     5     8     9    1
     6     8     6    1
     7     6     7    2
     8     7     1    1
     9     1     2   ar
    10     2     3   ar
    11     3     4   ar
    12     4    15    1
    13    15    16    1
    14    16    17   ar
    15    17    18   ar
    16    18    19   ar
    17    19    22    1
    18    22    23    1
    19    23    24    1
    20    23    25    1
    21    19    20   ar
    22    20    21   ar
    23     4     5   ar
    24     5     1   ar
    25    21    16   ar
    26    13    14    1
@<TRIPOS>MOLECULE
*****
 25 26 0 0 0
SMALL
GASTEIGER

@<TRIPOS>ATOM
      1 C          -8.8073  -16.0281   23.9014 C.ar    1  UNL1        0.0527
      2 C          -8.8234  -15.5986   25.3386 C.ar    1  UNL1        0.1091
      3 N          -7.4186  -15.2531   25.7349 N.ar    1  UNL1       -0.2035
      4 C          -6.5343  -15.4689   24.5427 C.ar    1  UNL1        0.2628
      5 S          -7.3926  -15.9479   23.4096 S.2     1  UNL1       -0.0283
      6 C         -10.9822  -17.4318   23.6789 C.2     1  UNL1       -0.0064
      7 C          -9.9971  -16.4615   23.0974 C.2     1  UNL1        0.0052
      8 C         -12.1719  -17.8653   22.8749 C.3     1  UNL1        0.0939
      9 C         -13.5109  -18.0105   23.5353 C.3     1  UNL1        0.0262
     10 C         -10.8557  -19.4393   19.4779 C.3     1  UNL1        0.0946
     11 C         -11.0049  -19.1510   20.9423 C.2     1  UNL1        0.2232
     12 O         -10.1363  -19.8601   21.9386 O.2     1  UNL1       -0.2751
     13 N         -12.0228  -18.1536   21.4104 N.am    1  UNL1       -0.3022
     14 H         -12.5929  -17.6882   20.7565 H       1  UNL1        0.1497
     15 O          -5.0519  -15.2451   24.4924 O.3     1  UNL1       -0.4313
     16 C          -4.1897  -16.1222   23.6337 C.ar    1  UNL1        0.1479
     17 C          -4.2032  -17.6094   23.8289 C.ar    1  UNL1        0.0407
     18 C          -3.3410  -18.4863   22.9702 C.ar    1  UNL1        0.0400
     19 C          -2.4652  -17.8762   21.9163 C.ar    1  UNL1        0.1386
     20 C          -2.4516  -16.3890   21.7212 C.ar    1  UNL1        0.0400
     21 C          -3.3138  -15.5120   22.5799 C.ar    1  UNL1        0.0407
     22 O          -1.6029  -18.7532   21.0576 O.3     1  UNL1       -0.4792
     23 C          -0.9391  -18.1882   19.8369 C.3     1  UNL1        0.1661
     24 C           0.4990  -17.7653   19.8931 C.3     1  UNL1        0.0472
     25 C          -1.7133  -18.0461   18.5601 C.3     1  UNL1        0.0472
@<TRIPOS>BOND
     1    10    11    1
     2    11    12    2
     3    11    13   am
     4    13     8    1
     5     8     9    1
     6     8     6    1
     7     6     7    2
     8     7     1    1
     9     1     2   ar
    10     2     3   ar
    11     3     4   ar
    12     4    15    1
    13    15    16    1
    14    16    17   ar
    15    17    18   ar
    16    18    19   ar
    17    19    22    1
    18    22    23    1
    19    23    24    1
    20    23    25    1
    21    19    20   ar
    22    20    21   ar
    23     4     5   ar
    24     5     1   ar
    25    21    16   ar
    26    13    14    1
@<TRIPOS>MOLECULE
*****
 25 26 0 0 0
SMALL
GASTEIGER

@<TRIPOS>ATOM
      1 C           2.3697   -0.5633   20.7431 C.ar    1  UNL1        0.0527
      2 C           1.0350   -0.7307   20.0793 C.ar    1  UNL1        0.1091
      3 N           0.1172    0.3307   20.6095 N.ar    1  UNL1       -0.2035
      4 C           0.8846    1.1541   21.6010 C.ar    1  UNL1        0.2628
      5 S           2.2767    0.6016   21.6836 S.2     1  UNL1       -0.0283
      6 C           3.5069   -2.5923   19.5857 C.2     1  UNL1       -0.0064
      7 C           3.5840   -1.4117   20.5078 C.2     1  UNL1        0.0052
      8 C           4.7213   -3.4407   19.3504 C.3     1  UNL1        0.0939
      9 C           4.5809   -4.7902   18.7107 C.3     1  UNL1        0.0262
     10 C           8.3450   -1.8372   19.1332 C.3     1  UNL1        0.0946
     11 C           6.9902   -2.3382   18.7289 C.2     1  UNL1        0.2232
     12 O           6.5496   -2.2378   17.2985 O.2     1  UNL1       -0.2751
     13 N           6.0761   -2.9397   19.7548 N.am    1  UNL1       -0.3022
     14 H           6.3653   -3.0056   20.6935 H       1  UNL1        0.1497
     15 O           0.3532    2.3245   22.3741 O.3     1  UNL1       -0.4313
     16 C           0.1815    2.2255   23.8610 C.ar    1  UNL1        0.1479
     17 C           1.1938    1.4870   24.6854 C.ar    1  UNL1        0.0407
     18 C           1.0221    1.3880   26.1722 C.ar    1  UNL1        0.0400
     19 C          -0.1620    2.0277   26.8347 C.ar    1  UNL1        0.1386
     20 C          -1.1744    2.7662   26.0103 C.ar    1  UNL1        0.0400
     21 C          -1.0026    2.8651   24.5234 C.ar    1  UNL1        0.0407
     22 O          -0.3337    1.9287   28.3216 O.3     1  UNL1       -0.4792
     23 C          -0.3376    0.5851   28.9883 C.3     1  UNL1        0.1661
     24 C          -1.6140   -0.1957   29.0949 C.3     1  UNL1        0.0472
     25 C           0.9350    0.0222   29.5485 C.3     1  UNL1        0.0472
@<TRIPOS>BOND
     1    10    11    1
     2    11    12    2
     3    11    13   am
     4    13     8    1
     5     8     9    1
     6     8     6    1
     7     6     7    2
     8     7     1    1
     9     1     2   ar
    10     2     3   ar
    11     3     4   ar
    12     4    15    1
    13    15    16    1
    14    16    17   ar
    15    17    18   ar
    16    18    19   ar
    17    19    22    1
    18    22    23    1
    19    23    24    1
    20    23    25    1
    21    19    20   ar
    22    20    21   ar
    23     4     5   ar
    24     5     1   ar
    25    21    16   ar
    26    13    14    1
@<TRIPOS>MOLECULE
*****
 25 26 0 0 0
SMALL
GASTEIGER

@<TRIPOS>ATOM
      1 C         -13.6045   -7.9762   17.9065 C.ar    1  UNL1        0.0527
      2 C         -12.5373   -8.0546   16.8553 C.ar    1  UNL1        0.1091
      3 N         -11.4825   -7.0417   17.1891 N.ar    1  UNL1       -0.2035
      4 C         -11.8977   -6.3374   18.4467 C.ar    1  UNL1        0.2628
      5 S         -13.2092   -6.9149   18.8900 S.2     1  UNL1       -0.0283
      6 C         -15.7354   -8.7550   19.1725 C.2     1  UNL1       -0.0064
      7 C         -14.8485   -8.8123   17.9641 C.2     1  UNL1        0.0052
      8 C         -16.9795   -9.5911   19.2300 C.3     1  UNL1        0.0939
      9 C         -17.0440  -10.8918   18.4857 C.3     1  UNL1        0.0262
     10 C         -20.2947   -7.6636   20.2514 C.3     1  UNL1        0.0946
     11 C         -19.1153   -8.1283   19.4496 C.2     1  UNL1        0.2232
     12 O         -18.8922   -7.5948   18.0655 O.2     1  UNL1       -0.2751
     13 N         -18.1589   -9.1264   20.0319 N.am    1  UNL1       -0.3022
     14 H         -18.3053   -9.4766   20.9403 H       1  UNL1        0.1497
     15 O         -11.1353   -5.2469   19.1392 O.3     1  UNL1       -0.4313
     16 C         -11.5170   -3.8122   18.9249 C.ar    1  UNL1        0.1479
     17 C         -10.6482   -2.9221   18.0865 C.ar    1  UNL1        0.0407
     18 C         -11.0299   -1.4875   17.8722 C.ar    1  UNL1        0.0400
     19 C         -12.2805   -0.9429   18.4963 C.ar    1  UNL1        0.1386
     20 C         -13.1493   -1.8329   19.3346 C.ar    1  UNL1        0.0400
     21 C         -12.7676   -3.2676   19.5489 C.ar    1  UNL1        0.0407
     22 O         -12.6622    0.4919   18.2820 O.3     1  UNL1       -0.4792
     23 C         -14.0928    0.8556   18.0153 C.3     1  UNL1        0.1661
     24 C         -14.7305    0.4834   16.7096 C.3     1  UNL1        0.0472
     25 C         -14.8857    1.5915   19.0544 C.3     1  UNL1        0.0472
@<TRIPOS>BOND
     1    10    11    1
     2    11    12    2
     3    11    13   am
     4    13     8    1
     5     8     9    1
     6     8     6    1
     7     6     7    2
     8     7     1    1
     9     1     2   ar
    10     2     3   ar
    11     3     4   ar
    12     4    15    1
    13    15    16    1
    14    16    17   ar
    15    17    18   ar
    16    18    19   ar
    17    19    22    1
    18    22    23    1
    19    23    24    1
    20    23    25    1
    21    19    20   ar
    22    20    21   ar
    23     4     5   ar
    24     5     1   ar
    25    21    16   ar
    26    13    14    1
@<TRIPOS>MOLECULE
*****
 25 26 0 0 0
SMALL
GASTEIGER

@<TRIPOS>ATOM
      1 C          -2.1560    3.5695   21.7691 C.ar    1  UNL1        0.0527
      2 C          -0.9159    3.2737   22.5595 C.ar    1  UNL1        0.1091
      3 N           0.1023    2.6922   21.6241 N.ar    1  UNL1       -0.2035
      4 C          -0.5084    2.6286   20.2555 C.ar    1  UNL1        0.2628
      5 S          -1.9041    3.1708   20.3452 S.2     1  UNL1       -0.0283
      6 C          -4.5035    3.2633   22.8394 C.2     1  UNL1       -0.0064
      7 C          -3.4251    4.1603   22.3079 C.2     1  UNL1        0.0052
      8 C          -5.7725    3.8541   23.3783 C.3     1  UNL1        0.0939
      9 C          -6.8639    4.2717   22.4379 C.3     1  UNL1        0.0262
     10 C          -5.6508    5.4545   27.0079 C.3     1  UNL1        0.0946
     11 C          -5.4732    5.2812   25.5286 C.2     1  UNL1        0.2232
     12 O          -4.8186    6.3620   24.7202 O.2     1  UNL1       -0.2751
     13 N          -5.9502    4.0273   24.8577 N.am    1  UNL1       -0.3022
     14 H          -6.3798    3.3180   25.3882 H       1  UNL1        0.1497
     15 O           0.1593    2.1132   19.0152 O.3     1  UNL1       -0.4313
     16 C           1.2195    1.0570   19.1178 C.ar    1  UNL1        0.1479
     17 C           2.4913    1.1923   18.3340 C.ar    1  UNL1        0.0407
     18 C           3.5514    0.1362   18.4366 C.ar    1  UNL1        0.0400
     19 C           3.3398   -1.0553   19.3230 C.ar    1  UNL1        0.1386
     20 C           2.0681   -1.1906   20.1068 C.ar    1  UNL1        0.0400
     21 C           1.0080   -0.1344   20.0042 C.ar    1  UNL1        0.0407
     22 O           4.4001   -2.1115   19.4256 O.3     1  UNL1       -0.4792
     23 C           4.0707   -3.4498   20.0173 C.3     1  UNL1        0.1661
     24 C           3.3810   -4.4891   19.1841 C.3     1  UNL1        0.0472
     25 C           4.4310   -3.7490   21.4424 C.3     1  UNL1        0.0472
@<TRIPOS>BOND
     1    10    11    1
     2    11    12    2
     3    11    13   am
     4    13     8    1
     5     8     9    1
     6     8     6    1
     7     6     7    2
     8     7     1    1
     9     1     2   ar
    10     2     3   ar
    11     3     4   ar
    12     4    15    1
    13    15    16    1
    14    16    17   ar
    15    17    18   ar
    16    18    19   ar
    17    19    22    1
    18    22    23    1
    19    23    24    1
    20    23    25    1
    21    19    20   ar
    22    20    21   ar
    23     4     5   ar
    24     5     1   ar
    25    21    16   ar
    26    13    14    1
@<TRIPOS>MOLECULE
*****
 25 26 0 0 0
SMALL
GASTEIGER

@<TRIPOS>ATOM
      1 C           1.7489    0.0507   21.0925 C.ar    1  UNL1        0.0527
      2 C           0.4590    0.1044   20.3287 C.ar    1  UNL1        0.1091
      3 N          -0.2966    1.3191   20.7798 N.ar    1  UNL1       -0.2035
      4 C           0.5263    2.0161   21.8224 C.ar    1  UNL1        0.2628
      5 S           1.7904    1.2322   22.0157 S.2     1  UNL1       -0.0283
      6 C           2.7792   -1.9533   19.7992 C.2     1  UNL1       -0.0064
      7 C           2.8108   -1.0000   20.9570 C.2     1  UNL1        0.0052
      8 C           3.8411   -3.0040   19.6637 C.3     1  UNL1        0.0939
      9 C           3.4764   -4.3836   19.2015 C.3     1  UNL1        0.0262
     10 C           7.6667   -2.0489   19.2144 C.3     1  UNL1        0.0946
     11 C           6.2402   -2.3778   18.8878 C.2     1  UNL1        0.2232
     12 O           5.7861   -2.4094   17.4585 O.2     1  UNL1       -0.2751
     13 N           5.2676   -2.6751   19.9904 N.am    1  UNL1       -0.3022
     14 H           5.5656   -2.6544   20.9285 H       1  UNL1        0.1497
     15 O           0.1508    3.2759   22.5449 O.3     1  UNL1       -0.4313
     16 C          -1.1589    3.3622   23.2710 C.ar    1  UNL1        0.1479
     17 C          -2.4198    3.6510   22.5116 C.ar    1  UNL1        0.0407
     18 C          -3.7295    3.7373   23.2377 C.ar    1  UNL1        0.0400
     19 C          -3.7783    3.5348   24.7232 C.ar    1  UNL1        0.1386
     20 C          -2.5174    3.2460   25.4826 C.ar    1  UNL1        0.0400
     21 C          -1.2077    3.1597   24.7565 C.ar    1  UNL1        0.0407
     22 O          -5.0880    3.6211   25.4493 O.3     1  UNL1       -0.4792
     23 C          -6.0209    4.7644   25.1801 C.3     1  UNL1        0.1661
     24 C          -5.8941    6.0366   25.9647 C.3     1  UNL1        0.0472
     25 C          -7.0806    4.6356   24.1263 C.3     1  UNL1        0.0472
@<TRIPOS>BOND
     1    10    11    1
     2    11    12    2
     3    11    13   am
     4    13     8    1
     5     8     9    1
     6     8     6    1
     7     6     7    2
     8     7     1    1
     9     1     2   ar
    10     2     3   ar
    11     3     4   ar
    12     4    15    1
    13    15    16    1
    14    16    17   ar
    15    17    18   ar
    16    18    19   ar
    17    19    22    1
    18    22    23    1
    19    23    24    1
    20    23    25    1
    21    19    20   ar
    22    20    21   ar
    23     4     5   ar
    24     5     1   ar
    25    21    16   ar
    26    13    14    1
@<TRIPOS>MOLECULE
*****
 25 26 0 0 0
SMALL
GASTEIGER

@<TRIPOS>ATOM
      1 C           1.0681    1.1588   19.1495 C.ar    1  UNL1        0.0527
      2 C           0.5408    0.5625   20.4210 C.ar    1  UNL1        0.1091
      3 N          -0.5057    1.4876   20.9677 N.ar    1  UNL1       -0.2035
      4 C          -0.6253    2.6557   20.0343 C.ar    1  UNL1        0.2628
      5 S           0.3474    2.4524   18.9106 S.2     1  UNL1       -0.0283
      6 C           3.0158   -0.5243   18.7976 C.2     1  UNL1       -0.0064
      7 C           2.1296    0.5656   18.2713 C.2     1  UNL1        0.0052
      8 C           4.0773   -1.1175   17.9194 C.3     1  UNL1        0.0939
      9 C           5.0354   -0.2218   17.1915 C.3     1  UNL1        0.0262
     10 C           4.7628   -4.9333   18.7670 C.3     1  UNL1        0.0946
     11 C           4.6593   -3.4445   18.9172 C.2     1  UNL1        0.2232
     12 O           5.0346   -2.7939   20.2157 O.2     1  UNL1       -0.2751
     13 N           4.1807   -2.6063   17.7691 N.am    1  UNL1       -0.3022
     14 H           3.9344   -3.0333   16.9169 H       1  UNL1        0.1497
     15 O          -1.5543    3.8221   20.1961 O.3     1  UNL1       -0.4313
     16 C          -2.5789    3.8185   21.2916 C.ar    1  UNL1        0.1479
     17 C          -3.9120    3.1678   21.0696 C.ar    1  UNL1        0.0407
     18 C          -4.9366    3.1642   22.1651 C.ar    1  UNL1        0.0400
     19 C          -4.6281    3.8114   23.4827 C.ar    1  UNL1        0.1386
     20 C          -3.2950    4.4621   23.7047 C.ar    1  UNL1        0.0400
     21 C          -2.2704    4.4657   22.6092 C.ar    1  UNL1        0.0407
     22 O          -5.6527    3.8078   24.5782 O.3     1  UNL1       -0.4792
     23 C          -6.7030    4.8775   24.6263 C.3     1  UNL1        0.1661
     24 C          -7.7443    4.9553   23.5493 C.3     1  UNL1        0.0472
     25 C          -6.7122    5.8696   25.7514 C.3     1  UNL1        0.0472
@<TRIPOS>BOND
     1    10    11    1
     2    11    12    2
     3    11    13   am
     4    13     8    1
     5     8     9    1
     6     8     6    1
     7     6     7    2
     8     7     1    1
     9     1     2   ar
    10     2     3   ar
    11     3     4   ar
    12     4    15    1
    13    15    16    1
    14    16    17   ar
    15    17    18   ar
    16    18    19   ar
    17    19    22    1
    18    22    23    1
    19    23    24    1
    20    23    25    1
    21    19    20   ar
    22    20    21   ar
    23     4     5   ar
    24     5     1   ar
    25    21    16   ar
    26    13    14    1
@<TRIPOS>MOLECULE
*****
 25 26 0 0 0
SMALL
GASTEIGER

@<TRIPOS>ATOM
      1 C           5.0362   -2.9536   23.4590 C.ar    1  UNL1        0.0527
      2 C           6.1682   -3.7474   24.0409 C.ar    1  UNL1        0.1091
      3 N           6.5870   -3.0877   25.3213 N.ar    1  UNL1       -0.2035
      4 C           5.7139   -1.8861   25.5308 C.ar    1  UNL1        0.2628
      5 S           4.7555   -1.8032   24.3798 S.2     1  UNL1       -0.0283
      6 C           5.0673   -3.3114   20.8859 C.2     1  UNL1       -0.0064
      7 C           4.3122   -3.2569   22.1809 C.2     1  UNL1        0.0052
      8 C           4.3433   -3.6147   19.6077 C.3     1  UNL1        0.0939
      9 C           4.2263   -5.0318   19.1301 C.3     1  UNL1        0.0262
     10 C           3.9381   -0.6970   16.9483 C.3     1  UNL1        0.0946
     11 C           4.5450   -1.8108   17.7489 C.2     1  UNL1        0.2232
     12 O           5.9606   -2.2347   17.4912 O.2     1  UNL1       -0.2751
     13 N           3.7363   -2.5008   18.8071 N.am    1  UNL1       -0.3022
     14 H           2.8072   -2.2227   18.9763 H       1  UNL1        0.1497
     15 O           5.7864   -0.9345   26.6880 O.3     1  UNL1       -0.4313
     16 C           4.5289   -0.3424   27.2521 C.ar    1  UNL1        0.1479
     17 C           3.6281   -1.1766   28.1139 C.ar    1  UNL1        0.0407
     18 C           2.3707   -0.5845   28.6780 C.ar    1  UNL1        0.0400
     19 C           2.0141    0.8418   28.3803 C.ar    1  UNL1        0.1386
     20 C           2.9149    1.6760   27.5185 C.ar    1  UNL1        0.0400
     21 C           4.1723    1.0839   26.9544 C.ar    1  UNL1        0.0407
     22 O           0.7566    1.4339   28.9445 O.3     1  UNL1       -0.4792
     23 C          -0.5672    1.1285   28.3086 C.3     1  UNL1        0.1661
     24 C          -1.3590   -0.0629   28.7600 C.3     1  UNL1        0.0472
     25 C          -1.0991    2.0143   27.2213 C.3     1  UNL1        0.0472
@<TRIPOS>BOND
     1    10    11    1
     2    11    12    2
     3    11    13   am
     4    13     8    1
     5     8     9    1
     6     8     6    1
     7     6     7    2
     8     7     1    1
     9     1     2   ar
    10     2     3   ar
    11     3     4   ar
    12     4    15    1
    13    15    16    1
    14    16    17   ar
    15    17    18   ar
    16    18    19   ar
    17    19    22    1
    18    22    23    1
    19    23    24    1
    20    23    25    1
    21    19    20   ar
    22    20    21   ar
    23     4     5   ar
    24     5     1   ar
    25    21    16   ar
    26    13    14    1
@<TRIPOS>MOLECULE
*****
 25 26 0 0 0
SMALL
GASTEIGER

@<TRIPOS>ATOM
      1 C          -6.5185  -15.9786   24.2205 C.ar    1  UNL1        0.0527
      2 C          -7.1722  -15.2154   25.3343 C.ar    1  UNL1        0.1091
      3 N          -8.6567  -15.3889   25.2062 N.ar    1  UNL1       -0.2035
      4 C          -8.9204  -16.2593   24.0133 C.ar    1  UNL1        0.2628
      5 S          -7.5989  -16.6237   23.4042 S.2     1  UNL1       -0.0283
      6 C          -4.5113  -17.1313   23.0406 C.2     1  UNL1       -0.0064
      7 C          -5.0434  -16.0789   23.9676 C.2     1  UNL1        0.0052
      8 C          -3.0362  -17.2317   22.7877 C.3     1  UNL1        0.0939
      9 C          -2.1178  -17.6949   23.8796 C.3     1  UNL1        0.0262
     10 C          -1.7662  -17.5597   19.0422 C.3     1  UNL1        0.0946
     11 C          -2.3229  -17.9225   20.3869 C.2     1  UNL1        0.2232
     12 O          -2.7232  -19.3390   20.6756 O.2     1  UNL1       -0.2751
     13 N          -2.4794  -16.8688   21.4430 N.am    1  UNL1       -0.3022
     14 H          -2.2167  -15.9391   21.2535 H       1  UNL1        0.1497
     15 O         -10.2688  -16.6897   23.5168 O.3     1  UNL1       -0.4313
     16 C         -10.3782  -17.5433   22.2882 C.ar    1  UNL1        0.1479
     17 C         -10.2622  -19.0347   22.3983 C.ar    1  UNL1        0.0407
     18 C         -10.3717  -19.8882   21.1697 C.ar    1  UNL1        0.0400
     19 C         -10.5972  -19.2503   19.8310 C.ar    1  UNL1        0.1386
     20 C         -10.7132  -17.7589   19.7208 C.ar    1  UNL1        0.0400
     21 C         -10.6037  -16.9054   20.9494 C.ar    1  UNL1        0.0407
     22 O         -10.7067  -20.1039   18.6024 O.3     1  UNL1       -0.4792
     23 C          -9.4672  -20.6334   17.9441 C.3     1  UNL1        0.1661
     24 C          -8.1247  -20.3906   18.5676 C.3     1  UNL1        0.0472
     25 C          -9.5702  -21.4057   16.6624 C.3     1  UNL1        0.0472
@<TRIPOS>BOND
     1    10    11    1
     2    11    12    2
     3    11    13   am
     4    13     8    1
     5     8     9    1
     6     8     6    1
     7     6     7    2
     8     7     1    1
     9     1     2   ar
    10     2     3   ar
    11     3     4   ar
    12     4    15    1
    13    15    16    1
    14    16    17   ar
    15    17    18   ar
    16    18    19   ar
    17    19    22    1
    18    22    23    1
    19    23    24    1
    20    23    25    1
    21    19    20   ar
    22    20    21   ar
    23     4     5   ar
    24     5     1   ar
    25    21    16   ar
    26    13    14    1
