@<TRIPOS>MOLECULE
*****
 26 28 0 0 0
SMALL
GASTEIGER

@<TRIPOS>ATOM
      1 C          -9.3710  -20.8701   17.8336 C.3     1  UNL1        0.0522
      2 C          -8.8825  -20.1272   19.0417 C.ar    1  UNL1        0.0625
      3 C          -9.8608  -19.6399   20.0689 C.ar    1  UNL1        0.0522
      4 C          -9.3722  -18.8970   21.2770 C.ar    1  UNL1        0.1483
      5 C          -7.9053  -18.6414   21.4578 C.ar    1  UNL1        0.0612
      6 C          -6.9270  -19.1286   20.4305 C.ar    1  UNL1        0.1374
      7 N          -7.4155  -19.8715   19.2224 N.ar    1  UNL1       -0.2449
      8 C          -5.4599  -18.8730   20.6112 C.2     1  UNL1        0.2684
      9 O          -4.7669  -19.3321   21.8598 O.2     1  UNL1       -0.2681
     10 N          -4.6860  -18.1583   19.5434 N.am    1  UNL1       -0.2646
     11 H          -5.1409  -17.8570   18.7239 H       1  UNL1        0.1566
     12 C          -3.2190  -17.9027   19.7242 C.ar    1  UNL1        0.1346
     13 C          -2.2235  -18.5856   18.8340 C.ar    1  UNL1        0.0368
     14 C          -0.7565  -18.3299   19.0148 C.ar    1  UNL1        0.0341
     15 C          -0.2852  -17.3914   20.0857 C.ar    1  UNL1        0.1593
     16 F           1.1819  -17.1358   20.2665 F       1  UNL1       -0.2025
     17 C          -1.2807  -16.7085   20.9759 C.ar    1  UNL1        0.1298
     18 N          -2.7476  -16.9642   20.7952 N.ar    1  UNL1       -0.2267
     19 O         -10.3507  -18.4097   22.3043 O.3     1  UNL1       -0.4502
     20 C          -9.8554  -17.8234   23.5930 C.ar    1  UNL1        0.1834
     21 C          -9.4177  -16.3895   23.6454 C.ar    1  UNL1        0.1392
     22 N          -8.9224  -15.8032   24.9341 N.ar    1  UNL1       -0.2259
     23 C          -8.8648  -16.6506   26.1705 C.ar    1  UNL1        0.1399
     24 C          -8.3694  -16.0642   27.4592 C.3     1  UNL1        0.0737
     25 N          -9.3025  -18.0843   26.1181 N.ar    1  UNL1       -0.2259
     26 C          -9.7978  -18.6707   24.8294 C.ar    1  UNL1        0.1392
@<TRIPOS>BOND
     1     1     2    1
     2     2     3   ar
     3     3     4   ar
     4     4    19    1
     5    19    20    1
     6    20    21   ar
     7    21    22   ar
     8    22    23   ar
     9    23    24    1
    10    23    25   ar
    11    25    26   ar
    12     4     5   ar
    13     5     6   ar
    14     6     8    1
    15     8     9    2
    16     8    10   am
    17    10    12    1
    18    12    13   ar
    19    13    14   ar
    20    14    15   ar
    21    15    16    1
    22    15    17   ar
    23    17    18   ar
    24     6     7   ar
    25     7     2   ar
    26    26    20   ar
    27    18    12   ar
    28    10    11    1
@<TRIPOS>MOLECULE
*****
 26 28 0 0 0
SMALL
GASTEIGER

@<TRIPOS>ATOM
      1 C          -9.2293   -7.7158   18.9515 C.3     1  UNL1        0.0522
      2 C         -10.3723   -6.7470   18.8808 C.ar    1  UNL1        0.0625
      3 C         -10.1067   -5.2708   18.9007 C.ar    1  UNL1        0.0522
      4 C         -11.2496   -4.3020   18.8301 C.ar    1  UNL1        0.1483
      5 C         -12.6583   -4.8093   18.7396 C.ar    1  UNL1        0.0612
      6 C         -12.9240   -6.2855   18.7197 C.ar    1  UNL1        0.1374
      7 N         -11.7810   -7.2543   18.7903 N.ar    1  UNL1       -0.2449
      8 C         -14.3327   -6.7929   18.6291 C.2     1  UNL1        0.2684
      9 O         -15.3826   -5.9722   17.9405 O.2     1  UNL1       -0.2681
     10 N         -14.6915   -8.1208   19.2272 N.am    1  UNL1       -0.2646
     11 H         -14.0024   -8.6594   19.6792 H       1  UNL1        0.1566
     12 C         -16.1002   -8.6282   19.1367 C.ar    1  UNL1        0.1346
     13 C         -17.1712   -8.0255   19.9967 C.ar    1  UNL1        0.0368
     14 C         -18.5798   -8.5329   19.9061 C.ar    1  UNL1        0.0341
     15 C         -18.9175   -9.6430   18.9555 C.ar    1  UNL1        0.1593
     16 F         -20.3262  -10.1504   18.8650 F       1  UNL1       -0.2025
     17 C         -17.8465  -10.2457   18.0955 C.ar    1  UNL1        0.1298
     18 N         -16.4379   -9.7383   18.1861 N.ar    1  UNL1       -0.2267
     19 O         -10.9839   -2.8258   18.8500 O.3     1  UNL1       -0.4502
     20 C         -11.9091   -1.8875   18.1333 C.ar    1  UNL1        0.1834
     21 C         -13.0923   -1.3077   18.8502 C.ar    1  UNL1        0.1392
     22 N         -14.0175   -0.3694   18.1335 N.ar    1  UNL1       -0.2259
     23 C         -13.7594   -0.0109   16.6999 C.ar    1  UNL1        0.1399
     24 C         -14.6846    0.9274   15.9833 C.3     1  UNL1        0.0737
     25 N         -12.5762   -0.5907   15.9832 N.ar    1  UNL1       -0.2259
     26 C         -11.6511   -1.5290   16.6998 C.ar    1  UNL1        0.1392
@<TRIPOS>BOND
     1     1     2    1
     2     2     3   ar
     3     3     4   ar
     4     4    19    1
     5    19    20    1
     6    20    21   ar
     7    21    22   ar
     8    22    23   ar
     9    23    24    1
    10    23    25   ar
    11    25    26   ar
    12     4     5   ar
    13     5     6   ar
    14     6     8    1
    15     8     9    2
    16     8    10   am
    17    10    12    1
    18    12    13   ar
    19    13    14   ar
    20    14    15   ar
    21    15    16    1
    22    15    17   ar
    23    17    18   ar
    24     6     7   ar
    25     7     2   ar
    26    26    20   ar
    27    18    12   ar
    28    10    11    1
@<TRIPOS>MOLECULE
*****
 26 28 0 0 0
SMALL
GASTEIGER

@<TRIPOS>ATOM
      1 C           4.7651   -2.9418   33.2830 C.3     1  UNL1        0.0522
      2 C           4.2934   -1.5179   33.2961 C.ar    1  UNL1        0.0625
      3 C           4.6230   -0.6293   34.4587 C.ar    1  UNL1        0.0522
      4 C           4.1513    0.7946   34.4717 C.ar    1  UNL1        0.1483
      5 C           3.3502    1.3298   33.3221 C.ar    1  UNL1        0.0612
      6 C           3.0207    0.4412   32.1595 C.ar    1  UNL1        0.1374
      7 N           3.4923   -0.9826   32.1465 N.ar    1  UNL1       -0.2449
      8 C           2.2195    0.9765   31.0098 C.2     1  UNL1        0.2684
      9 O           1.7877    2.4130   31.0010 O.2     1  UNL1       -0.2681
     10 N           1.8502    0.0753   29.8690 N.am    1  UNL1       -0.2646
     11 H           2.1337   -0.8675   29.8748 H       1  UNL1        0.1566
     12 C           1.0491    0.6106   28.7193 C.ar    1  UNL1        0.1346
     13 C          -0.4065    0.9240   28.9010 C.ar    1  UNL1        0.0368
     14 C          -1.2076    1.4592   27.7514 C.ar    1  UNL1        0.0341
     15 C          -0.5531    1.6810   26.4200 C.ar    1  UNL1        0.1593
     16 F          -1.3542    2.2163   25.2703 F       1  UNL1       -0.2025
     17 C           0.9025    1.3676   26.2384 C.ar    1  UNL1        0.1298
     18 N           1.7036    0.8324   27.3880 N.ar    1  UNL1       -0.2267
     19 O           4.4809    1.6832   35.6345 O.3     1  UNL1       -0.4502
     20 C           3.5123    1.8205   36.7716 C.ar    1  UNL1        0.1834
     21 C           3.6479    0.9450   37.9821 C.ar    1  UNL1        0.1392
     22 N           2.6794    1.0823   39.1193 N.ar    1  UNL1       -0.2259
     23 C           1.5752    2.0951   39.0458 C.ar    1  UNL1        0.1399
     24 C           0.6067    2.2324   40.1830 C.3     1  UNL1        0.0737
     25 N           1.4397    2.9704   37.8354 N.ar    1  UNL1       -0.2259
     26 C           2.4082    2.8331   36.6982 C.ar    1  UNL1        0.1392
@<TRIPOS>BOND
     1     1     2    1
     2     2     3   ar
     3     3     4   ar
     4     4    19    1
     5    19    20    1
     6    20    21   ar
     7    21    22   ar
     8    22    23   ar
     9    23    24    1
    10    23    25   ar
    11    25    26   ar
    12     4     5   ar
    13     5     6   ar
    14     6     8    1
    15     8     9    2
    16     8    10   am
    17    10    12    1
    18    12    13   ar
    19    13    14   ar
    20    14    15   ar
    21    15    16    1
    22    15    17   ar
    23    17    18   ar
    24     6     7   ar
    25     7     2   ar
    26    26    20   ar
    27    18    12   ar
    28    10    11    1
@<TRIPOS>MOLECULE
*****
 26 28 0 0 0
SMALL
GASTEIGER

@<TRIPOS>ATOM
      1 C           8.4445   -0.5017   29.4118 C.3     1  UNL1        0.0522
      2 C           7.6303   -1.4110   30.2836 C.ar    1  UNL1        0.0625
      3 C           7.6668   -2.8940   30.0613 C.ar    1  UNL1        0.0522
      4 C           6.8525   -3.8034   30.9331 C.ar    1  UNL1        0.1483
      5 C           6.0018   -3.2298   32.0272 C.ar    1  UNL1        0.0612
      6 C           5.9653   -1.7468   32.2496 C.ar    1  UNL1        0.1374
      7 N           6.7796   -0.8375   31.3778 N.ar    1  UNL1       -0.2449
      8 C           5.1146   -1.1732   33.3438 C.2     1  UNL1        0.2684
      9 O           3.8481   -1.8664   33.7507 O.2     1  UNL1       -0.2681
     10 N           5.5303    0.0936   34.0311 N.am    1  UNL1       -0.2646
     11 H           6.3616    0.5485   33.7640 H       1  UNL1        0.1566
     12 C           4.6796    0.6672   35.1253 C.ar    1  UNL1        0.1346
     13 C           4.8364    0.1749   36.5335 C.ar    1  UNL1        0.0368
     14 C           3.9857    0.7486   37.6276 C.ar    1  UNL1        0.0341
     15 C           2.9782    1.8146   37.3136 C.ar    1  UNL1        0.1593
     16 F           2.1274    2.3882   38.4078 F       1  UNL1       -0.2025
     17 C           2.8214    2.3069   35.9054 C.ar    1  UNL1        0.1298
     18 N           3.6721    1.7332   34.8113 N.ar    1  UNL1       -0.2267
     19 O           6.8890   -5.2864   30.7107 O.3     1  UNL1       -0.4502
     20 C           7.1444   -5.8327   29.3372 C.ar    1  UNL1        0.1834
     21 C           8.3140   -6.7407   29.0968 C.ar    1  UNL1        0.1392
     22 N           8.5695   -7.2870   27.7234 N.ar    1  UNL1       -0.2259
     23 C           7.6553   -6.9253   26.5904 C.ar    1  UNL1        0.1399
     24 C           7.9108   -7.4717   25.2170 C.3     1  UNL1        0.0737
     25 N           6.4858   -6.0174   26.8308 N.ar    1  UNL1       -0.2259
     26 C           6.2304   -5.4711   28.2043 C.ar    1  UNL1        0.1392
@<TRIPOS>BOND
     1     1     2    1
     2     2     3   ar
     3     3     4   ar
     4     4    19    1
     5    19    20    1
     6    20    21   ar
     7    21    22   ar
     8    22    23   ar
     9    23    24    1
    10    23    25   ar
    11    25    26   ar
    12     4     5   ar
    13     5     6   ar
    14     6     8    1
    15     8     9    2
    16     8    10   am
    17    10    12    1
    18    12    13   ar
    19    13    14   ar
    20    14    15   ar
    21    15    16    1
    22    15    17   ar
    23    17    18   ar
    24     6     7   ar
    25     7     2   ar
    26    26    20   ar
    27    18    12   ar
    28    10    11    1
@<TRIPOS>MOLECULE
*****
 26 28 0 0 0
SMALL
GASTEIGER

@<TRIPOS>ATOM
      1 C           5.2688   -3.6020   18.6115 C.3     1  UNL1        0.0522
      2 C           5.0587   -3.2833   20.0621 C.ar    1  UNL1        0.0625
      3 C           4.0267   -2.2726   20.4661 C.ar    1  UNL1        0.0522
      4 C           3.8166   -1.9539   21.9168 C.ar    1  UNL1        0.1483
      5 C           4.6386   -2.6459   22.9633 C.ar    1  UNL1        0.0612
      6 C           5.6706   -3.6566   22.5593 C.ar    1  UNL1        0.1374
      7 N           5.8807   -3.9753   21.1087 N.ar    1  UNL1       -0.2449
      8 C           6.4927   -4.3487   23.6059 C.2     1  UNL1        0.2684
      9 O           7.5595   -5.3218   23.1995 O.2     1  UNL1       -0.2681
     10 N           6.2479   -4.0678   25.0589 N.am    1  UNL1       -0.2646
     11 H           5.5477   -3.4292   25.3256 H       1  UNL1        0.1566
     12 C           7.0699   -4.7599   26.1055 C.ar    1  UNL1        0.1346
     13 C           6.7619   -6.1782   26.4844 C.ar    1  UNL1        0.0368
     14 C           7.5840   -6.8702   27.5310 C.ar    1  UNL1        0.0341
     15 C           8.7139   -6.1440   28.1987 C.ar    1  UNL1        0.1593
     16 F           9.5360   -6.8361   29.2453 F       1  UNL1       -0.2025
     17 C           9.0219   -4.7257   27.8197 C.ar    1  UNL1        0.1298
     18 N           8.1999   -4.0337   26.7732 N.ar    1  UNL1       -0.2267
     19 O           2.7845   -0.9431   22.3208 O.3     1  UNL1       -0.4502
     20 C           2.1866   -0.0296   21.2922 C.ar    1  UNL1        0.1834
     21 C           1.0178   -0.4877   20.4710 C.ar    1  UNL1        0.1392
     22 N           0.4198    0.4258   19.4425 N.ar    1  UNL1       -0.2259
     23 C           0.9906    1.7974   19.2351 C.ar    1  UNL1        0.1399
     24 C           0.3926    2.7109   18.2065 C.3     1  UNL1        0.0737
     25 N           2.1593    2.2555   20.0562 N.ar    1  UNL1       -0.2259
     26 C           2.7572    1.3420   21.0848 C.ar    1  UNL1        0.1392
@<TRIPOS>BOND
     1     1     2    1
     2     2     3   ar
     3     3     4   ar
     4     4    19    1
     5    19    20    1
     6    20    21   ar
     7    21    22   ar
     8    22    23   ar
     9    23    24    1
    10    23    25   ar
    11    25    26   ar
    12     4     5   ar
    13     5     6   ar
    14     6     8    1
    15     8     9    2
    16     8    10   am
    17    10    12    1
    18    12    13   ar
    19    13    14   ar
    20    14    15   ar
    21    15    16    1
    22    15    17   ar
    23    17    18   ar
    24     6     7   ar
    25     7     2   ar
    26    26    20   ar
    27    18    12   ar
    28    10    11    1
@<TRIPOS>MOLECULE
*****
 26 28 0 0 0
SMALL
GASTEIGER

@<TRIPOS>ATOM
      1 C           3.6600   -4.9234   19.0240 C.3     1  UNL1        0.0522
      2 C           4.0022   -3.7054   19.8300 C.ar    1  UNL1        0.0625
      3 C           5.1772   -3.7287   20.7621 C.ar    1  UNL1        0.0522
      4 C           5.5194   -2.5107   21.5680 C.ar    1  UNL1        0.1483
      5 C           4.6866   -1.2695   21.4418 C.ar    1  UNL1        0.0612
      6 C           3.5117   -1.2463   20.5097 C.ar    1  UNL1        0.1374
      7 N           3.1695   -2.4642   19.7037 N.ar    1  UNL1       -0.2449
      8 C           2.6789   -0.0051   20.3834 C.2     1  UNL1        0.2684
      9 O           3.1776    1.2931   20.9456 O.2     1  UNL1       -0.2681
     10 N           1.3474   -0.0621   19.6950 N.am    1  UNL1       -0.2646
     11 H           1.0201   -0.9141   19.3260 H       1  UNL1        0.1566
     12 C           0.5146    1.1792   19.5688 C.ar    1  UNL1        0.1346
     13 C           0.6514    2.0542   18.3582 C.ar    1  UNL1        0.0368
     14 C          -0.1813    3.2954   18.2320 C.ar    1  UNL1        0.0341
     15 C          -1.1510    3.6614   19.3163 C.ar    1  UNL1        0.1593
     16 F          -1.9838    4.9027   19.1901 F       1  UNL1       -0.2025
     17 C          -1.2878    2.7864   20.5269 C.ar    1  UNL1        0.1298
     18 N          -0.4550    1.5452   20.6531 N.ar    1  UNL1       -0.2267
     19 O           6.6944   -2.5340   22.5002 O.3     1  UNL1       -0.4502
     20 C           7.1101   -3.8200   23.1509 C.ar    1  UNL1        0.1834
     21 C           6.6452   -4.1422   24.5402 C.ar    1  UNL1        0.1392
     22 N           7.0610   -5.4282   25.1909 N.ar    1  UNL1       -0.2259
     23 C           7.9416   -6.3920   24.4522 C.ar    1  UNL1        0.1399
     24 C           8.3574   -7.6780   25.1029 C.3     1  UNL1        0.0737
     25 N           8.4065   -6.0698   23.0629 N.ar    1  UNL1       -0.2259
     26 C           7.9907   -4.7838   22.4123 C.ar    1  UNL1        0.1392
@<TRIPOS>BOND
     1     1     2    1
     2     2     3   ar
     3     3     4   ar
     4     4    19    1
     5    19    20    1
     6    20    21   ar
     7    21    22   ar
     8    22    23   ar
     9    23    24    1
    10    23    25   ar
    11    25    26   ar
    12     4     5   ar
    13     5     6   ar
    14     6     8    1
    15     8     9    2
    16     8    10   am
    17    10    12    1
    18    12    13   ar
    19    13    14   ar
    20    14    15   ar
    21    15    16    1
    22    15    17   ar
    23    17    18   ar
    24     6     7   ar
    25     7     2   ar
    26    26    20   ar
    27    18    12   ar
    28    10    11    1
@<TRIPOS>MOLECULE
*****
 26 28 0 0 0
SMALL
GASTEIGER

@<TRIPOS>ATOM
      1 C           8.0449   -8.3225   27.1729 C.3     1  UNL1        0.0522
      2 C           7.8849   -6.8478   26.9497 C.ar    1  UNL1        0.0625
      3 C           8.2278   -5.8820   28.0449 C.ar    1  UNL1        0.0522
      4 C           8.0678   -4.4074   27.8218 C.ar    1  UNL1        0.1483
      5 C           7.5649   -3.8985   26.5034 C.ar    1  UNL1        0.0612
      6 C           7.2220   -4.8644   25.4082 C.ar    1  UNL1        0.1374
      7 N           7.3820   -6.3390   25.6313 N.ar    1  UNL1       -0.2449
      8 C           6.7191   -4.3555   24.0897 C.2     1  UNL1        0.2684
      9 O           7.6074   -4.3965   22.8818 O.2     1  UNL1       -0.2681
     10 N           5.3279   -3.8058   23.9793 N.am    1  UNL1       -0.2646
     11 H           4.7448   -3.7789   24.7721 H       1  UNL1        0.1566
     12 C           4.8250   -3.2970   22.6608 C.ar    1  UNL1        0.1346
     13 C           4.4598   -1.8505   22.5051 C.ar    1  UNL1        0.0368
     14 C           3.9569   -1.3417   21.1867 C.ar    1  UNL1        0.0341
     15 C           3.8192   -2.2795   20.0240 C.ar    1  UNL1        0.1593
     16 F           3.3162   -1.7707   18.7056 F       1  UNL1       -0.2025
     17 C           4.1844   -3.7259   20.1798 C.ar    1  UNL1        0.1298
     18 N           4.6873   -4.2347   21.4982 N.ar    1  UNL1       -0.2267
     19 O           8.4108   -3.4415   28.9171 O.3     1  UNL1       -0.4502
     20 C           7.4374   -3.1948   30.0314 C.ar    1  UNL1        0.1834
     21 C           7.4738   -4.0512   31.2624 C.ar    1  UNL1        0.1392
     22 N           6.5004   -3.8045   32.3767 N.ar    1  UNL1       -0.2259
     23 C           5.4907   -2.7013   32.2600 C.ar    1  UNL1        0.1399
     24 C           4.5174   -2.4546   33.3743 C.3     1  UNL1        0.0737
     25 N           5.4544   -1.8450   31.0291 N.ar    1  UNL1       -0.2259
     26 C           6.4278   -2.0917   29.9148 C.ar    1  UNL1        0.1392
@<TRIPOS>BOND
     1     1     2    1
     2     2     3   ar
     3     3     4   ar
     4     4    19    1
     5    19    20    1
     6    20    21   ar
     7    21    22   ar
     8    22    23   ar
     9    23    24    1
    10    23    25   ar
    11    25    26   ar
    12     4     5   ar
    13     5     6   ar
    14     6     8    1
    15     8     9    2
    16     8    10   am
    17    10    12    1
    18    12    13   ar
    19    13    14   ar
    20    14    15   ar
    21    15    16    1
    22    15    17   ar
    23    17    18   ar
    24     6     7   ar
    25     7     2   ar
    26    26    20   ar
    27    18    12   ar
    28    10    11    1
@<TRIPOS>MOLECULE
*****
 26 28 0 0 0
SMALL
GASTEIGER

@<TRIPOS>ATOM
      1 C           4.7432    3.3201   17.8926 C.3     1  UNL1        0.0522
      2 C           3.8874    2.1578   18.3010 C.ar    1  UNL1        0.0625
      3 C           4.3145    0.7588   17.9691 C.ar    1  UNL1        0.0522
      4 C           3.4588   -0.4035   18.3775 C.ar    1  UNL1        0.1483
      5 C           2.1759   -0.1667   19.1180 C.ar    1  UNL1        0.0612
      6 C           1.7489    1.2323   19.4499 C.ar    1  UNL1        0.1374
      7 N           2.6046    2.3946   19.0415 N.ar    1  UNL1       -0.2449
      8 C           0.4660    1.4692   20.1904 C.2     1  UNL1        0.2684
      9 O          -0.2728    0.3143   20.7991 O.2     1  UNL1       -0.2681
     10 N          -0.0780    2.8608   20.3221 N.am    1  UNL1       -0.2646
     11 H           0.4069    3.6187   19.9226 H       1  UNL1        0.1566
     12 C          -1.3609    3.0976   21.0626 C.ar    1  UNL1        0.1346
     13 C          -1.3293    3.5216   22.5011 C.ar    1  UNL1        0.0368
     14 C          -2.6121    3.7584   23.2415 C.ar    1  UNL1        0.0341
     15 C          -3.9265    3.5713   22.5434 C.ar    1  UNL1        0.1593
     16 F          -5.2094    3.8081   23.2839 F       1  UNL1       -0.2025
     17 C          -3.9581    3.1473   21.1049 C.ar    1  UNL1        0.1298
     18 N          -2.6753    2.9105   20.3646 N.ar    1  UNL1       -0.2267
     19 O           3.8859   -1.8026   18.0455 O.3     1  UNL1       -0.4502
     20 C           4.9159   -2.4926   18.8899 C.ar    1  UNL1        0.1834
     21 C           4.4965   -3.5422   19.8762 C.ar    1  UNL1        0.1392
     22 N           5.5265   -4.2322   20.7205 N.ar    1  UNL1       -0.2259
     23 C           6.9759   -3.8726   20.5786 C.ar    1  UNL1        0.1399
     24 C           8.0060   -4.5626   21.4230 C.3     1  UNL1        0.0737
     25 N           7.3952   -2.8231   19.5924 N.ar    1  UNL1       -0.2259
     26 C           6.3652   -2.1331   18.7480 C.ar    1  UNL1        0.1392
@<TRIPOS>BOND
     1     1     2    1
     2     2     3   ar
     3     3     4   ar
     4     4    19    1
     5    19    20    1
     6    20    21   ar
     7    21    22   ar
     8    22    23   ar
     9    23    24    1
    10    23    25   ar
    11    25    26   ar
    12     4     5   ar
    13     5     6   ar
    14     6     8    1
    15     8     9    2
    16     8    10   am
    17    10    12    1
    18    12    13   ar
    19    13    14   ar
    20    14    15   ar
    21    15    16    1
    22    15    17   ar
    23    17    18   ar
    24     6     7   ar
    25     7     2   ar
    26    26    20   ar
    27    18    12   ar
    28    10    11    1
@<TRIPOS>MOLECULE
*****
 26 28 0 0 0
SMALL
GASTEIGER

@<TRIPOS>ATOM
      1 C           9.0344   -4.3058   24.5257 C.3     1  UNL1        0.0522
      2 C           7.6478   -3.8098   24.2403 C.ar    1  UNL1        0.0625
      3 C           6.9116   -4.2975   23.0278 C.ar    1  UNL1        0.0522
      4 C           5.5250   -3.8016   22.7424 C.ar    1  UNL1        0.1483
      5 C           4.8747   -2.8179   23.6694 C.ar    1  UNL1        0.0612
      6 C           5.6110   -2.3302   24.8819 C.ar    1  UNL1        0.1374
      7 N           6.9975   -2.8261   25.1673 N.ar    1  UNL1       -0.2449
      8 C           4.9606   -1.3464   25.8089 C.2     1  UNL1        0.2684
      9 O           5.6721   -0.0777   26.1753 O.2     1  UNL1       -0.2681
     10 N           3.5989   -1.6314   26.3697 N.am    1  UNL1       -0.2646
     11 H           3.1320   -2.4641   26.1292 H       1  UNL1        0.1566
     12 C           2.9486   -0.6477   27.2967 C.ar    1  UNL1        0.1346
     13 C           2.4860    0.6808   26.7761 C.ar    1  UNL1        0.0368
     14 C           1.8357    1.6644   27.7032 C.ar    1  UNL1        0.0341
     15 C           1.6480    1.3196   29.1509 C.ar    1  UNL1        0.1593
     16 F           0.9977    2.3033   30.0780 F       1  UNL1       -0.2025
     17 C           2.1106   -0.0089   29.6715 C.ar    1  UNL1        0.1298
     18 N           2.7609   -0.9925   28.7445 N.ar    1  UNL1       -0.2267
     19 O           4.7888   -4.2894   21.5299 O.3     1  UNL1       -0.4502
     20 C           4.6080   -3.3840   20.3477 C.ar    1  UNL1        0.1834
     21 C           3.6214   -2.2558   20.4109 C.ar    1  UNL1        0.1392
     22 N           3.4406   -1.3505   19.2286 N.ar    1  UNL1       -0.2259
     23 C           4.2464   -1.5734   17.9832 C.ar    1  UNL1        0.1399
     24 C           4.0656   -0.6680   16.8009 C.3     1  UNL1        0.0737
     25 N           5.2329   -2.7015   17.9200 N.ar    1  UNL1       -0.2259
     26 C           5.4137   -3.6068   19.1022 C.ar    1  UNL1        0.1392
@<TRIPOS>BOND
     1     1     2    1
     2     2     3   ar
     3     3     4   ar
     4     4    19    1
     5    19    20    1
     6    20    21   ar
     7    21    22   ar
     8    22    23   ar
     9    23    24    1
    10    23    25   ar
    11    25    26   ar
    12     4     5   ar
    13     5     6   ar
    14     6     8    1
    15     8     9    2
    16     8    10   am
    17    10    12    1
    18    12    13   ar
    19    13    14   ar
    20    14    15   ar
    21    15    16    1
    22    15    17   ar
    23    17    18   ar
    24     6     7   ar
    25     7     2   ar
    26    26    20   ar
    27    18    12   ar
    28    10    11    1
