@<TRIPOS>MOLECULE
*****
 16 17 0 0 0
SMALL
GASTEIGER

@<TRIPOS>ATOM
      1 CL         -5.1867  -15.1691   26.2211 Cl      1  UNL1       -0.0814
      2 C          -6.3703  -15.5239   25.3709 C.ar    1  UNL1        0.0682
      3 C          -6.1854  -15.8118   23.9104 C.ar    1  UNL1        0.0119
      4 C          -7.3692  -16.1667   23.0602 C.ar    1  UNL1       -0.0033
      5 C          -8.7378  -16.2336   23.6704 C.ar    1  UNL1       -0.0203
      6 C          -8.9227  -15.9456   25.1308 C.ar    1  UNL1        0.0080
      7 C          -7.7390  -15.5908   25.9811 C.ar    1  UNL1        0.0679
      8 CL         -7.9240  -15.3029   27.4415 Cl      1  UNL1       -0.0814
      9 C          -9.9215  -16.5884   22.8202 C.3     1  UNL1        0.0381
     10 C         -10.9662  -17.4380   23.4812 C.3     1  UNL1        0.0058
     11 C         -12.2515  -17.9558   22.9067 C.3     1  UNL1        0.0018
     12 C         -12.8095  -17.7518   21.5294 C.3     1  UNL1        0.0171
     13 C         -12.2201  -16.9798   20.3864 C.3     1  UNL1        0.0686
     14 N         -10.9271  -16.2209   20.3384 N.3     1  UNL1       -0.2972
     15 C          -9.9042  -16.0468   21.4216 C.3     1  UNL1        0.0729
     16 H         -11.1980  -15.2701   20.0875 H       1  UNL1        0.1233
@<TRIPOS>BOND
     1     1     2    1
     2     2     3   ar
     3     3     4   ar
     4     4     5   ar
     5     5     9    1
     6     9    10    1
     7    10    11    1
     8    11    12    1
     9    12    13    1
    10    13    14    1
    11    14    15    1
    12     5     6   ar
    13     6     7   ar
    14     7     8    1
    15     7     2   ar
    16    15     9    1
    17    14    16    1
@<TRIPOS>MOLECULE
*****
 16 17 0 0 0
SMALL
GASTEIGER

@<TRIPOS>ATOM
      1 CL         -1.8664  -19.6442   21.0007 Cl      1  UNL1       -0.0814
      2 C          -3.3632  -19.6341   21.0968 C.ar    1  UNL1        0.0682
      3 C          -4.1815  -20.4557   20.1453 C.ar    1  UNL1        0.0119
      4 C          -5.6784  -20.4455   20.2414 C.ar    1  UNL1       -0.0033
      5 C          -6.3570  -19.6137   21.2890 C.ar    1  UNL1       -0.0203
      6 C          -5.5388  -18.7920   22.2405 C.ar    1  UNL1        0.0080
      7 C          -4.0419  -18.8022   22.1444 C.ar    1  UNL1        0.0679
      8 CL         -3.2237  -17.9805   23.0959 Cl      1  UNL1       -0.0814
      9 C          -7.8539  -19.6035   21.3852 C.3     1  UNL1        0.0381
     10 C          -8.5884  -19.4513   20.0861 C.3     1  UNL1        0.0058
     11 C         -10.0689  -19.4048   19.8487 C.3     1  UNL1        0.0018
     12 C         -11.1802  -19.4990   20.8515 C.3     1  UNL1        0.0171
     13 C         -11.0859  -19.6631   22.3396 C.3     1  UNL1        0.0686
     14 N          -9.8567  -19.7733   23.1922 N.3     1  UNL1       -0.2972
     15 C          -8.4184  -19.7468   22.7674 C.3     1  UNL1        0.0729
     16 H          -9.9628  -20.6630   23.6797 H       1  UNL1        0.1233
@<TRIPOS>BOND
     1     1     2    1
     2     2     3   ar
     3     3     4   ar
     4     4     5   ar
     5     5     9    1
     6     9    10    1
     7    10    11    1
     8    11    12    1
     9    12    13    1
    10    13    14    1
    11    14    15    1
    12     5     6   ar
    13     6     7   ar
    14     7     8    1
    15     7     2   ar
    16    15     9    1
    17    14    16    1
@<TRIPOS>MOLECULE
*****
 16 17 0 0 0
SMALL
GASTEIGER

@<TRIPOS>ATOM
      1 CL         -3.3015  -20.0970   21.1544 Cl      1  UNL1       -0.0814
      2 C          -4.7182  -19.6166   21.2637 C.ar    1  UNL1        0.0682
      3 C          -5.7635  -20.1444   20.3262 C.ar    1  UNL1        0.0119
      4 C          -7.1804  -19.6639   20.4354 C.ar    1  UNL1       -0.0033
      5 C          -7.5518  -18.6558   21.4822 C.ar    1  UNL1       -0.0203
      6 C          -6.5065  -18.1281   22.4197 C.ar    1  UNL1        0.0080
      7 C          -5.0897  -18.6085   22.3105 C.ar    1  UNL1        0.0679
      8 CL         -4.0444  -18.0808   23.2479 Cl      1  UNL1       -0.0814
      9 C          -8.9686  -18.1754   21.5915 C.3     1  UNL1        0.0381
     10 C         -10.0200  -19.1376   21.1235 C.3     1  UNL1        0.0058
     11 C         -11.5091  -18.9583   21.1028 C.3     1  UNL1        0.0018
     12 C         -12.3146  -17.7727   21.5449 C.3     1  UNL1        0.0171
     13 C         -11.8300  -16.4735   22.1169 C.3     1  UNL1        0.0686
     14 N         -10.4201  -16.0390   22.3881 N.3     1  UNL1       -0.2972
     15 C          -9.1467  -16.7965   22.1543 C.3     1  UNL1        0.0729
     16 H         -10.4076  -15.8194   23.3841 H       1  UNL1        0.1233
@<TRIPOS>BOND
     1     1     2    1
     2     2     3   ar
     3     3     4   ar
     4     4     5   ar
     5     5     9    1
     6     9    10    1
     7    10    11    1
     8    11    12    1
     9    12    13    1
    10    13    14    1
    11    14    15    1
    12     5     6   ar
    13     6     7   ar
    14     7     8    1
    15     7     2   ar
    16    15     9    1
    17    14    16    1
@<TRIPOS>MOLECULE
*****
 16 17 0 0 0
SMALL
GASTEIGER

@<TRIPOS>ATOM
      1 CL         -6.3075  -15.0120   27.1945 Cl      1  UNL1       -0.0814
      2 C          -7.0826  -15.6559   26.0835 C.ar    1  UNL1        0.0682
      3 C          -8.4533  -16.2058   26.3458 C.ar    1  UNL1        0.0119
      4 C          -9.2284  -16.8497   25.2346 C.ar    1  UNL1       -0.0033
      5 C          -8.6328  -16.9437   23.8612 C.ar    1  UNL1       -0.0203
      6 C          -7.2622  -16.3939   23.5988 C.ar    1  UNL1        0.0080
      7 C          -6.4870  -15.7500   24.7099 C.ar    1  UNL1        0.0679
      8 CL         -5.1163  -15.2001   24.4476 Cl      1  UNL1       -0.0814
      9 C          -9.4079  -17.5876   22.7500 C.3     1  UNL1        0.0381
     10 C          -9.7721  -19.0276   22.9600 C.3     1  UNL1        0.0058
     11 C         -10.5346  -19.9420   22.0476 C.3     1  UNL1        0.0018
     12 C         -11.1212  -19.6424   20.7001 C.3     1  UNL1        0.0171
     13 C         -11.0903  -18.3543   19.9319 C.3     1  UNL1        0.0686
     14 N         -10.4651  -17.0478   20.3218 N.3     1  UNL1       -0.2972
     15 C          -9.7163  -16.7066   21.5760 C.3     1  UNL1        0.0729
     16 H         -11.2338  -16.3779   20.2929 H       1  UNL1        0.1233
@<TRIPOS>BOND
     1     1     2    1
     2     2     3   ar
     3     3     4   ar
     4     4     5   ar
     5     5     9    1
     6     9    10    1
     7    10    11    1
     8    11    12    1
     9    12    13    1
    10    13    14    1
    11    14    15    1
    12     5     6   ar
    13     6     7   ar
    14     7     8    1
    15     7     2   ar
    16    15     9    1
    17    14    16    1
@<TRIPOS>MOLECULE
*****
 16 17 0 0 0
SMALL
GASTEIGER

@<TRIPOS>ATOM
      1 CL         -4.9565  -19.4426   19.7917 Cl      1  UNL1       -0.0814
      2 C          -6.2797  -19.2401   20.4683 C.ar    1  UNL1        0.0682
      3 C          -7.5520  -19.5398   19.7324 C.ar    1  UNL1        0.0119
      4 C          -8.8754  -19.3372   20.4090 C.ar    1  UNL1       -0.0033
      5 C          -8.9264  -18.8350   21.8215 C.ar    1  UNL1       -0.0203
      6 C          -7.6542  -18.5354   22.5574 C.ar    1  UNL1        0.0080
      7 C          -6.3308  -18.7379   21.8808 C.ar    1  UNL1        0.0679
      8 CL         -5.0586  -18.4382   22.6167 Cl      1  UNL1       -0.0814
      9 C         -10.2497  -18.6325   22.4981 C.3     1  UNL1        0.0381
     10 C         -11.3275  -18.0238   21.6507 C.3     1  UNL1        0.0058
     11 C         -12.7421  -17.6976   22.0286 C.3     1  UNL1        0.0018
     12 C         -13.4281  -17.8997   23.3471 C.3     1  UNL1        0.0171
     13 C         -12.8692  -18.4777   24.6134 C.3     1  UNL1        0.0686
     14 N         -11.4861  -18.9965   24.8739 N.3     1  UNL1       -0.2972
     15 C         -10.3204  -19.0653   23.9325 C.3     1  UNL1        0.0729
     16 H         -11.6275  -19.9602   25.1765 H       1  UNL1        0.1233
@<TRIPOS>BOND
     1     1     2    1
     2     2     3   ar
     3     3     4   ar
     4     4     5   ar
     5     5     9    1
     6     9    10    1
     7    10    11    1
     8    11    12    1
     9    12    13    1
    10    13    14    1
    11    14    15    1
    12     5     6   ar
    13     6     7   ar
    14     7     8    1
    15     7     2   ar
    16    15     9    1
    17    14    16    1
@<TRIPOS>MOLECULE
*****
 16 17 0 0 0
SMALL
GASTEIGER

@<TRIPOS>ATOM
      1 CL         -3.5131  -17.6473   23.2344 Cl      1  UNL1       -0.0814
      2 C          -5.0052  -17.5630   23.1058 C.ar    1  UNL1        0.0682
      3 C          -5.7495  -18.5983   22.3158 C.ar    1  UNL1        0.0119
      4 C          -7.2417  -18.5140   22.1872 C.ar    1  UNL1       -0.0033
      5 C          -7.9894  -17.3944   22.8486 C.ar    1  UNL1       -0.0203
      6 C          -7.2450  -16.3591   23.6386 C.ar    1  UNL1        0.0080
      7 C          -5.7529  -16.4434   23.7672 C.ar    1  UNL1        0.0679
      8 CL         -5.0085  -15.4081   24.5572 Cl      1  UNL1       -0.0814
      9 C          -9.4815  -17.3101   22.7200 C.3     1  UNL1        0.0381
     10 C         -10.2654  -18.1883   23.6497 C.3     1  UNL1        0.0058
     11 C         -11.7539  -18.3320   23.7677 C.3     1  UNL1        0.0018
     12 C         -12.8259  -17.6331   22.9854 C.3     1  UNL1        0.0171
     13 C         -12.6744  -16.6177   21.8917 C.3     1  UNL1        0.0686
     14 N         -11.4133  -16.0506   21.3103 N.3     1  UNL1       -0.2972
     15 C          -9.9924  -16.3588   21.6790 C.3     1  UNL1        0.0729
     16 H         -11.4998  -15.0434   21.4459 H       1  UNL1        0.1233
@<TRIPOS>BOND
     1     1     2    1
     2     2     3   ar
     3     3     4   ar
     4     4     5   ar
     5     5     9    1
     6     9    10    1
     7    10    11    1
     8    11    12    1
     9    12    13    1
    10    13    14    1
    11    14    15    1
    12     5     6   ar
    13     6     7   ar
    14     7     8    1
    15     7     2   ar
    16    15     9    1
    17    14    16    1
@<TRIPOS>MOLECULE
*****
 16 17 0 0 0
SMALL
GASTEIGER

@<TRIPOS>ATOM
      1 CL         -9.9670   -4.1785   18.9774 Cl      1  UNL1       -0.0814
      2 C         -11.1667   -5.0788   18.9785 C.ar    1  UNL1        0.0682
      3 C         -12.5130   -4.5338   19.3533 C.ar    1  UNL1        0.0119
      4 C         -13.7128   -5.4342   19.3544 C.ar    1  UNL1       -0.0033
      5 C         -13.5662   -6.8794   18.9807 C.ar    1  UNL1       -0.0203
      6 C         -12.2199   -7.4244   18.6058 C.ar    1  UNL1        0.0080
      7 C         -11.0201   -6.5241   18.6047 C.ar    1  UNL1        0.0679
      8 CL         -9.6738   -7.0690   18.2299 Cl      1  UNL1       -0.0814
      9 C         -14.7659   -7.7798   18.9817 C.3     1  UNL1        0.0381
     10 C         -16.0125   -7.2023   19.5841 C.3     1  UNL1        0.0058
     11 C         -17.3615   -7.8410   19.7338 C.3     1  UNL1        0.0018
     12 C         -17.7970   -9.2148   19.3181 C.3     1  UNL1        0.0171
     13 C         -16.9913  -10.2893   18.6501 C.3     1  UNL1        0.0686
     14 N         -15.5510  -10.2554   18.2328 N.3     1  UNL1       -0.2972
     15 C         -14.5606   -9.1385   18.3804 C.3     1  UNL1        0.0729
     16 H         -15.5704  -10.4490   17.2315 H       1  UNL1        0.1233
@<TRIPOS>BOND
     1     1     2    1
     2     2     3   ar
     3     3     4   ar
     4     4     5   ar
     5     5     9    1
     6     9    10    1
     7    10    11    1
     8    11    12    1
     9    12    13    1
    10    13    14    1
    11    14    15    1
    12     5     6   ar
    13     6     7   ar
    14     7     8    1
    15     7     2   ar
    16    15     9    1
    17    14    16    1
@<TRIPOS>MOLECULE
*****
 16 17 0 0 0
SMALL
GASTEIGER

@<TRIPOS>ATOM
      1 CL        -18.9304   -6.5381   19.6756 Cl      1  UNL1       -0.0814
      2 C         -17.4483   -6.3442   19.5505 C.ar    1  UNL1        0.0682
      3 C         -16.5578   -7.5213   19.2833 C.ar    1  UNL1        0.0119
      4 C         -15.0756   -7.3274   19.1583 C.ar    1  UNL1       -0.0033
      5 C         -14.4840   -5.9564   19.3004 C.ar    1  UNL1       -0.0203
      6 C         -15.3745   -4.7792   19.5676 C.ar    1  UNL1        0.0080
      7 C         -16.8566   -4.9731   19.6927 C.ar    1  UNL1        0.0679
      8 CL        -17.7471   -3.7960   19.9599 Cl      1  UNL1       -0.0814
      9 C         -13.0018   -5.7624   19.1754 C.3     1  UNL1        0.0381
     10 C         -12.2036   -7.0034   18.9055 C.3     1  UNL1        0.0058
     11 C         -10.7202   -7.1416   18.7304 C.3     1  UNL1        0.0018
     12 C          -9.6689   -6.0731   18.7818 C.3     1  UNL1        0.0171
     13 C          -9.8411   -4.6023   19.0210 C.3     1  UNL1        0.0686
     14 N         -11.1072   -3.8369   19.2680 N.3     1  UNL1       -0.2972
     15 C         -12.5139   -4.3533   19.3367 C.3     1  UNL1        0.0729
     16 H         -11.1289   -3.1337   18.5294 H       1  UNL1        0.1233
@<TRIPOS>BOND
     1     1     2    1
     2     2     3   ar
     3     3     4   ar
     4     4     5   ar
     5     5     9    1
     6     9    10    1
     7    10    11    1
     8    11    12    1
     9    12    13    1
    10    13    14    1
    11    14    15    1
    12     5     6   ar
    13     6     7   ar
    14     7     8    1
    15     7     2   ar
    16    15     9    1
    17    14    16    1
@<TRIPOS>MOLECULE
*****
 16 17 0 0 0
SMALL
GASTEIGER

@<TRIPOS>ATOM
      1 CL        -17.2388  -10.1865   18.5495 Cl      1  UNL1       -0.0814
      2 C         -16.1386   -9.1674   18.5781 C.ar    1  UNL1        0.0682
      3 C         -14.8508   -9.4335   17.8565 C.ar    1  UNL1        0.0119
      4 C         -13.7505   -8.4143   17.8851 C.ar    1  UNL1       -0.0033
      5 C         -13.9381   -7.1291   18.6354 C.ar    1  UNL1       -0.0203
      6 C         -15.2258   -6.8630   19.3570 C.ar    1  UNL1        0.0080
      7 C         -16.3261   -7.8821   19.3284 C.ar    1  UNL1        0.0679
      8 CL        -17.6139   -7.6160   20.0501 Cl      1  UNL1       -0.0814
      9 C         -12.8379   -6.1099   18.6641 C.3     1  UNL1        0.0381
     10 C         -11.4537   -6.6520   18.8654 C.3     1  UNL1        0.0058
     11 C         -10.1571   -5.9014   18.9400 C.3     1  UNL1        0.0018
     12 C          -9.9244   -4.4237   18.8317 C.3     1  UNL1        0.0171
     13 C         -10.9307   -3.3312   18.6221 C.3     1  UNL1        0.0686
     14 N         -12.4184   -3.4469   18.4689 N.3     1  UNL1       -0.2972
     15 C         -13.2671   -4.6836   18.4876 C.3     1  UNL1        0.0729
     16 H         -12.6168   -3.0145   17.5667 H       1  UNL1        0.1233
@<TRIPOS>BOND
     1     1     2    1
     2     2     3   ar
     3     3     4   ar
     4     4     5   ar
     5     5     9    1
     6     9    10    1
     7    10    11    1
     8    11    12    1
     9    12    13    1
    10    13    14    1
    11    14    15    1
    12     5     6   ar
    13     6     7   ar
    14     7     8    1
    15     7     2   ar
    16    15     9    1
    17    14    16    1
