@<TRIPOS>MOLECULE
*****
 30 34 0 0 0
SMALL
GASTEIGER

@<TRIPOS>ATOM
      1 C         -16.0206    1.2342   19.4853 C.ar    1  UNL1        0.1446
      2 C         -16.1723   -0.1405   20.0657 C.ar    1  UNL1        0.0389
      3 C         -15.3006   -1.2602   19.5797 C.ar    1  UNL1        0.0204
      4 C         -15.2215   -2.7088   19.9611 C.ar    1  UNL1        0.0234
      5 C         -14.1491   -3.3490   19.1304 C.ar    1  UNL1        0.1142
      6 N         -13.5654   -2.2961   18.2356 N.ar    1  UNL1       -0.3238
      7 C         -14.2770   -1.0051   18.5133 C.ar    1  UNL1        0.0607
      8 C         -14.1252    0.3696   17.9329 C.ar    1  UNL1        0.0269
      9 C         -14.9970    1.4893   18.4189 C.ar    1  UNL1        0.0699
     10 BR        -14.8453    2.8642   17.8385 Br      1  UNL1       -0.0458
     11 C         -12.4612   -2.6488   17.2836 C.3     1  UNL1        0.1054
     12 C         -11.8775   -1.5959   16.3887 C.3     1  UNL1        0.0263
     13 C         -11.9408   -4.0545   17.2263 C.3     1  UNL1        0.1162
     14 N         -12.5245   -5.1074   18.1211 N.am    1  UNL1       -0.2730
     15 C         -13.6287   -4.7547   19.0731 C.2     1  UNL1        0.2650
     16 O         -14.2124   -5.8076   19.9679 O.2     1  UNL1       -0.2683
     17 O         -16.8924    2.3540   19.9713 O.3     1  UNL1       -0.4786
     18 N         -16.0024    4.3547   23.9026 N.3     1  UNL1       -0.2737
     19 C         -17.0159    3.2509   23.8353 C.3     1  UNL1        0.0758
     20 C         -17.3125    2.5840   22.5249 C.3     1  UNL1        0.0609
     21 C         -16.5957    3.0209   21.2818 C.3     1  UNL1        0.1687
     22 C         -15.5823    4.1248   21.3491 C.3     1  UNL1        0.0609
     23 C         -15.2856    4.7916   22.6595 C.3     1  UNL1        0.0758
     24 C         -14.3082    5.0167   25.7577 C.3     1  UNL1        0.0173
     25 C         -15.7058    5.0216   25.2131 C.3     1  UNL1        0.0576
     26 C         -16.8069    5.6934   25.9789 C.3     1  UNL1        0.0173
     27 C         -12.0041   -6.5131   18.0638 C.3     1  UNL1        0.0938
     28 C         -10.6110   -6.8166   18.5298 C.3     1  UNL1        0.0199
     29 C          -9.3571   -6.3955   19.2371 C.3     1  UNL1        0.0018
     30 C          -9.4520   -7.7636   18.6295 C.3     1  UNL1        0.0018
@<TRIPOS>BOND
     1    24    25    1
     2    25    26    1
     3    25    18    1
     4    18    19    1
     5    19    20    1
     6    20    21    1
     7    21    17    1
     8    17     1    1
     9     1     2   ar
    10     2     3   ar
    11     3     4   ar
    12     4     5   ar
    13     5     6   ar
    14     6     7   ar
    15     7     8   ar
    16     8     9   ar
    17     9    10    1
    18     6    11    1
    19    11    12    1
    20    11    13    1
    21    13    14    1
    22    14    27    1
    23    27    28    1
    24    28    29    1
    25    29    30    1
    26    14    15   am
    27    15    16    2
    28    21    22    1
    29    22    23    1
    30    23    18    1
    31     9     1   ar
    32    30    28    1
    33     7     3   ar
    34    15     5    1
@<TRIPOS>MOLECULE
*****
 30 34 0 0 0
SMALL
GASTEIGER

@<TRIPOS>ATOM
      1 C           7.5453   -4.7985   23.2243 C.ar    1  UNL1        0.1446
      2 C           6.9416   -3.7049   24.0547 C.ar    1  UNL1        0.0389
      3 C           6.9155   -3.8257   25.5495 C.ar    1  UNL1        0.0204
      4 C           6.3912   -2.9163   26.6210 C.ar    1  UNL1        0.0234
      5 C           6.6447   -3.5687   27.9477 C.ar    1  UNL1        0.1142
      6 N           7.3256   -4.8813   27.6962 N.ar    1  UNL1       -0.3238
      7 C           7.4930   -5.0402   26.2140 C.ar    1  UNL1        0.0607
      8 C           8.0967   -6.1338   25.3837 C.ar    1  UNL1        0.0269
      9 C           8.1228   -6.0130   23.8888 C.ar    1  UNL1        0.0699
     10 BR          8.7265   -7.1066   23.0584 Br      1  UNL1       -0.0458
     11 C           7.7054   -5.7623   28.8493 C.3     1  UNL1        0.1054
     12 C           8.3864   -7.0750   28.5978 C.3     1  UNL1        0.0263
     13 C           7.4041   -5.3306   30.2539 C.3     1  UNL1        0.1162
     14 N           6.7231   -4.0180   30.5055 N.am    1  UNL1       -0.2730
     15 C           6.3434   -3.1370   29.3524 C.2     1  UNL1        0.2650
     16 O           5.6624   -1.8244   29.6039 O.2     1  UNL1       -0.2683
     17 O           7.5714   -4.6778   21.7294 O.3     1  UNL1       -0.4786
     18 N           4.6051   -2.0202   19.6345 N.3     1  UNL1       -0.2737
     19 C           6.0710   -1.7108   19.5623 C.3     1  UNL1        0.0758
     20 C           7.0598   -2.5967   20.2606 C.3     1  UNL1        0.0609
     21 C           6.5826   -3.7919   21.0311 C.3     1  UNL1        0.1687
     22 C           5.1166   -4.1013   21.1033 C.3     1  UNL1        0.0609
     23 C           4.1279   -3.2155   20.4050 C.3     1  UNL1        0.0758
     24 C           2.4302   -0.5998   19.6828 C.3     1  UNL1        0.0173
     25 C           3.6163   -1.1344   18.9363 C.3     1  UNL1        0.0576
     26 C           3.8136   -0.7831   17.4913 C.3     1  UNL1        0.0173
     27 C           6.4219   -3.5864   31.9101 C.3     1  UNL1        0.0938
     28 C           7.2194   -2.4852   32.5437 C.3     1  UNL1        0.0199
     29 C           8.5396   -1.9238   32.9817 C.3     1  UNL1        0.0018
     30 C           7.2805   -1.1393   33.2031 C.3     1  UNL1        0.0018
@<TRIPOS>BOND
     1    24    25    1
     2    25    26    1
     3    25    18    1
     4    18    19    1
     5    19    20    1
     6    20    21    1
     7    21    17    1
     8    17     1    1
     9     1     2   ar
    10     2     3   ar
    11     3     4   ar
    12     4     5   ar
    13     5     6   ar
    14     6     7   ar
    15     7     8   ar
    16     8     9   ar
    17     9    10    1
    18     6    11    1
    19    11    12    1
    20    11    13    1
    21    13    14    1
    22    14    27    1
    23    27    28    1
    24    28    29    1
    25    29    30    1
    26    14    15   am
    27    15    16    2
    28    21    22    1
    29    22    23    1
    30    23    18    1
    31     9     1   ar
    32    30    28    1
    33     7     3   ar
    34    15     5    1
@<TRIPOS>MOLECULE
*****
 30 34 0 0 0
SMALL
GASTEIGER

@<TRIPOS>ATOM
      1 C         -16.9888    0.3708   19.8042 C.ar    1  UNL1        0.1446
      2 C         -15.5729    0.2594   19.3219 C.ar    1  UNL1        0.0389
      3 C         -14.9823   -1.0892   19.0350 C.ar    1  UNL1        0.0204
      4 C         -13.6254   -1.5086   18.5522 C.ar    1  UNL1        0.0234
      5 C         -13.6121   -3.0050   18.4494 C.ar    1  UNL1        0.1142
      6 N         -14.9607   -3.5104   18.8686 N.ar    1  UNL1       -0.3238
      7 C         -15.8075   -2.3264   19.2306 C.ar    1  UNL1        0.0607
      8 C         -17.2234   -2.2150   19.7129 C.ar    1  UNL1        0.0269
      9 C         -17.8141   -0.8664   19.9998 C.ar    1  UNL1        0.0699
     10 BR        -19.2301   -0.7549   20.4822 Br      1  UNL1       -0.0458
     11 C         -15.2434   -4.9835   18.8666 C.3     1  UNL1        0.1054
     12 C         -16.5920   -5.4890   19.2859 C.3     1  UNL1        0.0263
     13 C         -14.1774   -5.9512   18.4454 C.3     1  UNL1        0.1162
     14 N         -12.8288   -5.4458   18.0262 N.am    1  UNL1       -0.2730
     15 C         -12.5461   -3.9727   18.0281 C.2     1  UNL1        0.2650
     16 O         -11.1975   -3.4672   17.6089 O.2     1  UNL1       -0.2683
     17 O         -17.5796    1.7195   20.0911 O.3     1  UNL1       -0.4786
     18 N         -16.1997    4.0641   23.6756 N.3     1  UNL1       -0.2737
     19 C         -17.0891    2.8701   23.8575 C.3     1  UNL1        0.0758
     20 C         -17.5491    2.0885   22.6626 C.3     1  UNL1        0.0609
     21 C         -17.1196    2.5010   21.2859 C.3     1  UNL1        0.1687
     22 C         -16.2301    3.6951   21.1040 C.3     1  UNL1        0.0609
     23 C         -15.7702    4.4766   22.2988 C.3     1  UNL1        0.0758
     24 C         -14.3271    4.7107   25.3564 C.3     1  UNL1        0.0173
     25 C         -15.7397    4.8456   24.8704 C.3     1  UNL1        0.0576
     26 C         -16.6925    5.7621   25.5793 C.3     1  UNL1        0.0173
     27 C         -11.7629   -6.4134   17.6049 C.3     1  UNL1        0.0938
     28 C         -10.5308   -6.5838   18.4433 C.3     1  UNL1        0.0199
     29 C          -9.4911   -6.0057   19.3570 C.3     1  UNL1        0.0018
     30 C          -9.4366   -7.4571   18.9819 C.3     1  UNL1        0.0018
@<TRIPOS>BOND
     1    24    25    1
     2    25    26    1
     3    25    18    1
     4    18    19    1
     5    19    20    1
     6    20    21    1
     7    21    17    1
     8    17     1    1
     9     1     2   ar
    10     2     3   ar
    11     3     4   ar
    12     4     5   ar
    13     5     6   ar
    14     6     7   ar
    15     7     8   ar
    16     8     9   ar
    17     9    10    1
    18     6    11    1
    19    11    12    1
    20    11    13    1
    21    13    14    1
    22    14    27    1
    23    27    28    1
    24    28    29    1
    25    29    30    1
    26    14    15   am
    27    15    16    2
    28    21    22    1
    29    22    23    1
    30    23    18    1
    31     9     1   ar
    32    30    28    1
    33     7     3   ar
    34    15     5    1
@<TRIPOS>MOLECULE
*****
 30 34 0 0 0
SMALL
GASTEIGER

@<TRIPOS>ATOM
      1 C           7.2453   -4.6120   23.5149 C.ar    1  UNL1        0.1446
      2 C           5.9509   -3.8777   23.7025 C.ar    1  UNL1        0.0389
      3 C           5.3515   -3.1109   22.5613 C.ar    1  UNL1        0.0204
      4 C           4.0968   -2.2966   22.4483 C.ar    1  UNL1        0.0234
      5 C           4.0163   -1.7608   21.0496 C.ar    1  UNL1        0.1142
      6 N           5.2212   -2.2439   20.2981 N.ar    1  UNL1       -0.3238
      7 C           6.0465   -3.0782   21.2324 C.ar    1  UNL1        0.0607
      8 C           7.3409   -3.8125   21.0448 C.ar    1  UNL1        0.0269
      9 C           7.9403   -4.5794   22.1860 C.ar    1  UNL1        0.0699
     10 BR          9.2348   -5.3137   21.9984 Br      1  UNL1       -0.0458
     11 C           5.4114   -1.8616   18.8602 C.3     1  UNL1        0.1054
     12 C           6.6164   -2.3446   18.1087 C.3     1  UNL1        0.0263
     13 C           4.3966   -0.9962   18.1737 C.3     1  UNL1        0.1162
     14 N           3.1916   -0.5131   18.9251 N.am    1  UNL1       -0.2730
     15 C           3.0014   -0.8954   20.3631 C.2     1  UNL1        0.2650
     16 O           1.7965   -0.4123   21.1145 O.2     1  UNL1       -0.2683
     17 O           7.8449   -5.3789   24.6562 O.3     1  UNL1       -0.4786
     18 N           7.0083   -4.1244   28.8960 N.3     1  UNL1       -0.2737
     19 C           6.3039   -5.3133   28.3129 C.3     1  UNL1        0.0758
     20 C           6.5827   -5.7315   26.8995 C.3     1  UNL1        0.0609
     21 C           7.5660   -4.9608   26.0694 C.3     1  UNL1        0.1687
     22 C           8.2705   -3.7718   26.6527 C.3     1  UNL1        0.0609
     23 C           7.9916   -3.3536   28.0659 C.3     1  UNL1        0.0758
     24 C           6.1764   -2.3409   30.5922 C.3     1  UNL1        0.0173
     25 C           6.7294   -3.7062   30.3093 C.3     1  UNL1        0.0576
     26 C           7.0036   -4.6534   31.4397 C.3     1  UNL1        0.0173
     27 C           2.1767    0.3523   18.2387 C.3     1  UNL1        0.0938
     28 C           2.2089    1.8400   18.4276 C.3     1  UNL1        0.0199
     29 C           1.4876    3.1405   18.6238 C.3     1  UNL1        0.0018
     30 C           2.9860    3.1163   18.5588 C.3     1  UNL1        0.0018
@<TRIPOS>BOND
     1    24    25    1
     2    25    26    1
     3    25    18    1
     4    18    19    1
     5    19    20    1
     6    20    21    1
     7    21    17    1
     8    17     1    1
     9     1     2   ar
    10     2     3   ar
    11     3     4   ar
    12     4     5   ar
    13     5     6   ar
    14     6     7   ar
    15     7     8   ar
    16     8     9   ar
    17     9    10    1
    18     6    11    1
    19    11    12    1
    20    11    13    1
    21    13    14    1
    22    14    27    1
    23    27    28    1
    24    28    29    1
    25    29    30    1
    26    14    15   am
    27    15    16    2
    28    21    22    1
    29    22    23    1
    30    23    18    1
    31     9     1   ar
    32    30    28    1
    33     7     3   ar
    34    15     5    1
@<TRIPOS>MOLECULE
*****
 30 34 0 0 0
SMALL
GASTEIGER

@<TRIPOS>ATOM
      1 C           3.7365   -2.3620   20.8043 C.ar    1  UNL1        0.1446
      2 C           3.5357   -1.5876   22.0731 C.ar    1  UNL1        0.0389
      3 C           4.3059   -1.9560   23.3064 C.ar    1  UNL1        0.0204
      4 C           4.3185   -1.3799   24.6913 C.ar    1  UNL1        0.0234
      5 C           5.2971   -2.1667   25.5118 C.ar    1  UNL1        0.1142
      6 N           5.8894   -3.2291   24.6339 N.ar    1  UNL1       -0.3238
      7 C           5.2767   -3.0989   23.2710 C.ar    1  UNL1        0.0607
      8 C           5.4775   -3.8733   22.0022 C.ar    1  UNL1        0.0269
      9 C           4.7074   -3.5049   20.7688 C.ar    1  UNL1        0.0699
     10 BR          4.9082   -4.2793   19.4999 Br      1  UNL1       -0.0458
     11 C           6.9100   -4.1778   25.1891 C.3     1  UNL1        0.1054
     12 C           7.5023   -5.2402   24.3113 C.3     1  UNL1        0.0263
     13 C           7.3384   -4.0641   26.6222 C.3     1  UNL1        0.1162
     14 N           6.7462   -3.0018   27.5000 N.am    1  UNL1       -0.2730
     15 C           5.7256   -2.0531   26.9448 C.2     1  UNL1        0.2650
     16 O           5.1333   -0.9907   27.8227 O.2     1  UNL1       -0.2683
     17 O           2.9664   -1.9936   19.5709 O.3     1  UNL1       -0.4786
     18 N           0.8157    1.9533   19.3562 N.3     1  UNL1       -0.2737
     19 C           0.2188    0.8151   20.1295 C.3     1  UNL1        0.0758
     20 C           0.9357   -0.5006   20.2011 C.3     1  UNL1        0.0609
     21 C           2.2495   -0.6780   19.4993 C.3     1  UNL1        0.1687
     22 C           2.8464    0.4604   18.7260 C.3     1  UNL1        0.0609
     23 C           2.1295    1.7760   18.6545 C.3     1  UNL1        0.0758
     24 C          -1.0968    3.5199   20.1551 C.3     1  UNL1        0.0173
     25 C           0.0988    3.2690   19.2847 C.3     1  UNL1        0.0576
     26 C           0.5775    4.3337   18.3428 C.3     1  UNL1        0.0173
     27 C           7.1746   -2.8881   28.9331 C.3     1  UNL1        0.0938
     28 C           7.0358   -4.0648   29.8529 C.3     1  UNL1        0.0199
     29 C           6.9114   -5.5454   30.0584 C.3     1  UNL1        0.0018
     30 C           6.9200   -4.6223   31.2406 C.3     1  UNL1        0.0018
@<TRIPOS>BOND
     1    24    25    1
     2    25    26    1
     3    25    18    1
     4    18    19    1
     5    19    20    1
     6    20    21    1
     7    21    17    1
     8    17     1    1
     9     1     2   ar
    10     2     3   ar
    11     3     4   ar
    12     4     5   ar
    13     5     6   ar
    14     6     7   ar
    15     7     8   ar
    16     8     9   ar
    17     9    10    1
    18     6    11    1
    19    11    12    1
    20    11    13    1
    21    13    14    1
    22    14    27    1
    23    27    28    1
    24    28    29    1
    25    29    30    1
    26    14    15   am
    27    15    16    2
    28    21    22    1
    29    22    23    1
    30    23    18    1
    31     9     1   ar
    32    30    28    1
    33     7     3   ar
    34    15     5    1
@<TRIPOS>MOLECULE
*****
 30 34 0 0 0
SMALL
GASTEIGER

@<TRIPOS>ATOM
      1 C          -0.6824    3.0762   23.5201 C.ar    1  UNL1        0.1446
      2 C          -0.3135    2.6109   22.1427 C.ar    1  UNL1        0.0389
      3 C           0.7431    1.5614   21.9635 C.ar    1  UNL1        0.0204
      4 C           1.3134    0.9101   20.7385 C.ar    1  UNL1        0.0234
      5 C           2.3535   -0.0766   21.1797 C.ar    1  UNL1        0.1142
      6 N           2.4260   -0.0352   22.6773 N.ar    1  UNL1       -0.3238
      7 C           1.4308    0.9772   23.1618 C.ar    1  UNL1        0.0607
      8 C           1.0619    1.4425   24.5392 C.ar    1  UNL1        0.0269
      9 C           0.0053    2.4920   24.7184 C.ar    1  UNL1        0.0699
     10 BR         -0.3637    2.9573   26.0959 Br      1  UNL1       -0.0458
     11 C           3.3890   -0.9246   23.4064 C.3     1  UNL1        0.1054
     12 C           3.4616   -0.8831   24.9042 C.3     1  UNL1        0.0263
     13 C           4.2794   -1.8555   22.6379 C.3     1  UNL1        0.1162
     14 N           4.2068   -1.8969   21.1402 N.am    1  UNL1       -0.2730
     15 C           3.2439   -1.0075   20.4111 C.2     1  UNL1        0.2650
     16 O           3.1713   -1.0490   18.9134 O.2     1  UNL1       -0.2683
     17 O          -1.7390    4.1257   23.6993 O.3     1  UNL1       -0.4786
     18 N          -5.2196    4.3233   20.8540 N.3     1  UNL1       -0.2737
     19 C          -4.0172    5.1913   20.6294 C.3     1  UNL1        0.0758
     20 C          -2.8569    5.1255   21.5779 C.3     1  UNL1        0.0609
     21 C          -2.8992    4.1916   22.7509 C.3     1  UNL1        0.1687
     22 C          -4.1017    3.3235   22.9755 C.3     1  UNL1        0.0609
     23 C          -5.2619    3.3894   22.0270 C.3     1  UNL1        0.0758
     24 C          -6.5311    3.3520   18.8325 C.3     1  UNL1        0.0173
     25 C          -6.3798    4.3891   19.9056 C.3     1  UNL1        0.0576
     26 C          -7.3888    5.4922   20.0302 C.3     1  UNL1        0.0173
     27 C           5.0972   -2.8278   20.3717 C.3     1  UNL1        0.0938
     28 C           4.5219   -4.0530   19.7253 C.3     1  UNL1        0.0199
     29 C           3.4221   -5.0667   19.6111 C.3     1  UNL1        0.0018
     30 C           4.6251   -5.1616   18.7201 C.3     1  UNL1        0.0018
@<TRIPOS>BOND
     1    24    25    1
     2    25    26    1
     3    25    18    1
     4    18    19    1
     5    19    20    1
     6    20    21    1
     7    21    17    1
     8    17     1    1
     9     1     2   ar
    10     2     3   ar
    11     3     4   ar
    12     4     5   ar
    13     5     6   ar
    14     6     7   ar
    15     7     8   ar
    16     8     9   ar
    17     9    10    1
    18     6    11    1
    19    11    12    1
    20    11    13    1
    21    13    14    1
    22    14    27    1
    23    27    28    1
    24    28    29    1
    25    29    30    1
    26    14    15   am
    27    15    16    2
    28    21    22    1
    29    22    23    1
    30    23    18    1
    31     9     1   ar
    32    30    28    1
    33     7     3   ar
    34    15     5    1
@<TRIPOS>MOLECULE
*****
 30 34 0 0 0
SMALL
GASTEIGER

@<TRIPOS>ATOM
      1 C          -0.4407    3.1477   24.4694 C.ar    1  UNL1        0.1446
      2 C          -0.3924    2.9666   22.9812 C.ar    1  UNL1        0.0389
      3 C           0.5097    1.9295   22.3808 C.ar    1  UNL1        0.0204
      4 C           0.7678    1.5250   20.9596 C.ar    1  UNL1        0.0234
      5 C           1.7810    0.4191   20.9690 C.ar    1  UNL1        0.1142
      6 N           2.1493    0.1400   22.3960 N.ar    1  UNL1       -0.3238
      7 C           1.3636    1.0734   23.2686 C.ar    1  UNL1        0.0607
      8 C           1.3153    1.2545   24.7568 C.ar    1  UNL1        0.0269
      9 C           0.4132    2.2916   25.3572 C.ar    1  UNL1        0.0699
     10 BR          0.3649    2.4728   26.8455 Br      1  UNL1       -0.0458
     11 C           3.1524   -0.9281   22.7166 C.3     1  UNL1        0.1054
     12 C           3.5207   -1.2072   24.1437 C.3     1  UNL1        0.0263
     13 C           3.7874   -1.7171   21.6101 C.3     1  UNL1        0.1162
     14 N           3.4192   -1.4380   20.1830 N.am    1  UNL1       -0.2730
     15 C           2.4160   -0.3699   19.8625 C.2     1  UNL1        0.2650
     16 O           2.0478   -0.0908   18.4354 O.2     1  UNL1       -0.2683
     17 O          -1.3428    4.1848   25.0699 O.3     1  UNL1       -0.4786
     18 N          -5.5021    4.7585   23.4510 N.3     1  UNL1       -0.2737
     19 C          -5.1411    3.4852   24.1567 C.3     1  UNL1        0.0758
     20 C          -3.7546    3.2939   24.6964 C.3     1  UNL1        0.0609
     21 C          -2.7292    4.3761   24.5303 C.3     1  UNL1        0.1687
     22 C          -3.0903    5.6495   23.8245 C.3     1  UNL1        0.0609
     23 C          -4.4768    5.8407   23.2849 C.3     1  UNL1        0.0758
     24 C          -7.0895    5.2969   21.4660 C.3     1  UNL1        0.0173
     25 C          -6.8885    4.9498   22.9114 C.3     1  UNL1        0.0576
     26 C          -8.0740    4.7938   23.8171 C.3     1  UNL1        0.0173
     27 C           4.0542   -2.2270   19.0765 C.3     1  UNL1        0.0938
     28 C           4.0408   -3.7262   19.1212 C.3     1  UNL1        0.0199
     29 C           3.4132   -5.0064   19.5871 C.3     1  UNL1        0.0018
     30 C           4.6454   -5.0429   18.7326 C.3     1  UNL1        0.0018
@<TRIPOS>BOND
     1    24    25    1
     2    25    26    1
     3    25    18    1
     4    18    19    1
     5    19    20    1
     6    20    21    1
     7    21    17    1
     8    17     1    1
     9     1     2   ar
    10     2     3   ar
    11     3     4   ar
    12     4     5   ar
    13     5     6   ar
    14     6     7   ar
    15     7     8   ar
    16     8     9   ar
    17     9    10    1
    18     6    11    1
    19    11    12    1
    20    11    13    1
    21    13    14    1
    22    14    27    1
    23    27    28    1
    24    28    29    1
    25    29    30    1
    26    14    15   am
    27    15    16    2
    28    21    22    1
    29    22    23    1
    30    23    18    1
    31     9     1   ar
    32    30    28    1
    33     7     3   ar
    34    15     5    1
@<TRIPOS>MOLECULE
*****
 30 34 0 0 0
SMALL
GASTEIGER

@<TRIPOS>ATOM
      1 C          -0.2562    2.5227   24.6772 C.ar    1  UNL1        0.1446
      2 C           0.7986    1.4691   24.8430 C.ar    1  UNL1        0.0389
      3 C           1.4260    0.8395   23.6348 C.ar    1  UNL1        0.0204
      4 C           2.4818   -0.2158   23.4869 C.ar    1  UNL1        0.0234
      5 C           2.7070   -0.4441   22.0216 C.ar    1  UNL1        0.1142
      6 N           1.7905    0.4701   21.2639 N.ar    1  UNL1       -0.3238
      7 C           0.9988    1.2634   22.2608 C.ar    1  UNL1        0.0607
      8 C          -0.0559    2.3169   22.0951 C.ar    1  UNL1        0.0269
      9 C          -0.6834    2.9466   23.3033 C.ar    1  UNL1        0.0699
     10 BR         -1.7382    4.0002   23.1375 Br      1  UNL1       -0.0458
     11 C           1.7952    0.4621   19.7639 C.3     1  UNL1        0.1054
     12 C           0.8786    1.3763   19.0061 C.3     1  UNL1        0.0263
     13 C           2.7165   -0.4601   19.0217 C.3     1  UNL1        0.1162
     14 N           3.6330   -1.3743   19.7795 N.am    1  UNL1       -0.2730
     15 C           3.6283   -1.3663   21.2794 C.2     1  UNL1        0.2650
     16 O           4.5449   -2.2805   22.0372 O.2     1  UNL1       -0.2683
     17 O          -0.8837    3.1524   25.8855 O.3     1  UNL1       -0.4786
     18 N           0.8447    2.3960   29.9708 N.3     1  UNL1       -0.2737
     19 C          -0.0409    1.3693   29.3294 C.3     1  UNL1        0.0758
     20 C          -0.6171    1.6214   27.9675 C.3     1  UNL1        0.0609
     21 C          -0.3076    2.9002   27.2472 C.3     1  UNL1        0.1687
     22 C           0.5781    3.9270   27.8888 C.3     1  UNL1        0.0609
     23 C           1.1542    3.6749   29.2505 C.3     1  UNL1        0.0758
     24 C           2.3349    0.9757   31.5557 C.3     1  UNL1        0.0173
     25 C           1.4208    2.1439   31.3326 C.3     1  UNL1        0.0576
     26 C           1.0829    3.0600   32.4713 C.3     1  UNL1        0.0173
     27 C           4.5543   -2.2965   19.0373 C.3     1  UNL1        0.0938
     28 C           4.3038   -3.7754   19.0481 C.3     1  UNL1        0.0199
     29 C           4.7185   -5.1660   18.6681 C.3     1  UNL1        0.0018
     30 C           3.4554   -4.9463   19.4469 C.3     1  UNL1        0.0018
@<TRIPOS>BOND
     1    24    25    1
     2    25    26    1
     3    25    18    1
     4    18    19    1
     5    19    20    1
     6    20    21    1
     7    21    17    1
     8    17     1    1
     9     1     2   ar
    10     2     3   ar
    11     3     4   ar
    12     4     5   ar
    13     5     6   ar
    14     6     7   ar
    15     7     8   ar
    16     8     9   ar
    17     9    10    1
    18     6    11    1
    19    11    12    1
    20    11    13    1
    21    13    14    1
    22    14    27    1
    23    27    28    1
    24    28    29    1
    25    29    30    1
    26    14    15   am
    27    15    16    2
    28    21    22    1
    29    22    23    1
    30    23    18    1
    31     9     1   ar
    32    30    28    1
    33     7     3   ar
    34    15     5    1
@<TRIPOS>MOLECULE
*****
 30 34 0 0 0
SMALL
GASTEIGER

@<TRIPOS>ATOM
      1 C           7.6905   -2.7696   25.7515 C.ar    1  UNL1        0.1446
      2 C           6.8646   -1.7056   26.4116 C.ar    1  UNL1        0.0389
      3 C           6.4782   -1.8433   27.8544 C.ar    1  UNL1        0.0204
      4 C           5.6767   -0.9633   28.7672 C.ar    1  UNL1        0.0234
      5 C           5.6209   -1.6211   30.1141 C.ar    1  UNL1        0.1142
      6 N           6.3878   -2.9077   30.0337 N.ar    1  UNL1       -0.3238
      7 C           6.9177   -3.0450   28.6371 C.ar    1  UNL1        0.0607
      8 C           7.7436   -4.1090   27.9771 C.ar    1  UNL1        0.0269
      9 C           8.1300   -3.9713   26.5343 C.ar    1  UNL1        0.0699
     10 BR          8.9559   -5.0354   25.8742 Br      1  UNL1       -0.0458
     11 C           6.5046   -3.7880   31.2426 C.3     1  UNL1        0.1054
     12 C           7.2717   -5.0746   31.1622 C.3     1  UNL1        0.0263
     13 C           5.8545   -3.3817   32.5319 C.3     1  UNL1        0.1162
     14 N           5.0875   -2.0951   32.6123 N.am    1  UNL1       -0.2730
     15 C           4.9707   -1.2148   31.4034 C.2     1  UNL1        0.2650
     16 O           4.2037    0.0717   31.4838 O.2     1  UNL1       -0.2683
     17 O           8.0769   -2.6319   24.3087 O.3     1  UNL1       -0.4786
     18 N           4.9407   -2.9594   21.0983 N.3     1  UNL1       -0.2737
     19 C           6.1843   -2.1575   20.8528 C.3     1  UNL1        0.0758
     20 C           7.2298   -2.0483   21.9230 C.3     1  UNL1        0.0609
     21 C           7.0315   -2.7410   23.2386 C.3     1  UNL1        0.1687
     22 C           5.7878   -3.5430   23.4840 C.3     1  UNL1        0.0609
     23 C           4.7424   -3.6521   22.4139 C.3     1  UNL1        0.0758
     24 C           3.0373   -1.8843   19.6942 C.3     1  UNL1        0.0173
     25 C           3.8953   -3.0685   20.0282 C.3     1  UNL1        0.0576
     26 C           3.7078   -4.3619   19.2920 C.3     1  UNL1        0.0173
     27 C           4.4373   -1.6888   33.9016 C.3     1  UNL1        0.0938
     28 C           5.1883   -0.8421   34.8860 C.3     1  UNL1        0.0199
     29 C           5.2596   -0.1476   36.2137 C.3     1  UNL1        0.0018
     30 C           6.4175   -0.0698   35.2634 C.3     1  UNL1        0.0018
@<TRIPOS>BOND
     1    24    25    1
     2    25    26    1
     3    25    18    1
     4    18    19    1
     5    19    20    1
     6    20    21    1
     7    21    17    1
     8    17     1    1
     9     1     2   ar
    10     2     3   ar
    11     3     4   ar
    12     4     5   ar
    13     5     6   ar
    14     6     7   ar
    15     7     8   ar
    16     8     9   ar
    17     9    10    1
    18     6    11    1
    19    11    12    1
    20    11    13    1
    21    13    14    1
    22    14    27    1
    23    27    28    1
    24    28    29    1
    25    29    30    1
    26    14    15   am
    27    15    16    2
    28    21    22    1
    29    22    23    1
    30    23    18    1
    31     9     1   ar
    32    30    28    1
    33     7     3   ar
    34    15     5    1
