@<TRIPOS>MOLECULE
*****
 26 28 0 0 0
SMALL
GASTEIGER

@<TRIPOS>ATOM
      1 N          -3.5606  -18.4449   22.2899 N.am    1  UNL1       -0.2575
      2 C          -3.4930  -19.7571   21.5663 C.2     1  UNL1        0.2297
      3 O          -2.1614  -20.3645   21.2374 O.2     1  UNL1       -0.2745
      4 C          -4.7569  -20.4619   21.1717 C.3     1  UNL1        0.0903
      5 C          -6.0884  -19.8546   21.5005 C.3     1  UNL1        0.0373
      6 C          -6.1560  -18.5423   22.2242 C.ar    1  UNL1       -0.0046
      7 C          -7.4875  -17.9350   22.5530 C.ar    1  UNL1        0.0371
      8 C          -7.5551  -16.6228   23.2766 C.ar    1  UNL1        0.1354
      9 C          -6.2912  -15.9180   23.6713 C.ar    1  UNL1        0.0414
     10 C          -4.9597  -16.5253   23.3424 C.ar    1  UNL1        0.0181
     11 C          -4.8921  -17.8375   22.6188 C.ar    1  UNL1        0.0501
     12 N          -8.8867  -16.0154   23.6055 N.pl3   1  UNL1       -0.1990
     13 H          -8.9898  -15.4639   24.4145 H       1  UNL1        0.2985
     14 C         -10.0610  -16.2484   22.7019 C.2     1  UNL1        0.3224
     15 N         -10.0735  -15.6611   21.3217 N.2     1  UNL1       -0.0985
     16 H          -9.3109  -15.1228   21.0089 H       1  UNL1        0.3633
     17 C         -11.2229  -17.0687   23.1785 C.ar    1  UNL1        0.1114
     18 C         -12.6613  -16.8581   22.8089 C.ar    1  UNL1        0.0144
     19 C         -13.4778  -17.9028   23.5103 C.ar    1  UNL1        0.0077
     20 C         -12.5440  -18.7590   24.3134 C.ar    1  UNL1        0.0357
     21 S         -11.1504  -18.2435   24.1083 S.2     1  UNL1       -0.0792
     22 C          -2.2967  -17.7401   22.6846 C.3     1  UNL1        0.1155
     23 C          -1.6597  -16.7598   21.7446 C.3     1  UNL1        0.0943
     24 C          -2.2856  -17.2120   19.2640 C.3     1  UNL1        0.0897
     25 N          -1.2656  -17.1926   20.3636 N.3     1  UNL1       -0.2688
     26 C           0.1486  -17.6059   20.0821 C.3     1  UNL1        0.0897
@<TRIPOS>BOND
     1    24    25    1
     2    25    26    1
     3    25    23    1
     4    23    22    1
     5    22     1    1
     6     1     2   am
     7     2     3    2
     8     2     4    1
     9     4     5    1
    10     5     6    1
    11     6     7   ar
    12     7     8   ar
    13     8    12    1
    14    12    14    1
    15    14    15    2
    16    14    17    1
    17    17    18   ar
    18    18    19   ar
    19    19    20   ar
    20    20    21   ar
    21     8     9   ar
    22     9    10   ar
    23    10    11   ar
    24    11     1    1
    25    11     6   ar
    26    21    17   ar
    27    12    13    1
    28    15    16    1
@<TRIPOS>MOLECULE
*****
 26 28 0 0 0
SMALL
GASTEIGER

@<TRIPOS>ATOM
      1 N          -9.9207  -17.4421   21.2215 N.am    1  UNL1       -0.2575
      2 C         -10.8037  -18.0271   20.1594 C.2     1  UNL1        0.2297
      3 O         -12.1634  -17.4448   19.9098 O.2     1  UNL1       -0.2745
      4 C         -10.3270  -19.1943   19.3468 C.3     1  UNL1        0.0903
      5 C          -8.9674  -19.7766   19.5963 C.3     1  UNL1        0.0373
      6 C          -8.0843  -19.1916   20.6585 C.ar    1  UNL1       -0.0046
      7 C          -6.7247  -19.7739   20.9080 C.ar    1  UNL1        0.0371
      8 C          -5.8417  -19.1889   21.9701 C.ar    1  UNL1        0.1354
      9 C          -6.3184  -18.0216   22.7827 C.ar    1  UNL1        0.0414
     10 C          -7.6780  -17.4394   22.5332 C.ar    1  UNL1        0.0181
     11 C          -8.5610  -18.0243   21.4711 C.ar    1  UNL1        0.0501
     12 N          -4.4820  -19.7712   22.2197 N.pl3   1  UNL1       -0.1990
     13 H          -4.2835  -20.2071   23.0798 H       1  UNL1        0.2985
     14 C          -3.4248  -19.6892   21.1587 C.2     1  UNL1        0.3224
     15 N          -3.2271  -20.8318   20.2071 N.2     1  UNL1       -0.0985
     16 H          -3.7912  -21.6354   20.2789 H       1  UNL1        0.3633
     17 C          -2.5653  -18.4648   21.0494 C.ar    1  UNL1        0.1114
     18 C          -2.6235  -17.2638   21.9462 C.ar    1  UNL1        0.0144
     19 C          -1.5909  -16.2831   21.4752 C.ar    1  UNL1        0.0077
     20 C          -0.8945  -16.8780   20.2872 C.ar    1  UNL1        0.0357
     21 S          -1.4967  -18.2263   20.0241 S.2     1  UNL1       -0.0792
     22 C         -10.3973  -16.2748   22.0341 C.3     1  UNL1        0.1155
     23 C         -11.0004  -16.5004   23.3889 C.3     1  UNL1        0.0943
     24 C         -13.1894  -17.8962   23.2893 C.3     1  UNL1        0.0897
     25 N         -11.7456  -17.7701   23.6761 N.3     1  UNL1       -0.2688
     26 C         -11.0471  -18.9137   24.3503 C.3     1  UNL1        0.0897
@<TRIPOS>BOND
     1    24    25    1
     2    25    26    1
     3    25    23    1
     4    23    22    1
     5    22     1    1
     6     1     2   am
     7     2     3    2
     8     2     4    1
     9     4     5    1
    10     5     6    1
    11     6     7   ar
    12     7     8   ar
    13     8    12    1
    14    12    14    1
    15    14    15    2
    16    14    17    1
    17    17    18   ar
    18    18    19   ar
    19    19    20   ar
    20    20    21   ar
    21     8     9   ar
    22     9    10   ar
    23    10    11   ar
    24    11     1    1
    25    11     6   ar
    26    21    17   ar
    27    12    13    1
    28    15    16    1
@<TRIPOS>MOLECULE
*****
 26 28 0 0 0
SMALL
GASTEIGER

@<TRIPOS>ATOM
      1 N          -4.1355  -18.7246   22.3455 N.am    1  UNL1       -0.2575
      2 C          -3.0053  -19.3881   21.6159 C.2     1  UNL1        0.2297
      3 O          -1.5942  -19.1995   22.0883 O.2     1  UNL1       -0.2745
      4 C          -3.2862  -20.2402   20.4138 C.3     1  UNL1        0.0903
      5 C          -4.6973  -20.4288   19.9413 C.3     1  UNL1        0.0373
      6 C          -5.8276  -19.7653   20.6709 C.ar    1  UNL1       -0.0046
      7 C          -7.2386  -19.9538   20.1985 C.ar    1  UNL1        0.0371
      8 C          -8.3688  -19.2904   20.9281 C.ar    1  UNL1        0.1354
      9 C          -8.0879  -18.4383   22.1302 C.ar    1  UNL1        0.0414
     10 C          -6.6769  -18.2497   22.6027 C.ar    1  UNL1        0.0181
     11 C          -5.5467  -18.9132   21.8730 C.ar    1  UNL1        0.0501
     12 N          -9.7800  -19.4789   20.4556 N.pl3   1  UNL1       -0.1990
     13 H         -10.0466  -20.3239   20.0265 H       1  UNL1        0.2985
     14 C         -10.7848  -18.3801   20.6371 C.2     1  UNL1        0.3224
     15 N         -10.9650  -17.3444   19.5670 N.2     1  UNL1       -0.0985
     16 H         -10.4238  -17.3859   18.7457 H       1  UNL1        0.3633
     17 C         -11.6093  -18.3169   21.8885 C.ar    1  UNL1        0.1114
     18 C         -11.2946  -18.9987   23.1870 C.ar    1  UNL1        0.0144
     19 C         -12.3841  -18.6640   24.1622 C.ar    1  UNL1        0.0077
     20 C         -13.3722  -17.7754   23.4663 C.ar    1  UNL1        0.0357
     21 S         -12.8933  -17.5609   22.0611 S.2     1  UNL1       -0.0792
     22 C          -3.8546  -17.8725   23.5476 C.3     1  UNL1        0.1155
     23 C          -4.1212  -16.3971   23.5000 C.3     1  UNL1        0.0943
     24 C          -5.0370  -15.8799   25.8756 C.3     1  UNL1        0.0897
     25 N          -5.1733  -15.7961   24.3842 N.3     1  UNL1       -0.2688
     26 C          -6.3618  -15.1113   23.7769 C.3     1  UNL1        0.0897
@<TRIPOS>BOND
     1    24    25    1
     2    25    26    1
     3    25    23    1
     4    23    22    1
     5    22     1    1
     6     1     2   am
     7     2     3    2
     8     2     4    1
     9     4     5    1
    10     5     6    1
    11     6     7   ar
    12     7     8   ar
    13     8    12    1
    14    12    14    1
    15    14    15    2
    16    14    17    1
    17    17    18   ar
    18    18    19   ar
    19    19    20   ar
    20    20    21   ar
    21     8     9   ar
    22     9    10   ar
    23    10    11   ar
    24    11     1    1
    25    11     6   ar
    26    21    17   ar
    27    12    13    1
    28    15    16    1
@<TRIPOS>MOLECULE
*****
 26 28 0 0 0
SMALL
GASTEIGER

@<TRIPOS>ATOM
      1 N          -3.6432  -18.9751   21.6946 N.am    1  UNL1       -0.2575
      2 C          -3.2040  -20.1337   20.8493 C.2     1  UNL1        0.2297
      3 O          -1.7424  -20.3926   20.6328 O.2     1  UNL1       -0.2745
      4 C          -4.2262  -21.0335   20.2205 C.3     1  UNL1        0.0903
      5 C          -5.6878  -20.7746   20.4370 C.3     1  UNL1        0.0373
      6 C          -6.1271  -19.6159   21.2823 C.ar    1  UNL1       -0.0046
      7 C          -7.5886  -19.3571   21.4988 C.ar    1  UNL1        0.0371
      8 C          -8.0279  -18.1985   22.3441 C.ar    1  UNL1        0.1354
      9 C          -7.0056  -17.2987   22.9730 C.ar    1  UNL1        0.0414
     10 C          -5.5441  -17.5576   22.7565 C.ar    1  UNL1        0.0181
     11 C          -5.1048  -18.7162   21.9112 C.ar    1  UNL1        0.0501
     12 N          -9.4895  -17.9396   22.5607 N.pl3   1  UNL1       -0.1990
     13 H         -10.1604  -18.5305   22.1485 H       1  UNL1        0.2985
     14 C          -9.9287  -16.7803   23.4051 C.2     1  UNL1        0.3224
     15 N         -10.9618  -15.8240   22.8871 N.2     1  UNL1       -0.0985
     16 H         -11.3516  -15.9573   21.9929 H       1  UNL1        0.3633
     17 C          -9.3349  -16.5772   24.7675 C.ar    1  UNL1        0.1114
     18 C          -9.3188  -17.5822   25.8809 C.ar    1  UNL1        0.0144
     19 C          -8.6268  -16.9596   27.0572 C.ar    1  UNL1        0.0077
     20 C          -8.2152  -15.5699   26.6707 C.ar    1  UNL1        0.0357
     21 S          -8.6528  -15.3336   25.2556 S.2     1  UNL1       -0.0792
     22 C          -2.6210  -18.0754   22.3235 C.3     1  UNL1        0.1155
     23 C          -2.0639  -16.9173   21.5498 C.3     1  UNL1        0.0943
     24 C          -2.3219  -17.1493   18.9750 C.3     1  UNL1        0.0897
     25 N          -1.4536  -17.1424   20.1981 N.3     1  UNL1       -0.2688
     26 C           0.0249  -17.3606   20.0697 C.3     1  UNL1        0.0897
@<TRIPOS>BOND
     1    24    25    1
     2    25    26    1
     3    25    23    1
     4    23    22    1
     5    22     1    1
     6     1     2   am
     7     2     3    2
     8     2     4    1
     9     4     5    1
    10     5     6    1
    11     6     7   ar
    12     7     8   ar
    13     8    12    1
    14    12    14    1
    15    14    15    2
    16    14    17    1
    17    17    18   ar
    18    18    19   ar
    19    19    20   ar
    20    20    21   ar
    21     8     9   ar
    22     9    10   ar
    23    10    11   ar
    24    11     1    1
    25    11     6   ar
    26    21    17   ar
    27    12    13    1
    28    15    16    1
@<TRIPOS>MOLECULE
*****
 26 28 0 0 0
SMALL
GASTEIGER

@<TRIPOS>ATOM
      1 N          -4.2228  -19.0360   21.7164 N.am    1  UNL1       -0.2575
      2 C          -3.5139  -20.1862   21.0651 C.2     1  UNL1        0.2297
      3 O          -2.0577  -20.4215   21.3380 O.2     1  UNL1       -0.2745
      4 C          -4.2611  -21.1013   20.1407 C.3     1  UNL1        0.0903
      5 C          -5.7171  -20.8661   19.8678 C.3     1  UNL1        0.0373
      6 C          -6.4261  -19.7158   20.5192 C.ar    1  UNL1       -0.0046
      7 C          -7.8821  -19.4806   20.2462 C.ar    1  UNL1        0.0371
      8 C          -8.5910  -18.3304   20.8976 C.ar    1  UNL1        0.1354
      9 C          -7.8438  -17.4153   21.8219 C.ar    1  UNL1        0.0414
     10 C          -6.3878  -17.6505   22.0949 C.ar    1  UNL1        0.0181
     11 C          -5.6789  -18.8007   21.4435 C.ar    1  UNL1        0.0501
     12 N         -10.0471  -18.0951   20.6247 N.pl3   1  UNL1       -0.1990
     13 H         -10.3395  -17.8025   19.7313 H       1  UNL1        0.2985
     14 C         -11.0577  -18.3056   21.7130 C.2     1  UNL1        0.3224
     15 N         -12.4920  -17.9286   21.4877 N.2     1  UNL1       -0.0985
     16 H         -12.7701  -17.5430   20.6256 H       1  UNL1        0.3633
     17 C         -10.6341  -18.8932   23.0264 C.ar    1  UNL1        0.1114
     18 C         -10.2705  -20.3271   23.2746 C.ar    1  UNL1        0.0144
     19 C          -9.9113  -20.4701   24.7239 C.ar    1  UNL1        0.0077
     20 C         -10.0530  -19.1245   25.3715 C.ar    1  UNL1        0.0357
     21 S         -10.4997  -18.1500   24.3224 S.2     1  UNL1       -0.0792
     22 C          -3.4756  -18.1209   22.6408 C.3     1  UNL1        0.1155
     23 C          -2.6676  -16.9871   22.0823 C.3     1  UNL1        0.0943
     24 C          -2.7976  -17.0917   19.4896 C.3     1  UNL1        0.0897
     25 N          -1.9893  -17.1333   20.7525 N.3     1  UNL1       -0.2688
     26 C          -0.5025  -17.3210   20.6855 C.3     1  UNL1        0.0897
@<TRIPOS>BOND
     1    24    25    1
     2    25    26    1
     3    25    23    1
     4    23    22    1
     5    22     1    1
     6     1     2   am
     7     2     3    2
     8     2     4    1
     9     4     5    1
    10     5     6    1
    11     6     7   ar
    12     7     8   ar
    13     8    12    1
    14    12    14    1
    15    14    15    2
    16    14    17    1
    17    17    18   ar
    18    18    19   ar
    19    19    20   ar
    20    20    21   ar
    21     8     9   ar
    22     9    10   ar
    23    10    11   ar
    24    11     1    1
    25    11     6   ar
    26    21    17   ar
    27    12    13    1
    28    15    16    1
@<TRIPOS>MOLECULE
*****
 26 28 0 0 0
SMALL
GASTEIGER

@<TRIPOS>ATOM
      1 N          -4.0106  -18.4732   22.6518 N.am    1  UNL1       -0.2575
      2 C          -2.8261  -19.0795   21.9595 C.2     1  UNL1        0.2297
      3 O          -1.4370  -18.7287   22.4038 O.2     1  UNL1       -0.2745
      4 C          -3.0306  -20.0366   20.8227 C.3     1  UNL1        0.0903
      5 C          -4.4196  -20.3874   20.3783 C.3     1  UNL1        0.0373
      6 C          -5.6042  -19.7811   21.0707 C.ar    1  UNL1       -0.0046
      7 C          -6.9932  -20.1319   20.6262 C.ar    1  UNL1        0.0371
      8 C          -8.1777  -19.5256   21.3186 C.ar    1  UNL1        0.1354
      9 C          -7.9732  -18.5685   22.4553 C.ar    1  UNL1        0.0414
     10 C          -6.5842  -18.2177   22.8997 C.ar    1  UNL1        0.0181
     11 C          -5.3997  -18.8240   22.2074 C.ar    1  UNL1        0.0501
     12 N          -9.5668  -19.8764   20.8742 N.pl3   1  UNL1       -0.1990
     13 H          -9.7012  -20.5117   20.1342 H       1  UNL1        0.2985
     14 C         -10.7511  -19.2592   21.5573 C.2     1  UNL1        0.3224
     15 N         -11.3249  -19.8985   22.7870 N.2     1  UNL1       -0.0985
     16 H         -10.9243  -20.7231   23.1457 H       1  UNL1        0.3633
     17 C         -11.3615  -18.0028   21.0107 C.ar    1  UNL1        0.1114
     18 C         -12.7016  -17.4400   21.3815 C.ar    1  UNL1        0.0144
     19 C         -12.9073  -16.1780   20.5973 C.ar    1  UNL1        0.0077
     20 C         -11.6944  -15.9607   19.7419 C.ar    1  UNL1        0.0357
     21 S         -10.7390  -17.0885   19.9974 S.2     1  UNL1       -0.0792
     22 C          -3.8061  -17.5161   23.7885 C.3     1  UNL1        0.1155
     23 C          -4.3389  -16.1169   23.6960 C.3     1  UNL1        0.0943
     24 C          -6.7118  -15.1627   24.1531 C.3     1  UNL1        0.0897
     25 N          -5.3867  -15.6481   24.6615 N.3     1  UNL1       -0.2688
     26 C          -5.1094  -15.6647   26.1357 C.3     1  UNL1        0.0897
@<TRIPOS>BOND
     1    24    25    1
     2    25    26    1
     3    25    23    1
     4    23    22    1
     5    22     1    1
     6     1     2   am
     7     2     3    2
     8     2     4    1
     9     4     5    1
    10     5     6    1
    11     6     7   ar
    12     7     8   ar
    13     8    12    1
    14    12    14    1
    15    14    15    2
    16    14    17    1
    17    17    18   ar
    18    18    19   ar
    19    19    20   ar
    20    20    21   ar
    21     8     9   ar
    22     9    10   ar
    23    10    11   ar
    24    11     1    1
    25    11     6   ar
    26    21    17   ar
    27    12    13    1
    28    15    16    1
@<TRIPOS>MOLECULE
*****
 26 28 0 0 0
SMALL
GASTEIGER

@<TRIPOS>ATOM
      1 N          -3.6212  -19.0293   21.6234 N.am    1  UNL1       -0.2575
      2 C          -2.8109  -19.9487   20.7585 C.2     1  UNL1        0.2297
      3 O          -1.3156  -19.8313   20.7339 O.2     1  UNL1       -0.2745
      4 C          -3.4957  -20.9854   19.9182 C.3     1  UNL1        0.0903
      5 C          -4.9909  -21.1028   19.9428 C.3     1  UNL1        0.0373
      6 C          -5.8013  -20.1834   20.8077 C.ar    1  UNL1       -0.0046
      7 C          -7.2964  -20.3008   20.8323 C.ar    1  UNL1        0.0371
      8 C          -8.1068  -19.3814   21.6971 C.ar    1  UNL1        0.1354
      9 C          -7.4219  -18.3446   22.5374 C.ar    1  UNL1        0.0414
     10 C          -5.9268  -18.2273   22.5129 C.ar    1  UNL1        0.0181
     11 C          -5.1164  -19.1466   21.6480 C.ar    1  UNL1        0.0501
     12 N          -9.6020  -19.4987   21.7217 N.pl3   1  UNL1       -0.1990
     13 H         -10.0291  -20.2507   22.1923 H       1  UNL1        0.2985
     14 C         -10.4465  -18.4704   21.0294 C.2     1  UNL1        0.3224
     15 N         -10.2867  -18.2369   19.5563 N.2     1  UNL1       -0.0985
     16 H          -9.6276  -18.7586   19.0439 H       1  UNL1        0.3633
     17 C         -11.4507  -17.6755   21.8102 C.ar    1  UNL1        0.1114
     18 C         -12.4413  -18.2275   22.7920 C.ar    1  UNL1        0.0144
     19 C         -13.2435  -17.0822   23.3348 C.ar    1  UNL1        0.0077
     20 C         -12.7488  -15.8222   22.6884 C.ar    1  UNL1        0.0357
     21 S         -11.6408  -16.1889   21.7462 S.2     1  UNL1       -0.0792
     22 C          -2.9363  -17.9925   22.4637 C.3     1  UNL1        0.1155
     23 C          -2.4096  -16.7401   21.8280 C.3     1  UNL1        0.0943
     24 C          -2.6580  -16.8550   19.2444 C.3     1  UNL1        0.0897
     25 N          -1.7872  -16.7958   20.4643 N.3     1  UNL1       -0.2688
     26 C          -0.2941  -16.7923   20.3206 C.3     1  UNL1        0.0897
@<TRIPOS>BOND
     1    24    25    1
     2    25    26    1
     3    25    23    1
     4    23    22    1
     5    22     1    1
     6     1     2   am
     7     2     3    2
     8     2     4    1
     9     4     5    1
    10     5     6    1
    11     6     7   ar
    12     7     8   ar
    13     8    12    1
    14    12    14    1
    15    14    15    2
    16    14    17    1
    17    17    18   ar
    18    18    19   ar
    19    19    20   ar
    20    20    21   ar
    21     8     9   ar
    22     9    10   ar
    23    10    11   ar
    24    11     1    1
    25    11     6   ar
    26    21    17   ar
    27    12    13    1
    28    15    16    1
@<TRIPOS>MOLECULE
*****
 26 28 0 0 0
SMALL
GASTEIGER

@<TRIPOS>ATOM
      1 N           4.8739   -0.7159   17.8475 N.am    1  UNL1       -0.2575
      2 C           5.5062   -2.0481   18.1223 C.2     1  UNL1        0.2297
      3 O           6.7863   -2.4262   17.4380 O.2     1  UNL1       -0.2745
      4 C           4.8583   -3.0022   19.0815 C.3     1  UNL1        0.0903
      5 C           3.5782   -2.6241   19.7658 C.3     1  UNL1        0.0373
      6 C           2.9459   -1.2919   19.4910 C.ar    1  UNL1       -0.0046
      7 C           1.6658   -0.9138   20.1754 C.ar    1  UNL1        0.0371
      8 C           1.0336    0.4184   19.9006 C.ar    1  UNL1        0.1354
      9 C           1.6815    1.3725   18.9415 C.ar    1  UNL1        0.0414
     10 C           2.9616    0.9944   18.2571 C.ar    1  UNL1        0.0181
     11 C           3.5938   -0.3378   18.5319 C.ar    1  UNL1        0.0501
     12 N          -0.2465    0.7965   20.5850 N.pl3   1  UNL1       -0.1990
     13 H          -0.9246    0.1087   20.7756 H       1  UNL1        0.2985
     14 C          -0.4935    2.2227   20.9789 C.2     1  UNL1        0.3224
     15 N           0.2160    2.8069   22.1644 N.2     1  UNL1       -0.0985
     16 H           0.8437    2.2543   22.6840 H       1  UNL1        0.3633
     17 C          -1.4498    3.0645   20.1874 C.ar    1  UNL1        0.1114
     18 C          -1.1504    3.7563   18.8906 C.ar    1  UNL1        0.0144
     19 C          -2.3890    4.4818   18.4554 C.ar    1  UNL1        0.0077
     20 C          -3.4541    4.2384   19.4832 C.ar    1  UNL1        0.0357
     21 S          -2.8736    3.3624   20.5536 S.2     1  UNL1       -0.0792
     22 C           5.5218    0.2382   16.8884 C.3     1  UNL1        0.1155
     23 C           6.6723    1.0888   17.3388 C.3     1  UNL1        0.0943
     24 C           8.0876    0.3347   19.3829 C.3     1  UNL1        0.0897
     25 N           7.0035    1.1907   18.7983 N.3     1  UNL1       -0.2688
     26 C           6.2505    2.1487   19.6731 C.3     1  UNL1        0.0897
@<TRIPOS>BOND
     1    24    25    1
     2    25    26    1
     3    25    23    1
     4    23    22    1
     5    22     1    1
     6     1     2   am
     7     2     3    2
     8     2     4    1
     9     4     5    1
    10     5     6    1
    11     6     7   ar
    12     7     8   ar
    13     8    12    1
    14    12    14    1
    15    14    15    2
    16    14    17    1
    17    17    18   ar
    18    18    19   ar
    19    19    20   ar
    20    20    21   ar
    21     8     9   ar
    22     9    10   ar
    23    10    11   ar
    24    11     1    1
    25    11     6   ar
    26    21    17   ar
    27    12    13    1
    28    15    16    1
@<TRIPOS>MOLECULE
*****
 26 28 0 0 0
SMALL
GASTEIGER

@<TRIPOS>ATOM
      1 N           7.5748   -5.2605   24.5744 N.am    1  UNL1       -0.2575
      2 C           8.1656   -6.4468   23.8719 C.2     1  UNL1        0.2297
      3 O           8.4051   -6.3993   22.3919 O.2     1  UNL1       -0.2745
      4 C           8.5169   -7.6805   24.6493 C.3     1  UNL1        0.0903
      5 C           8.2774   -7.7281   26.1293 C.3     1  UNL1        0.0373
      6 C           7.6865   -6.5417   26.8319 C.ar    1  UNL1       -0.0046
      7 C           7.4470   -6.5892   28.3119 C.ar    1  UNL1        0.0371
      8 C           6.8562   -5.4030   29.0144 C.ar    1  UNL1        0.1354
      9 C           6.5049   -4.1692   28.2370 C.ar    1  UNL1        0.0414
     10 C           6.7444   -4.1217   26.7570 C.ar    1  UNL1        0.0181
     11 C           7.3352   -5.3079   26.0545 C.ar    1  UNL1        0.0501
     12 N           6.6166   -5.4504   30.4944 N.pl3   1  UNL1       -0.1990
     13 H           5.8373   -5.9344   30.8517 H       1  UNL1        0.2985
     14 C           7.5646   -4.7605   31.4301 C.2     1  UNL1        0.3224
     15 N           8.9029   -5.3700   31.7260 N.2     1  UNL1       -0.0985
     16 H           9.1591   -6.2228   31.3061 H       1  UNL1        0.3633
     17 C           7.1742   -3.4612   32.0699 C.ar    1  UNL1        0.1114
     18 C           5.7833   -3.0492   32.4516 C.ar    1  UNL1        0.0144
     19 C           5.8556   -1.6791   33.0579 C.ar    1  UNL1        0.0077
     20 C           7.2913   -1.2443   33.0509 C.ar    1  UNL1        0.0357
     21 S           8.1061   -2.3457   32.4403 S.2     1  UNL1       -0.0792
     22 C           7.2235   -4.0267   23.7970 C.3     1  UNL1        0.1155
     23 C           5.8824   -3.9142   23.1344 C.3     1  UNL1        0.0943
     24 C           7.0263   -3.7305   20.8090 C.3     1  UNL1        0.0897
     25 N           5.7856   -3.8836   21.6379 N.3     1  UNL1       -0.2688
     26 C           4.4479   -4.0060   20.9702 C.3     1  UNL1        0.0897
@<TRIPOS>BOND
     1    24    25    1
     2    25    26    1
     3    25    23    1
     4    23    22    1
     5    22     1    1
     6     1     2   am
     7     2     3    2
     8     2     4    1
     9     4     5    1
    10     5     6    1
    11     6     7   ar
    12     7     8   ar
    13     8    12    1
    14    12    14    1
    15    14    15    2
    16    14    17    1
    17    17    18   ar
    18    18    19   ar
    19    19    20   ar
    20    20    21   ar
    21     8     9   ar
    22     9    10   ar
    23    10    11   ar
    24    11     1    1
    25    11     6   ar
    26    21    17   ar
    27    12    13    1
    28    15    16    1
