@<TRIPOS>MOLECULE
*****
 33 34 0 0 0
SMALL
GASTEIGER

@<TRIPOS>ATOM
      1 C          -7.6877  -18.7482   22.5111 C.2     1  UNL1        0.2270
      2 O          -7.3415  -17.3316   22.1596 O.2     1  UNL1       -0.2748
      3 N          -8.8196  -19.0318   23.4536 N.am    1  UNL1       -0.2797
      4 C          -9.2796  -20.3894   23.8957 C.3     1  UNL1        0.0934
      5 C         -10.4346  -20.2043   24.8348 C.3     1  UNL1        0.0232
      6 C         -10.6883  -18.7324   24.9730 C.3     1  UNL1        0.0230
      7 C          -9.6902  -18.0078   24.1193 C.3     1  UNL1        0.0928
      8 C          -6.9019  -19.8810   21.9202 C.3     1  UNL1        0.1010
      9 N          -7.0344  -18.9905   19.4831 N.3     1  UNL1       -0.3215
     10 C          -6.3008  -19.7439   20.5528 C.3     1  UNL1        0.0644
     11 H          -7.9173  -18.6424   19.8570 H       1  UNL1        0.1188
     12 H          -7.2201  -19.6120   18.6959 H       1  UNL1        0.1188
     13 C          -4.9661  -20.3602   20.2550 C.3     1  UNL1        0.0447
     14 C          -3.7293  -19.5114   20.2641 C.ar    1  UNL1        0.0090
     15 C          -3.1549  -19.0090   18.9727 C.ar    1  UNL1        0.0300
     16 C          -1.9182  -18.1603   18.9818 C.ar    1  UNL1        0.1672
     17 F          -1.3438  -17.6579   17.6904 F       1  UNL1       -0.2018
     18 C          -1.2558  -17.8140   20.2823 C.ar    1  UNL1        0.1696
     19 F          -0.0190  -16.9653   20.2914 F       1  UNL1       -0.2017
     20 C          -1.8301  -18.3164   21.5737 C.ar    1  UNL1        0.0612
     21 C          -3.0669  -19.1651   21.5646 C.ar    1  UNL1        0.1386
     22 F          -3.6413  -19.6676   22.8560 F       1  UNL1       -0.2044
     23 C          -9.5818  -16.5203   23.9595 C.3     1  UNL1        0.1108
     24 N         -10.5334  -15.7914   23.0576 N.3     1  UNL1       -0.1814
     25 H          -9.9986  -15.0528   22.6006 H       1  UNL1        0.1485
     26 S         -11.2586  -16.5342   21.9749 S.O2    1  UNL1        0.0495
     27 O         -10.0398  -16.4546   21.1041 O.2     1  UNL1       -0.1572
     28 O         -12.4773  -16.6138   22.8458 O.2     1  UNL1       -0.1572
     29 C         -11.9837  -17.2770   20.8922 C.3     1  UNL1        0.2713
     30 C         -11.4531  -18.5904   20.3988 C.3     1  UNL1        0.4210
     31 F         -10.9225  -19.9038   19.9054 F       1  UNL1       -0.1680
     32 F         -11.6103  -19.1702   21.7733 F       1  UNL1       -0.1680
     33 F         -11.2960  -18.0106   19.0244 F       1  UNL1       -0.1680
@<TRIPOS>BOND
     1    10     9    1
     2    10     8    1
     3     8     1    1
     4     1     2    2
     5     1     3   am
     6     3     4    1
     7     4     5    1
     8     5     6    1
     9     6     7    1
    10     7    23    1
    11    23    24    1
    12    24    26    1
    13    26    27    2
    14    26    28    2
    15    26    29    1
    16    29    30    1
    17    30    31    1
    18    30    32    1
    19    30    33    1
    20    10    13    1
    21    13    14    1
    22    14    15   ar
    23    15    16   ar
    24    16    17    1
    25    16    18   ar
    26    18    19    1
    27    18    20   ar
    28    20    21   ar
    29    21    22    1
    30     7     3    1
    31    21    14   ar
    32     9    11    1
    33     9    12    1
    34    24    25    1
@<TRIPOS>MOLECULE
*****
 33 34 0 0 0
SMALL
GASTEIGER

@<TRIPOS>ATOM
      1 C          -6.1402  -16.5481   23.4292 C.2     1  UNL1        0.2270
      2 O          -4.9643  -16.2567   24.3137 O.2     1  UNL1       -0.2748
      3 N          -6.1310  -17.7589   22.5439 N.am    1  UNL1       -0.2797
      4 C          -7.2283  -18.1772   21.6107 C.3     1  UNL1        0.0934
      5 C          -6.7983  -19.4408   20.9263 C.3     1  UNL1        0.0232
      6 C          -5.4351  -19.8034   21.4366 C.3     1  UNL1        0.0230
      7 C          -5.0227  -18.7639   22.4362 C.3     1  UNL1        0.0928
      8 C          -7.3253  -15.6287   23.4300 C.3     1  UNL1        0.1010
      9 N          -7.5801  -15.0254   25.9442 N.3     1  UNL1       -0.3215
     10 C          -8.1800  -15.5078   24.6568 C.3     1  UNL1        0.0644
     11 H          -6.5894  -14.8270   25.8044 H       1  UNL1        0.1188
     12 H          -7.6850  -15.7454   26.6591 H       1  UNL1        0.1188
     13 C          -9.6345  -15.8693   24.5962 C.3     1  UNL1        0.0447
     14 C         -10.0683  -17.1167   23.8849 C.ar    1  UNL1        0.0090
     15 C         -10.5497  -17.0422   22.4662 C.ar    1  UNL1        0.0300
     16 C         -10.9835  -18.2896   21.7550 C.ar    1  UNL1        0.1672
     17 F         -11.4649  -18.2151   20.3363 F       1  UNL1       -0.2018
     18 C         -10.9359  -19.6114   22.4624 C.ar    1  UNL1        0.1696
     19 F         -11.3697  -20.8588   21.7511 F       1  UNL1       -0.2017
     20 C         -10.4545  -19.6859   23.8811 C.ar    1  UNL1        0.0612
     21 C         -10.0207  -18.4385   24.5923 C.ar    1  UNL1        0.1386
     22 F          -9.5393  -18.5130   26.0111 F       1  UNL1       -0.2044
     23 C          -3.7291  -18.7347   23.1950 C.3     1  UNL1        0.1108
     24 N          -2.8154  -17.5511   23.0746 N.3     1  UNL1       -0.1814
     25 H          -2.0701  -17.6838   23.7581 H       1  UNL1        0.1485
     26 S          -2.1521  -17.2459   21.7643 S.O2    1  UNL1        0.0495
     27 O          -2.7541  -15.8720   21.7797 O.2     1  UNL1       -0.1572
     28 O          -1.5501  -18.6197   21.7490 O.2     1  UNL1       -0.1572
     29 C          -1.4888  -16.9406   20.4541 C.3     1  UNL1        0.2713
     30 C          -1.7490  -17.8114   19.2608 C.3     1  UNL1        0.4210
     31 F          -2.0093  -18.6821   18.0674 F       1  UNL1       -0.1680
     32 F          -0.2728  -17.9200   19.0181 F       1  UNL1       -0.1680
     33 F          -3.2253  -17.7027   19.5034 F       1  UNL1       -0.1680
@<TRIPOS>BOND
     1    10     9    1
     2    10     8    1
     3     8     1    1
     4     1     2    2
     5     1     3   am
     6     3     4    1
     7     4     5    1
     8     5     6    1
     9     6     7    1
    10     7    23    1
    11    23    24    1
    12    24    26    1
    13    26    27    2
    14    26    28    2
    15    26    29    1
    16    29    30    1
    17    30    31    1
    18    30    32    1
    19    30    33    1
    20    10    13    1
    21    13    14    1
    22    14    15   ar
    23    15    16   ar
    24    16    17    1
    25    16    18   ar
    26    18    19    1
    27    18    20   ar
    28    20    21   ar
    29    21    22    1
    30     7     3    1
    31    21    14   ar
    32     9    11    1
    33     9    12    1
    34    24    25    1
@<TRIPOS>MOLECULE
*****
 33 34 0 0 0
SMALL
GASTEIGER

@<TRIPOS>ATOM
      1 C          -7.8584  -18.6809   22.6190 C.2     1  UNL1        0.2270
      2 O          -8.8348  -19.8168   22.5388 O.2     1  UNL1       -0.2748
      3 N          -8.2340  -17.4183   23.3364 N.am    1  UNL1       -0.2797
      4 C          -7.3672  -16.2047   23.4979 C.3     1  UNL1        0.0934
      5 C          -8.1398  -15.1839   24.2795 C.3     1  UNL1        0.0232
      6 C          -9.4841  -15.7666   24.6011 C.3     1  UNL1        0.0230
      7 C          -9.5423  -17.1475   24.0182 C.3     1  UNL1        0.0928
      8 C          -6.5064  -18.8076   21.9818 C.3     1  UNL1        0.1010
      9 N          -7.4914  -19.2832   19.6252 N.3     1  UNL1       -0.3215
     10 C          -6.3744  -19.4168   20.6174 C.3     1  UNL1        0.0644
     11 H          -8.2557  -18.7526   20.0430 H       1  UNL1        0.1188
     12 H          -7.8252  -20.2105   19.3622 H       1  UNL1        0.1188
     13 C          -5.1255  -20.1595   20.2453 C.3     1  UNL1        0.0447
     14 C          -3.8060  -19.4462   20.2266 C.ar    1  UNL1        0.0090
     15 C          -3.2735  -18.8877   18.9403 C.ar    1  UNL1        0.0300
     16 C          -1.9542  -18.1744   18.9216 C.ar    1  UNL1        0.1672
     17 F          -1.4216  -17.6159   17.6353 F       1  UNL1       -0.2018
     18 C          -1.1673  -18.0195   20.1893 C.ar    1  UNL1        0.1696
     19 F           0.1522  -17.3062   20.1706 F       1  UNL1       -0.2017
     20 C          -1.6998  -18.5780   21.4755 C.ar    1  UNL1        0.0612
     21 C          -3.0192  -19.2913   21.4942 C.ar    1  UNL1        0.1386
     22 F          -3.5518  -19.8498   22.7805 F       1  UNL1       -0.2044
     23 C         -10.7047  -18.0917   24.1024 C.3     1  UNL1        0.1108
     24 N         -11.4279  -18.5043   22.8546 N.3     1  UNL1       -0.1814
     25 H         -12.2517  -19.0275   23.1511 H       1  UNL1        0.1485
     26 S         -11.9020  -17.4639   21.8836 S.O2    1  UNL1        0.0495
     27 O         -11.0435  -18.0711   20.8139 O.2     1  UNL1       -0.1572
     28 O         -12.7604  -16.8567   22.9534 O.2     1  UNL1       -0.1572
     29 C         -12.3760  -16.4235   20.9127 C.3     1  UNL1        0.2713
     30 C         -11.3841  -15.6701   20.0770 C.3     1  UNL1        0.4210
     31 F         -10.3922  -14.9166   19.2413 F       1  UNL1       -0.1680
     32 F         -12.2700  -15.8340   18.8777 F       1  UNL1       -0.1680
     33 F         -10.4982  -15.5061   21.2763 F       1  UNL1       -0.1680
@<TRIPOS>BOND
     1    10     9    1
     2    10     8    1
     3     8     1    1
     4     1     2    2
     5     1     3   am
     6     3     4    1
     7     4     5    1
     8     5     6    1
     9     6     7    1
    10     7    23    1
    11    23    24    1
    12    24    26    1
    13    26    27    2
    14    26    28    2
    15    26    29    1
    16    29    30    1
    17    30    31    1
    18    30    32    1
    19    30    33    1
    20    10    13    1
    21    13    14    1
    22    14    15   ar
    23    15    16   ar
    24    16    17    1
    25    16    18   ar
    26    18    19    1
    27    18    20   ar
    28    20    21   ar
    29    21    22    1
    30     7     3    1
    31    21    14   ar
    32     9    11    1
    33     9    12    1
    34    24    25    1
@<TRIPOS>MOLECULE
*****
 33 34 0 0 0
SMALL
GASTEIGER

@<TRIPOS>ATOM
      1 C          -7.9435  -18.2570   21.0598 C.2     1  UNL1        0.2270
      2 O          -7.2113  -17.0484   21.5628 O.2     1  UNL1       -0.2748
      3 N          -9.4246  -18.3760   21.2650 N.am    1  UNL1       -0.2797
      4 C         -10.2874  -19.5194   20.8199 C.3     1  UNL1        0.0934
      5 C         -11.6990  -19.2225   21.2312 C.3     1  UNL1        0.0232
      6 C         -11.7086  -17.8955   21.9306 C.3     1  UNL1        0.0230
      7 C         -10.3030  -17.3723   21.9515 C.3     1  UNL1        0.0928
      8 C          -7.1947  -19.3468   20.3515 C.3     1  UNL1        0.1010
      9 N          -6.6916  -20.8035   22.4432 N.3     1  UNL1       -0.3215
     10 C          -6.2663  -20.2404   21.1195 C.3     1  UNL1        0.0644
     11 H          -7.6326  -20.4781   22.6646 H       1  UNL1        0.1188
     12 H          -6.0450  -20.4930   23.1683 H       1  UNL1        0.1188
     13 C          -4.9128  -20.5708   20.5639 C.3     1  UNL1        0.0447
     14 C          -3.8450  -19.5184   20.5145 C.ar    1  UNL1        0.0090
     15 C          -3.2278  -19.1371   19.2017 C.ar    1  UNL1        0.0300
     16 C          -2.1600  -18.0848   19.1524 C.ar    1  UNL1        0.1672
     17 F          -1.5428  -17.7035   17.8395 F       1  UNL1       -0.2018
     18 C          -1.7095  -17.4138   20.4160 C.ar    1  UNL1        0.1696
     19 F          -0.6416  -16.3614   20.3667 F       1  UNL1       -0.2017
     20 C          -2.3266  -17.7951   21.7289 C.ar    1  UNL1        0.0612
     21 C          -3.3944  -18.8474   21.7781 C.ar    1  UNL1        0.1386
     22 F          -4.0116  -19.2287   23.0911 F       1  UNL1       -0.2044
     23 C          -9.8544  -16.0736   22.5531 C.3     1  UNL1        0.1108
     24 N          -9.8955  -15.8820   24.0403 N.3     1  UNL1       -0.1814
     25 H         -10.6200  -16.5049   24.3975 H       1  UNL1        0.1485
     26 S          -8.6661  -16.1312   24.8629 S.O2    1  UNL1        0.0495
     27 O          -9.2307  -17.4479   25.3076 O.2     1  UNL1       -0.1572
     28 O          -8.1017  -14.8146   24.4181 O.2     1  UNL1       -0.1572
     29 C          -7.4369  -16.3804   25.6855 C.3     1  UNL1        0.2713
     30 C          -7.0723  -15.4379   26.7939 C.3     1  UNL1        0.4210
     31 F          -6.7077  -14.4954   27.9024 F       1  UNL1       -0.1680
     32 F          -5.6781  -15.3373   26.2498 F       1  UNL1       -0.1680
     33 F          -8.4665  -15.5385   27.3380 F       1  UNL1       -0.1680
@<TRIPOS>BOND
     1    10     9    1
     2    10     8    1
     3     8     1    1
     4     1     2    2
     5     1     3   am
     6     3     4    1
     7     4     5    1
     8     5     6    1
     9     6     7    1
    10     7    23    1
    11    23    24    1
    12    24    26    1
    13    26    27    2
    14    26    28    2
    15    26    29    1
    16    29    30    1
    17    30    31    1
    18    30    32    1
    19    30    33    1
    20    10    13    1
    21    13    14    1
    22    14    15   ar
    23    15    16   ar
    24    16    17    1
    25    16    18   ar
    26    18    19    1
    27    18    20   ar
    28    20    21   ar
    29    21    22    1
    30     7     3    1
    31    21    14   ar
    32     9    11    1
    33     9    12    1
    34    24    25    1
@<TRIPOS>MOLECULE
*****
 33 34 0 0 0
SMALL
GASTEIGER

@<TRIPOS>ATOM
      1 C          -7.7458  -16.6110   22.9898 C.2     1  UNL1        0.2270
      2 O          -7.3698  -16.7004   21.5405 O.2     1  UNL1       -0.2748
      3 N          -8.6375  -17.6520   23.5989 N.am    1  UNL1       -0.2797
      4 C          -9.0964  -17.6942   25.0264 C.3     1  UNL1        0.0934
      5 C          -9.9694  -18.9019   25.1972 C.3     1  UNL1        0.0232
      6 C         -10.0501  -19.6062   23.8752 C.3     1  UNL1        0.0230
      7 C          -9.2270  -18.8337   22.8875 C.3     1  UNL1        0.0928
      8 C          -7.2301  -15.4806   23.8301 C.3     1  UNL1        0.1010
      9 N          -5.6905  -15.7471   25.9059 N.3     1  UNL1       -0.3215
     10 C          -5.8561  -15.5562   24.4273 C.3     1  UNL1        0.0644
     11 H          -6.6088  -15.8052   26.3462 H       1  UNL1        0.1188
     12 H          -5.1761  -14.9571   26.2953 H       1  UNL1        0.1188
     13 C          -4.6478  -15.4407   23.5460 C.3     1  UNL1        0.0447
     14 C          -4.0309  -16.6732   22.9539 C.ar    1  UNL1        0.0090
     15 C          -4.7224  -17.9973   23.0895 C.ar    1  UNL1        0.0300
     16 C          -4.1055  -19.2297   22.4974 C.ar    1  UNL1        0.1672
     17 F          -4.7969  -20.5539   22.6330 F       1  UNL1       -0.2018
     18 C          -2.7971  -19.1379   21.7696 C.ar    1  UNL1        0.1696
     19 F          -2.1801  -20.3703   21.1775 F       1  UNL1       -0.2017
     20 C          -2.1056  -17.8137   21.6340 C.ar    1  UNL1        0.0612
     21 C          -2.7225  -16.5814   22.2261 C.ar    1  UNL1        0.1386
     22 F          -2.0310  -15.2571   22.0905 F       1  UNL1       -0.2044
     23 C          -9.0282  -19.1819   21.4421 C.3     1  UNL1        0.1108
     24 N          -9.7257  -18.3889   20.3767 N.3     1  UNL1       -0.1814
     25 H          -9.9033  -19.0286   19.6024 H       1  UNL1        0.1485
     26 S         -11.0258  -17.7054   20.6806 S.O2    1  UNL1        0.0495
     27 O         -11.6793  -19.0399   20.8861 O.2     1  UNL1       -0.1572
     28 O         -10.3723  -16.3710   20.4751 O.2     1  UNL1       -0.1572
     29 C         -12.3260  -17.0219   20.9845 C.3     1  UNL1        0.2713
     30 C         -12.9894  -17.2288   22.3138 C.3     1  UNL1        0.4210
     31 F         -13.6528  -17.4357   23.6431 F       1  UNL1       -0.1680
     32 F         -14.1045  -17.9733   21.6414 F       1  UNL1       -0.1680
     33 F         -11.8743  -16.4843   22.9862 F       1  UNL1       -0.1680
@<TRIPOS>BOND
     1    10     9    1
     2    10     8    1
     3     8     1    1
     4     1     2    2
     5     1     3   am
     6     3     4    1
     7     4     5    1
     8     5     6    1
     9     6     7    1
    10     7    23    1
    11    23    24    1
    12    24    26    1
    13    26    27    2
    14    26    28    2
    15    26    29    1
    16    29    30    1
    17    30    31    1
    18    30    32    1
    19    30    33    1
    20    10    13    1
    21    13    14    1
    22    14    15   ar
    23    15    16   ar
    24    16    17    1
    25    16    18   ar
    26    18    19    1
    27    18    20   ar
    28    20    21   ar
    29    21    22    1
    30     7     3    1
    31    21    14   ar
    32     9    11    1
    33     9    12    1
    34    24    25    1
@<TRIPOS>MOLECULE
*****
 33 34 0 0 0
SMALL
GASTEIGER

@<TRIPOS>ATOM
      1 C          -6.0021  -17.1030   23.1560 C.2     1  UNL1        0.2270
      2 O          -4.6451  -17.1283   23.7948 O.2     1  UNL1       -0.2748
      3 N          -6.4003  -18.1860   22.1977 N.am    1  UNL1       -0.2797
      4 C          -7.7160  -18.2930   21.4853 C.3     1  UNL1        0.0934
      5 C          -7.6815  -19.5253   20.6307 C.3     1  UNL1        0.0232
      6 C          -6.3444  -20.1798   20.8150 C.3     1  UNL1        0.0230
      7 C          -5.5526  -19.3521   21.7834 C.3     1  UNL1        0.0928
      8 C          -6.9609  -15.9946   23.4757 C.3     1  UNL1        0.1010
      9 N          -7.6115  -14.9157   25.7478 N.3     1  UNL1       -0.3215
     10 C          -7.7484  -16.0289   24.7519 C.3     1  UNL1        0.0644
     11 H          -6.9468  -14.2259   25.3975 H       1  UNL1        0.1188
     12 H          -7.2754  -15.2919   26.6343 H       1  UNL1        0.1188
     13 C          -8.6728  -17.1765   25.0322 C.3     1  UNL1        0.0447
     14 C          -9.8145  -17.4643   24.1026 C.ar    1  UNL1        0.0090
     15 C         -10.6489  -16.3381   23.5685 C.ar    1  UNL1        0.0300
     16 C         -11.7904  -16.6259   22.6390 C.ar    1  UNL1        0.1672
     17 F         -12.6250  -15.4997   22.1048 F       1  UNL1       -0.2018
     18 C         -12.0975  -18.0399   22.2437 C.ar    1  UNL1        0.1696
     19 F         -13.2391  -18.3277   21.3141 F       1  UNL1       -0.2017
     20 C         -11.2630  -19.1661   22.7778 C.ar    1  UNL1        0.0612
     21 C         -10.1215  -18.8783   23.7073 C.ar    1  UNL1        0.1386
     22 F          -9.2870  -20.0045   24.2415 F       1  UNL1       -0.2044
     23 C          -4.1580  -19.6399   22.2547 C.3     1  UNL1        0.1108
     24 N          -3.1439  -20.1979   21.3005 N.3     1  UNL1       -0.1814
     25 H          -3.6578  -20.7516   20.6153 H       1  UNL1        0.1485
     26 S          -2.2520  -19.2719   20.5279 S.O2    1  UNL1        0.0495
     27 O          -3.1683  -19.3767   19.3448 O.2     1  UNL1       -0.1572
     28 O          -1.3358  -19.1672   21.7109 O.2     1  UNL1       -0.1572
     29 C          -1.3601  -18.3460   19.7551 C.3     1  UNL1        0.2713
     30 C          -0.9872  -17.0112   20.3289 C.3     1  UNL1        0.4210
     31 F          -0.6143  -15.6764   20.9028 F       1  UNL1       -0.1680
     32 F           0.4460  -17.2520   19.9577 F       1  UNL1       -0.1680
     33 F          -2.4205  -16.7704   20.7002 F       1  UNL1       -0.1680
@<TRIPOS>BOND
     1    10     9    1
     2    10     8    1
     3     8     1    1
     4     1     2    2
     5     1     3   am
     6     3     4    1
     7     4     5    1
     8     5     6    1
     9     6     7    1
    10     7    23    1
    11    23    24    1
    12    24    26    1
    13    26    27    2
    14    26    28    2
    15    26    29    1
    16    29    30    1
    17    30    31    1
    18    30    32    1
    19    30    33    1
    20    10    13    1
    21    13    14    1
    22    14    15   ar
    23    15    16   ar
    24    16    17    1
    25    16    18   ar
    26    18    19    1
    27    18    20   ar
    28    20    21   ar
    29    21    22    1
    30     7     3    1
    31    21    14   ar
    32     9    11    1
    33     9    12    1
    34    24    25    1
@<TRIPOS>MOLECULE
*****
 33 34 0 0 0
SMALL
GASTEIGER

@<TRIPOS>ATOM
      1 C          -7.3487  -18.2964   22.5930 C.2     1  UNL1        0.2270
      2 O          -8.5540  -19.1796   22.4614 O.2     1  UNL1       -0.2748
      3 N          -7.4191  -17.0507   23.4255 N.am    1  UNL1       -0.2797
      4 C          -6.3017  -16.0752   23.6489 C.3     1  UNL1        0.0934
      5 C          -6.8112  -14.9833   24.5423 C.3     1  UNL1        0.0232
      6 C          -8.2436  -15.2840   24.8711 C.3     1  UNL1        0.0230
      7 C          -8.6192  -16.5616   24.1808 C.3     1  UNL1        0.0928
      8 C          -6.0731  -18.6589   21.8921 C.3     1  UNL1        0.1010
      9 N          -7.3911  -19.6474   19.8831 N.3     1  UNL1       -0.3215
     10 C          -6.1120  -19.5041   20.6534 C.3     1  UNL1        0.0644
     11 H          -8.1257  -19.1073   20.3403 H       1  UNL1        0.1188
     12 H          -7.6611  -20.6305   19.8522 H       1  UNL1        0.1188
     13 C          -4.8718  -20.2059   20.1850 C.3     1  UNL1        0.0447
     14 C          -3.5717  -19.4614   20.1101 C.ar    1  UNL1        0.0090
     15 C          -3.1371  -18.8394   18.8163 C.ar    1  UNL1        0.0300
     16 C          -1.8370  -18.0950   18.7414 C.ar    1  UNL1        0.1672
     17 F          -1.4024  -17.4730   17.4475 F       1  UNL1       -0.2018
     18 C          -0.9716  -17.9726   19.9604 C.ar    1  UNL1        0.1696
     19 F           0.3285  -17.2282   19.8855 F       1  UNL1       -0.2017
     20 C          -1.4062  -18.5946   21.2543 C.ar    1  UNL1        0.0612
     21 C          -2.7063  -19.3390   21.3292 C.ar    1  UNL1        0.1386
     22 F          -3.1409  -19.9611   22.6231 F       1  UNL1       -0.2044
     23 C          -9.9597  -17.2325   24.2363 C.3     1  UNL1        0.1108
     24 N         -10.8916  -17.1444   23.0641 N.3     1  UNL1       -0.1814
     25 H         -10.4446  -17.6425   22.2945 H       1  UNL1        0.1485
     26 S         -12.2881  -17.6809   23.1741 S.O2    1  UNL1        0.0495
     27 O         -12.8344  -16.2956   22.9934 O.2     1  UNL1       -0.1572
     28 O         -11.7416  -19.0661   23.3548 O.2     1  UNL1       -0.1572
     29 C         -13.6845  -18.2173   23.2841 C.3     1  UNL1        0.2713
     30 C         -14.2840  -18.4772   24.6343 C.3     1  UNL1        0.4210
     31 F         -14.8835  -18.7371   25.9845 F       1  UNL1       -0.1680
     32 F         -15.6411  -18.6023   24.0077 F       1  UNL1       -0.1680
     33 F         -12.9269  -18.3521   25.2609 F       1  UNL1       -0.1680
@<TRIPOS>BOND
     1    10     9    1
     2    10     8    1
     3     8     1    1
     4     1     2    2
     5     1     3   am
     6     3     4    1
     7     4     5    1
     8     5     6    1
     9     6     7    1
    10     7    23    1
    11    23    24    1
    12    24    26    1
    13    26    27    2
    14    26    28    2
    15    26    29    1
    16    29    30    1
    17    30    31    1
    18    30    32    1
    19    30    33    1
    20    10    13    1
    21    13    14    1
    22    14    15   ar
    23    15    16   ar
    24    16    17    1
    25    16    18   ar
    26    18    19    1
    27    18    20   ar
    28    20    21   ar
    29    21    22    1
    30     7     3    1
    31    21    14   ar
    32     9    11    1
    33     9    12    1
    34    24    25    1
@<TRIPOS>MOLECULE
*****
 33 34 0 0 0
SMALL
GASTEIGER

@<TRIPOS>ATOM
      1 C          -9.6871  -17.6876   24.3055 C.2     1  UNL1        0.2270
      2 O          -9.8020  -16.2022   24.4801 O.2     1  UNL1       -0.2748
      3 N          -8.6658  -18.2554   23.3651 N.am    1  UNL1       -0.2797
      4 C          -8.4352  -19.7116   23.0885 C.3     1  UNL1        0.0934
      5 C          -7.3226  -19.8230   22.0887 C.3     1  UNL1        0.0232
      6 C          -6.8656  -18.4356   21.7473 C.3     1  UNL1        0.0230
      7 C          -7.6958  -17.4669   22.5362 C.3     1  UNL1        0.0928
      8 C         -10.5935  -18.6051   25.0714 C.3     1  UNL1        0.1010
      9 N         -13.1533  -18.6430   25.5145 N.3     1  UNL1       -0.3215
     10 C         -11.9920  -18.8527   24.5885 C.3     1  UNL1        0.0644
     11 H         -12.8111  -18.3346   26.4245 H       1  UNL1        0.1188
     12 H         -13.6645  -19.5191   25.6225 H       1  UNL1        0.1188
     13 C         -12.2291  -19.3100   23.1798 C.3     1  UNL1        0.0447
     14 C         -11.9175  -18.3959   22.0320 C.ar    1  UNL1        0.0090
     15 C         -11.0429  -18.8718   20.9102 C.ar    1  UNL1        0.0300
     16 C         -10.7314  -17.9577   19.7625 C.ar    1  UNL1        0.1672
     17 F          -9.8568  -18.4336   18.6406 F       1  UNL1       -0.2018
     18 C         -11.2944  -16.5676   19.7366 C.ar    1  UNL1        0.1696
     19 F         -10.9829  -15.6535   18.5888 F       1  UNL1       -0.2017
     20 C         -12.1690  -16.0917   20.8584 C.ar    1  UNL1        0.0612
     21 C         -12.4806  -17.0058   22.0061 C.ar    1  UNL1        0.1386
     22 F         -13.3552  -16.5299   23.1280 F       1  UNL1       -0.2044
     23 C          -7.5767  -15.9720   22.5021 C.3     1  UNL1        0.1108
     24 N          -6.3604  -15.3032   23.0708 N.3     1  UNL1       -0.1814
     25 H          -6.4091  -14.3217   22.7974 H       1  UNL1        0.1485
     26 S          -6.1127  -15.3290   24.5499 S.O2    1  UNL1        0.0495
     27 O          -7.2375  -14.3580   24.7551 O.2     1  UNL1       -0.1572
     28 O          -4.9879  -16.2999   24.3447 O.2     1  UNL1       -0.1572
     29 C          -5.8651  -15.3547   26.0291 C.3     1  UNL1        0.2713
     30 C          -7.0043  -15.5889   26.9763 C.3     1  UNL1        0.4210
     31 F          -8.1435  -15.8231   27.9236 F       1  UNL1       -0.1680
     32 F          -6.5676  -14.4091   27.7933 F       1  UNL1       -0.1680
     33 F          -7.4410  -16.7687   26.1594 F       1  UNL1       -0.1680
@<TRIPOS>BOND
     1    10     9    1
     2    10     8    1
     3     8     1    1
     4     1     2    2
     5     1     3   am
     6     3     4    1
     7     4     5    1
     8     5     6    1
     9     6     7    1
    10     7    23    1
    11    23    24    1
    12    24    26    1
    13    26    27    2
    14    26    28    2
    15    26    29    1
    16    29    30    1
    17    30    31    1
    18    30    32    1
    19    30    33    1
    20    10    13    1
    21    13    14    1
    22    14    15   ar
    23    15    16   ar
    24    16    17    1
    25    16    18   ar
    26    18    19    1
    27    18    20   ar
    28    20    21   ar
    29    21    22    1
    30     7     3    1
    31    21    14   ar
    32     9    11    1
    33     9    12    1
    34    24    25    1
@<TRIPOS>MOLECULE
*****
 33 34 0 0 0
SMALL
GASTEIGER

@<TRIPOS>ATOM
      1 C          -7.7985  -18.6087   22.4745 C.2     1  UNL1        0.2270
      2 O          -8.5653  -19.8786   22.6969 O.2     1  UNL1       -0.2748
      3 N          -8.1059  -17.3930   23.2976 N.am    1  UNL1       -0.2797
      4 C          -7.4267  -16.0600   23.1892 C.3     1  UNL1        0.0934
      5 C          -8.0474  -15.1400   24.1983 C.3     1  UNL1        0.0232
      6 C          -9.1103  -15.9045   24.9304 C.3     1  UNL1        0.0230
      7 C          -9.1464  -17.2969   24.3737 C.3     1  UNL1        0.0928
      8 C          -6.7244  -18.5545   21.4289 C.3     1  UNL1        0.1010
      9 N          -7.5998  -20.3647   19.7835 N.3     1  UNL1       -0.3215
     10 C          -6.4705  -19.7448   20.5521 C.3     1  UNL1        0.0644
     11 H          -8.4616  -19.8534   19.9740 H       1  UNL1        0.1188
     12 H          -7.7115  -21.3376   20.0687 H       1  UNL1        0.1188
     13 C          -5.0875  -20.3152   20.4438 C.3     1  UNL1        0.0447
     14 C          -3.8948  -19.4079   20.5086 C.ar    1  UNL1        0.0090
     15 C          -2.9563  -19.4851   21.6762 C.ar    1  UNL1        0.0300
     16 C          -1.7636  -18.5777   21.7410 C.ar    1  UNL1        0.1672
     17 F          -0.8251  -18.6549   22.9086 F       1  UNL1       -0.2018
     18 C          -1.5094  -17.5932   20.6382 C.ar    1  UNL1        0.1696
     19 F          -0.3167  -16.6859   20.7031 F       1  UNL1       -0.2017
     20 C          -2.4479  -17.5161   19.4706 C.ar    1  UNL1        0.0612
     21 C          -3.6405  -18.4234   19.4058 C.ar    1  UNL1        0.1386
     22 F          -4.5791  -18.3462   18.2382 F       1  UNL1       -0.2044
     23 C         -10.0623  -18.3995   24.8157 C.3     1  UNL1        0.1108
     24 N         -11.4787  -18.4407   24.3235 N.3     1  UNL1       -0.1814
     25 H         -11.9779  -17.6897   24.8002 H       1  UNL1        0.1485
     26 S         -11.7686  -18.2923   22.8594 S.O2    1  UNL1        0.0495
     27 O         -12.2464  -16.8902   23.0962 O.2     1  UNL1       -0.1572
     28 O         -11.2909  -19.6943   22.6226 O.2     1  UNL1       -0.1572
     29 C         -12.0586  -18.1438   21.3952 C.3     1  UNL1        0.2713
     30 C         -10.9446  -18.2448   20.3959 C.3     1  UNL1        0.4210
     31 F          -9.8305  -18.3459   19.3966 F       1  UNL1       -0.1680
     32 F         -10.3477  -16.9779   20.9331 F       1  UNL1       -0.1680
     33 F         -11.5414  -19.5118   19.8587 F       1  UNL1       -0.1680
@<TRIPOS>BOND
     1    10     9    1
     2    10     8    1
     3     8     1    1
     4     1     2    2
     5     1     3   am
     6     3     4    1
     7     4     5    1
     8     5     6    1
     9     6     7    1
    10     7    23    1
    11    23    24    1
    12    24    26    1
    13    26    27    2
    14    26    28    2
    15    26    29    1
    16    29    30    1
    17    30    31    1
    18    30    32    1
    19    30    33    1
    20    10    13    1
    21    13    14    1
    22    14    15   ar
    23    15    16   ar
    24    16    17    1
    25    16    18   ar
    26    18    19    1
    27    18    20   ar
    28    20    21   ar
    29    21    22    1
    30     7     3    1
    31    21    14   ar
    32     9    11    1
    33     9    12    1
    34    24    25    1
