@<TRIPOS>MOLECULE
*****
 28 31 0 0 0
SMALL
GASTEIGER

@<TRIPOS>ATOM
      1 C          -8.9069  -16.2215   24.2122 C.3     1  UNL1        0.1601
      2 C          -8.1599  -17.0564   23.2147 C.3     1  UNL1        0.1277
      3 N          -8.8621  -17.5745   21.9947 N.pl3   1  UNL1       -0.2740
      4 C         -10.3112  -17.2575   21.7720 C.3     1  UNL1        0.1257
      5 C         -11.0582  -16.4225   22.7694 C.3     1  UNL1        0.1640
      6 O         -10.3560  -15.9045   23.9895 O.3     1  UNL1       -0.3482
      7 C          -8.1151  -18.4094   20.9973 C.ar    1  UNL1        0.2036
      8 N          -6.6205  -18.3166   20.9109 N.ar    1  UNL1       -0.2133
      9 C          -5.8735  -19.1516   19.9135 C.ar    1  UNL1        0.1065
     10 C          -6.6212  -20.0794   19.0024 C.ar    1  UNL1        0.0815
     11 C          -8.1159  -20.1723   19.0887 C.ar    1  UNL1        0.2646
     12 O          -8.8635  -21.1001   18.1776 O.2     1  UNL1       -0.2668
     13 N          -8.8628  -19.3373   20.0861 N.ar    1  UNL1       -0.2667
     14 C         -10.3574  -19.4301   20.1724 C.3     1  UNL1        0.1363
     15 C          -4.3789  -19.0587   19.8272 C.ar    1  UNL1        0.1024
     16 C          -3.5219  -20.0029   20.6172 C.ar    1  UNL1        0.0414
     17 C          -2.0273  -19.9100   20.5309 C.ar    1  UNL1        0.1023
     18 N          -1.3897  -18.8729   19.6546 N.ar    1  UNL1       -0.2224
     19 C          -2.2466  -17.9287   18.8646 C.ar    1  UNL1        0.1989
     20 N          -3.7412  -18.0216   18.9509 N.ar    1  UNL1       -0.2224
     21 C          -6.7582  -15.3140   25.3565 C.ar    1  UNL1        0.1370
     22 C          -6.0560  -14.7960   26.5766 C.ar    1  UNL1        0.0367
     23 C          -6.8005  -14.6674   27.8724 C.ar    1  UNL1        0.0031
     24 C          -8.2470  -15.0569   27.9483 C.ar    1  UNL1       -0.0000
     25 C          -8.9491  -15.5749   26.7282 C.ar    1  UNL1        0.0011
     26 C          -8.2047  -15.7034   25.4323 C.ar    1  UNL1        0.0402
     27 C          -4.7758  -16.2864   23.9873 C.3     1  UNL1        0.2525
     28 O          -6.0137  -15.4425   24.0606 O.3     1  UNL1       -0.4717
@<TRIPOS>BOND
     1    27    28    1
     2    28    21    1
     3    21    22   ar
     4    22    23   ar
     5    23    24   ar
     6    24    25   ar
     7    25    26   ar
     8     1    26    1
     9     1     2    1
    10     2     3    1
    11     3     7    1
    12     7     8   ar
    13     8     9   ar
    14     9    15    1
    15    15    16   ar
    16    16    17   ar
    17    17    18   ar
    18    18    19   ar
    19    19    20   ar
    20     9    10   ar
    21    10    11   ar
    22    11    12    2
    23    11    13   ar
    24    13    14    1
    25     3     4    1
    26     4     5    1
    27     5     6    1
    28    26    21   ar
    29     6     1    1
    30    13     7   ar
    31    20    15   ar
@<TRIPOS>MOLECULE
*****
 28 31 0 0 0
SMALL
GASTEIGER

@<TRIPOS>ATOM
      1 C           6.4632   -3.1745   22.1351 C.3     1  UNL1        0.1601
      2 C           6.4012   -3.9037   23.4445 C.3     1  UNL1        0.1277
      3 N           7.6607   -4.4148   24.0787 N.pl3   1  UNL1       -0.2740
      4 C           8.9824   -4.1968   23.4036 C.3     1  UNL1        0.1257
      5 C           9.0444   -3.4676   22.0942 C.3     1  UNL1        0.1640
      6 O           7.7848   -2.9565   21.4599 O.3     1  UNL1       -0.3482
      7 C           7.5987   -5.1440   25.3881 C.ar    1  UNL1        0.2036
      8 N           7.2745   -4.3971   26.6478 N.ar    1  UNL1       -0.2133
      9 C           7.2125   -5.1262   27.9572 C.ar    1  UNL1        0.1065
     10 C           7.4746   -6.6023   28.0068 C.ar    1  UNL1        0.0815
     11 C           7.7987   -7.3493   26.7470 C.ar    1  UNL1        0.2646
     12 O           8.0608   -8.8253   26.7967 O.2     1  UNL1       -0.2668
     13 N           7.8607   -6.6201   25.4377 N.ar    1  UNL1       -0.2667
     14 C           8.1849   -7.3670   24.1779 C.3     1  UNL1        0.1363
     15 C           6.8884   -4.3792   29.2170 C.ar    1  UNL1        0.1024
     16 C           7.0289   -5.0567   30.5479 C.ar    1  UNL1        0.0414
     17 C           6.7047   -4.3097   31.8076 C.ar    1  UNL1        0.1023
     18 N           6.2401   -2.8853   31.7364 N.ar    1  UNL1       -0.2224
     19 C           6.0996   -2.2078   30.4056 C.ar    1  UNL1        0.1989
     20 N           6.4237   -2.9548   29.1459 N.ar    1  UNL1       -0.2224
     21 C           4.5986   -3.3945   20.3393 C.ar    1  UNL1        0.1370
     22 C           3.3391   -2.8834   19.7051 C.ar    1  UNL1        0.0367
     23 C           2.6845   -1.6410   20.2326 C.ar    1  UNL1        0.0031
     24 C           3.2895   -0.9099   21.3941 C.ar    1  UNL1       -0.0000
     25 C           4.5491   -1.4210   22.0283 C.ar    1  UNL1        0.0011
     26 C           5.2036   -2.6633   21.5009 C.ar    1  UNL1        0.0402
     27 C           4.6117   -5.4064   18.6955 C.3     1  UNL1        0.2525
     28 O           5.2532   -4.6368   19.8119 O.3     1  UNL1       -0.4717
@<TRIPOS>BOND
     1    27    28    1
     2    28    21    1
     3    21    22   ar
     4    22    23   ar
     5    23    24   ar
     6    24    25   ar
     7    25    26   ar
     8     1    26    1
     9     1     2    1
    10     2     3    1
    11     3     7    1
    12     7     8   ar
    13     8     9   ar
    14     9    15    1
    15    15    16   ar
    16    16    17   ar
    17    17    18   ar
    18    18    19   ar
    19    19    20   ar
    20     9    10   ar
    21    10    11   ar
    22    11    12    2
    23    11    13   ar
    24    13    14    1
    25     3     4    1
    26     4     5    1
    27     5     6    1
    28    26    21   ar
    29     6     1    1
    30    13     7   ar
    31    20    15   ar
@<TRIPOS>MOLECULE
*****
 28 31 0 0 0
SMALL
GASTEIGER

@<TRIPOS>ATOM
      1 C           6.7915   -3.4401   21.9652 C.3     1  UNL1        0.1601
      2 C           6.6618   -4.2024   23.2506 C.3     1  UNL1        0.1277
      3 N           7.8415   -4.3324   24.1678 N.pl3   1  UNL1       -0.2740
      4 C           9.1510   -3.7001   23.7997 C.3     1  UNL1        0.1257
      5 C           9.2807   -2.9378   22.5144 C.3     1  UNL1        0.1640
      6 O           8.1009   -2.8078   21.5971 O.3     1  UNL1       -0.3482
      7 C           7.7118   -5.0947   25.4531 C.ar    1  UNL1        0.2036
      8 N           7.3768   -4.3712   26.7237 N.ar    1  UNL1       -0.2133
      9 C           7.2470   -5.1335   28.0090 C.ar    1  UNL1        0.1065
     10 C           7.4523   -6.6193   28.0238 C.ar    1  UNL1        0.0815
     11 C           7.7874   -7.3429   26.7532 C.ar    1  UNL1        0.2646
     12 O           7.9927   -8.8286   26.7680 O.2     1  UNL1       -0.2668
     13 N           7.9171   -6.5806   25.4679 N.ar    1  UNL1       -0.2667
     14 C           8.2521   -7.3040   24.1974 C.3     1  UNL1        0.1363
     15 C           6.9120   -4.4099   29.2796 C.ar    1  UNL1        0.1024
     16 C           7.0040   -5.1236   30.5957 C.ar    1  UNL1        0.0414
     17 C           6.6690   -4.4000   31.8662 C.ar    1  UNL1        0.1023
     18 N           6.2419   -2.9628   31.8205 N.ar    1  UNL1       -0.2224
     19 C           6.1499   -2.2492   30.5044 C.ar    1  UNL1        0.1989
     20 N           6.4850   -2.9727   29.2339 N.ar    1  UNL1       -0.2224
     21 C           4.6078   -2.2175   21.2676 C.ar    1  UNL1        0.1370
     22 C           3.4281   -2.0876   20.3504 C.ar    1  UNL1        0.0367
     23 C           3.2523   -3.0502   19.2136 C.ar    1  UNL1        0.0031
     24 C           4.2562   -4.1428   18.9940 C.ar    1  UNL1       -0.0000
     25 C           5.4359   -4.2728   19.9112 C.ar    1  UNL1        0.0011
     26 C           5.6117   -3.3101   21.0480 C.ar    1  UNL1        0.0402
     27 C           3.9085   -1.3598   23.6182 C.3     1  UNL1        0.2525
     28 O           4.7835   -1.2548   22.4045 O.3     1  UNL1       -0.4717
@<TRIPOS>BOND
     1    27    28    1
     2    28    21    1
     3    21    22   ar
     4    22    23   ar
     5    23    24   ar
     6    24    25   ar
     7    25    26   ar
     8     1    26    1
     9     1     2    1
    10     2     3    1
    11     3     7    1
    12     7     8   ar
    13     8     9   ar
    14     9    15    1
    15    15    16   ar
    16    16    17   ar
    17    17    18   ar
    18    18    19   ar
    19    19    20   ar
    20     9    10   ar
    21    10    11   ar
    22    11    12    2
    23    11    13   ar
    24    13    14    1
    25     3     4    1
    26     4     5    1
    27     5     6    1
    28    26    21   ar
    29     6     1    1
    30    13     7   ar
    31    20    15   ar
@<TRIPOS>MOLECULE
*****
 28 31 0 0 0
SMALL
GASTEIGER

@<TRIPOS>ATOM
      1 C           7.5310   -4.0375   27.4949 C.3     1  UNL1        0.1601
      2 C           6.3942   -3.5231   28.3274 C.3     1  UNL1        0.1277
      3 N           6.2159   -2.0467   28.5230 N.pl3   1  UNL1       -0.2740
      4 C           7.1744   -1.0846   27.8861 C.3     1  UNL1        0.1257
      5 C           8.3112   -1.5989   27.0537 C.3     1  UNL1        0.1640
      6 O           8.4895   -3.0755   26.8581 O.3     1  UNL1       -0.3482
      7 C           5.0790   -1.5323   29.3555 C.ar    1  UNL1        0.2036
      8 N           3.8502   -0.9858   28.6911 N.ar    1  UNL1       -0.2133
      9 C           2.7134   -0.4714   29.5236 C.ar    1  UNL1        0.1065
     10 C           2.8053   -0.5036   31.0204 C.ar    1  UNL1        0.0815
     11 C           4.0342   -1.0501   31.6848 C.ar    1  UNL1        0.2646
     12 O           4.1261   -1.0822   33.1816 O.2     1  UNL1       -0.2668
     13 N           5.1710   -1.5645   30.8524 N.ar    1  UNL1       -0.2667
     14 C           6.3998   -2.1110   31.5167 C.3     1  UNL1        0.1363
     15 C           1.4846    0.0751   28.8592 C.ar    1  UNL1        0.1024
     16 C           1.6085    0.8839   27.6021 C.ar    1  UNL1        0.0414
     17 C           0.3797    1.4304   26.9377 C.ar    1  UNL1        0.1023
     18 N          -0.9730    1.1680   27.5305 N.ar    1  UNL1       -0.2224
     19 C          -1.0969    0.3592   28.7877 C.ar    1  UNL1        0.1989
     20 N           0.1319   -0.1872   29.4520 N.ar    1  UNL1       -0.2224
     21 C           8.2555   -6.3576   28.4129 C.ar    1  UNL1        0.1370
     22 C           8.4337   -7.8340   28.2173 C.ar    1  UNL1        0.0367
     23 C           8.0658   -8.4669   26.9080 C.ar    1  UNL1        0.0031
     24 C           7.5196   -7.6234   25.7945 C.ar    1  UNL1       -0.0000
     25 C           7.3413   -6.1470   25.9901 C.ar    1  UNL1        0.0011
     26 C           7.7093   -5.5140   27.2993 C.ar    1  UNL1        0.0402
     27 C           7.6996   -5.8424   30.8980 C.3     1  UNL1        0.2525
     28 O           8.6234   -5.7246   29.7221 O.3     1  UNL1       -0.4717
@<TRIPOS>BOND
     1    27    28    1
     2    28    21    1
     3    21    22   ar
     4    22    23   ar
     5    23    24   ar
     6    24    25   ar
     7    25    26   ar
     8     1    26    1
     9     1     2    1
    10     2     3    1
    11     3     7    1
    12     7     8   ar
    13     8     9   ar
    14     9    15    1
    15    15    16   ar
    16    16    17   ar
    17    17    18   ar
    18    18    19   ar
    19    19    20   ar
    20     9    10   ar
    21    10    11   ar
    22    11    12    2
    23    11    13   ar
    24    13    14    1
    25     3     4    1
    26     4     5    1
    27     5     6    1
    28    26    21   ar
    29     6     1    1
    30    13     7   ar
    31    20    15   ar
@<TRIPOS>MOLECULE
*****
 28 31 0 0 0
SMALL
GASTEIGER

@<TRIPOS>ATOM
      1 C           1.6704    1.7581   25.6202 C.3     1  UNL1        0.1601
      2 C           1.6368    1.0183   24.3158 C.3     1  UNL1        0.1277
      3 N           2.3661    1.5651   23.1245 N.pl3   1  UNL1       -0.2740
      4 C           3.1292    2.8516   23.2377 C.3     1  UNL1        0.1257
      5 C           3.1628    3.5913   24.5422 C.3     1  UNL1        0.1640
      6 O           2.4334    3.0445   25.7335 O.3     1  UNL1       -0.3482
      7 C           2.3325    0.8253   21.8200 C.ar    1  UNL1        0.2036
      8 N           3.1555   -0.4157   21.6402 N.ar    1  UNL1       -0.2133
      9 C           3.1218   -1.1555   20.3357 C.ar    1  UNL1        0.1065
     10 C           2.2653   -0.6541   19.2111 C.ar    1  UNL1        0.0815
     11 C           1.4422    0.5871   19.3909 C.ar    1  UNL1        0.2646
     12 O           0.5857    1.0884   18.2662 O.2     1  UNL1       -0.2668
     13 N           1.4759    1.3268   20.6954 N.ar    1  UNL1       -0.2667
     14 C           0.6529    2.5679   20.8752 C.3     1  UNL1        0.1363
     15 C           3.9448   -2.3966   20.1559 C.ar    1  UNL1        0.1024
     16 C           3.4290   -3.5225   19.3096 C.ar    1  UNL1        0.0414
     17 C           4.2520   -4.7636   19.1298 C.ar    1  UNL1        0.1023
     18 N           5.5908   -4.8788   19.7964 N.ar    1  UNL1       -0.2224
     19 C           6.1067   -3.7529   20.6426 C.ar    1  UNL1        0.1989
     20 N           5.2837   -2.5118   20.8224 N.ar    1  UNL1       -0.2224
     21 C           1.6728    0.3780   27.8215 C.ar    1  UNL1        0.1370
     22 C           0.9434   -0.1687   29.0127 C.ar    1  UNL1        0.0367
     23 C          -0.5178    0.1178   29.1939 C.ar    1  UNL1        0.0031
     24 C          -1.2496    0.9510   28.1839 C.ar    1  UNL1       -0.0000
     25 C          -0.5202    1.4978   26.9927 C.ar    1  UNL1        0.0011
     26 C           0.9410    1.2113   26.8115 C.ar    1  UNL1        0.0402
     27 C           3.5949   -1.3085   27.3625 C.3     1  UNL1        0.2525
     28 O           3.1340    0.0915   27.6403 O.3     1  UNL1       -0.4717
@<TRIPOS>BOND
     1    27    28    1
     2    28    21    1
     3    21    22   ar
     4    22    23   ar
     5    23    24   ar
     6    24    25   ar
     7    25    26   ar
     8     1    26    1
     9     1     2    1
    10     2     3    1
    11     3     7    1
    12     7     8   ar
    13     8     9   ar
    14     9    15    1
    15    15    16   ar
    16    16    17   ar
    17    17    18   ar
    18    18    19   ar
    19    19    20   ar
    20     9    10   ar
    21    10    11   ar
    22    11    12    2
    23    11    13   ar
    24    13    14    1
    25     3     4    1
    26     4     5    1
    27     5     6    1
    28    26    21   ar
    29     6     1    1
    30    13     7   ar
    31    20    15   ar
@<TRIPOS>MOLECULE
*****
 28 31 0 0 0
SMALL
GASTEIGER

@<TRIPOS>ATOM
      1 C           3.5997   -0.2130   21.7208 C.3     1  UNL1        0.1601
      2 C           2.6250    0.0201   22.8368 C.3     1  UNL1        0.1277
      3 N           2.4617    1.3945   23.4151 N.pl3   1  UNL1       -0.2740
      4 C           3.2732    2.5358   22.8774 C.3     1  UNL1        0.1257
      5 C           4.2479    2.3026   21.7613 C.3     1  UNL1        0.1640
      6 O           4.4111    0.9281   21.1830 O.3     1  UNL1       -0.3482
      7 C           1.4870    1.6276   24.5312 C.ar    1  UNL1        0.2036
      8 N           1.8607    1.2723   25.9397 N.ar    1  UNL1       -0.2133
      9 C           0.8860    1.5055   27.0558 C.ar    1  UNL1        0.1065
     10 C          -0.4624    2.0940   26.7633 C.ar    1  UNL1        0.0815
     11 C          -0.8361    2.4494   25.3547 C.ar    1  UNL1        0.2646
     12 O          -2.1844    3.0378   25.0622 O.2     1  UNL1       -0.2668
     13 N           0.1386    2.2162   24.2386 N.ar    1  UNL1       -0.2667
     14 C          -0.2350    2.5715   22.8300 C.3     1  UNL1        0.1363
     15 C           1.2597    1.1501   28.4644 C.ar    1  UNL1        0.1024
     16 C           0.9649    2.1057   29.5824 C.ar    1  UNL1        0.0414
     17 C           1.3386    1.7504   30.9909 C.ar    1  UNL1        0.1023
     18 N           2.0071    0.4393   31.2815 N.ar    1  UNL1       -0.2224
     19 C           2.3018   -0.5163   30.1635 C.ar    1  UNL1        0.1989
     20 N           1.9281   -0.1609   28.7550 N.ar    1  UNL1       -0.2224
     21 C           3.3354   -1.8631   19.7314 C.ar    1  UNL1        0.1370
     22 C           3.4987   -3.2374   19.1532 C.ar    1  UNL1        0.0367
     23 C           4.0894   -4.3362   19.9860 C.ar    1  UNL1        0.0031
     24 C           4.5170   -4.0606   21.3971 C.ar    1  UNL1       -0.0000
     25 C           4.3537   -2.6863   21.9753 C.ar    1  UNL1        0.0011
     26 C           3.7629   -1.5875   21.1425 C.ar    1  UNL1        0.0402
     27 C           3.4618   -0.2850   17.6714 C.3     1  UNL1        0.2525
     28 O           2.7447   -0.7643   18.8985 O.3     1  UNL1       -0.4717
@<TRIPOS>BOND
     1    27    28    1
     2    28    21    1
     3    21    22   ar
     4    22    23   ar
     5    23    24   ar
     6    24    25   ar
     7    25    26   ar
     8     1    26    1
     9     1     2    1
    10     2     3    1
    11     3     7    1
    12     7     8   ar
    13     8     9   ar
    14     9    15    1
    15    15    16   ar
    16    16    17   ar
    17    17    18   ar
    18    18    19   ar
    19    19    20   ar
    20     9    10   ar
    21    10    11   ar
    22    11    12    2
    23    11    13   ar
    24    13    14    1
    25     3     4    1
    26     4     5    1
    27     5     6    1
    28    26    21   ar
    29     6     1    1
    30    13     7   ar
    31    20    15   ar
@<TRIPOS>MOLECULE
*****
 28 31 0 0 0
SMALL
GASTEIGER

@<TRIPOS>ATOM
      1 C           1.6570    1.7939   25.5979 C.3     1  UNL1        0.1601
      2 C           1.6287    1.0485   24.2966 C.3     1  UNL1        0.1277
      3 N           2.3434    1.6020   23.0995 N.pl3   1  UNL1       -0.2740
      4 C           3.0864    2.9008   23.2039 C.3     1  UNL1        0.1257
      5 C           3.1148    3.6462   24.5053 C.3     1  UNL1        0.1640
      6 O           2.4000    3.0927   25.7023 O.3     1  UNL1       -0.3482
      7 C           2.3150    0.8566   21.7982 C.ar    1  UNL1        0.2036
      8 N           3.1395   -0.3847   21.6267 N.ar    1  UNL1       -0.2133
      9 C           3.1111   -1.1300   20.3253 C.ar    1  UNL1        0.1065
     10 C           2.2583   -0.6341   19.1954 C.ar    1  UNL1        0.0815
     11 C           1.4338    0.6072   19.3668 C.ar    1  UNL1        0.2646
     12 O           0.5810    1.1031   18.2369 O.2     1  UNL1       -0.2668
     13 N           1.4621    1.3526   20.6682 N.ar    1  UNL1       -0.2667
     14 C           0.6377    2.5938   20.8397 C.3     1  UNL1        0.1363
     15 C           3.9357   -2.3714   20.1538 C.ar    1  UNL1        0.1024
     16 C           3.4259   -3.4992   19.3065 C.ar    1  UNL1        0.0414
     17 C           4.2504   -4.7405   19.1350 C.ar    1  UNL1        0.1023
     18 N           5.5847   -4.8539   19.8110 N.ar    1  UNL1       -0.2224
     19 C           6.0944   -3.7260   20.6584 C.ar    1  UNL1        0.1989
     20 N           5.2699   -2.4848   20.8298 N.ar    1  UNL1       -0.2224
     21 C          -0.5217    1.5068   26.9839 C.ar    1  UNL1        0.1370
     22 C          -1.2364    0.9533   28.1809 C.ar    1  UNL1        0.0367
     23 C          -0.4871    0.1333   29.1890 C.ar    1  UNL1        0.0031
     24 C           0.9769   -0.1331   29.0001 C.ar    1  UNL1       -0.0000
     25 C           1.6916    0.4204   27.8031 C.ar    1  UNL1        0.0011
     26 C           0.9423    1.2403   26.7950 C.ar    1  UNL1        0.0402
     27 C          -2.2018    3.4105   26.4332 C.3     1  UNL1        0.2525
     28 O          -1.2710    2.3267   25.9758 O.3     1  UNL1       -0.4717
@<TRIPOS>BOND
     1    27    28    1
     2    28    21    1
     3    21    22   ar
     4    22    23   ar
     5    23    24   ar
     6    24    25   ar
     7    25    26   ar
     8     1    26    1
     9     1     2    1
    10     2     3    1
    11     3     7    1
    12     7     8   ar
    13     8     9   ar
    14     9    15    1
    15    15    16   ar
    16    16    17   ar
    17    17    18   ar
    18    18    19   ar
    19    19    20   ar
    20     9    10   ar
    21    10    11   ar
    22    11    12    2
    23    11    13   ar
    24    13    14    1
    25     3     4    1
    26     4     5    1
    27     5     6    1
    28    26    21   ar
    29     6     1    1
    30    13     7   ar
    31    20    15   ar
@<TRIPOS>MOLECULE
*****
 28 31 0 0 0
SMALL
GASTEIGER

@<TRIPOS>ATOM
      1 C           4.3391    0.3612   29.2574 C.3     1  UNL1        0.1601
      2 C           4.7010   -1.0872   29.1125 C.3     1  UNL1        0.1277
      3 N           6.0982   -1.5446   29.4098 N.pl3   1  UNL1       -0.2740
      4 C           7.1337   -0.5535   29.8521 C.3     1  UNL1        0.1257
      5 C           6.7719    0.8949   29.9971 C.3     1  UNL1        0.1640
      6 O           5.3745    1.3523   29.6998 O.3     1  UNL1       -0.3482
      7 C           6.4601   -2.9931   29.2648 C.ar    1  UNL1        0.2036
      8 N           6.7568   -3.5598   27.9081 N.ar    1  UNL1       -0.2133
      9 C           7.1186   -5.0083   27.7631 C.ar    1  UNL1        0.1065
     10 C           7.1837   -5.8900   28.9748 C.ar    1  UNL1        0.0815
     11 C           6.8870   -5.3233   30.3316 C.ar    1  UNL1        0.2646
     12 O           6.9521   -6.2050   31.5433 O.2     1  UNL1       -0.2668
     13 N           6.5251   -3.8748   30.4766 N.ar    1  UNL1       -0.2667
     14 C           6.2284   -3.3081   31.8333 C.3     1  UNL1        0.1363
     15 C           7.4154   -5.5750   26.4063 C.ar    1  UNL1        0.1024
     16 C           7.7559   -7.0284   26.2587 C.ar    1  UNL1        0.0414
     17 C           8.0526   -7.5950   24.9019 C.ar    1  UNL1        0.1023
     18 N           8.0088   -6.7084   23.6928 N.ar    1  UNL1       -0.2224
     19 C           7.6683   -5.2550   23.8405 C.ar    1  UNL1        0.1989
     20 N           7.3716   -4.6884   25.1972 N.ar    1  UNL1       -0.2224
     21 C           1.8788    0.7155   30.0133 C.ar    1  UNL1        0.1370
     22 C           0.4815    1.1729   29.7159 C.ar    1  UNL1        0.0367
     23 C           0.1473    1.7334   28.3653 C.ar    1  UNL1        0.0031
     24 C           1.2103    1.8365   27.3121 C.ar    1  UNL1       -0.0000
     25 C           2.6076    1.3791   27.6095 C.ar    1  UNL1        0.0011
     26 C           2.9418    0.8186   28.9601 C.ar    1  UNL1        0.0402
     27 C           2.7862    1.0468   32.4251 C.3     1  UNL1        0.2525
     28 O           2.2130    0.1550   31.3639 O.3     1  UNL1       -0.4717
@<TRIPOS>BOND
     1    27    28    1
     2    28    21    1
     3    21    22   ar
     4    22    23   ar
     5    23    24   ar
     6    24    25   ar
     7    25    26   ar
     8     1    26    1
     9     1     2    1
    10     2     3    1
    11     3     7    1
    12     7     8   ar
    13     8     9   ar
    14     9    15    1
    15    15    16   ar
    16    16    17   ar
    17    17    18   ar
    18    18    19   ar
    19    19    20   ar
    20     9    10   ar
    21    10    11   ar
    22    11    12    2
    23    11    13   ar
    24    13    14    1
    25     3     4    1
    26     4     5    1
    27     5     6    1
    28    26    21   ar
    29     6     1    1
    30    13     7   ar
    31    20    15   ar
@<TRIPOS>MOLECULE
*****
 28 31 0 0 0
SMALL
GASTEIGER

@<TRIPOS>ATOM
      1 C           4.0219   -0.5693   23.2024 C.3     1  UNL1        0.1601
      2 C           2.8234   -0.2997   24.0633 C.3     1  UNL1        0.1277
      3 N           2.8893    0.7495   25.1332 N.pl3   1  UNL1       -0.2740
      4 C           4.1536    1.5292   25.3422 C.3     1  UNL1        0.1257
      5 C           5.3520    1.2596   24.4814 C.3     1  UNL1        0.1640
      6 O           5.2861    0.2103   23.4114 O.3     1  UNL1       -0.3482
      7 C           1.6908    1.0191   25.9940 C.ar    1  UNL1        0.2036
      8 N           0.5747    1.8780   25.4780 N.ar    1  UNL1       -0.2133
      9 C          -0.6238    2.1476   26.3389 C.ar    1  UNL1        0.1065
     10 C          -0.7060    1.5583   27.7158 C.ar    1  UNL1        0.0815
     11 C           0.4102    0.6993   28.2319 C.ar    1  UNL1        0.2646
     12 O           0.3280    0.1100   29.6088 O.2     1  UNL1       -0.2668
     13 N           1.6086    0.4297   27.3710 N.ar    1  UNL1       -0.2667
     14 C           2.7248   -0.4292   27.8870 C.3     1  UNL1        0.1363
     15 C          -1.7400    3.0066   25.8228 C.ar    1  UNL1        0.1024
     16 C          -1.7512    3.4388   24.3864 C.ar    1  UNL1        0.0414
     17 C          -2.8674    4.2977   23.8704 C.ar    1  UNL1        0.1023
     18 N          -3.9724    4.7244   24.7907 N.ar    1  UNL1       -0.2224
     19 C          -3.9612    4.2922   26.2270 C.ar    1  UNL1        0.1989
     20 N          -2.8450    3.4333   26.7430 N.ar    1  UNL1       -0.2224
     21 C           3.2283   -1.3385   20.8511 C.ar    1  UNL1        0.1370
     22 C           3.1625   -2.3878   19.7813 C.ar    1  UNL1        0.0367
     23 C           3.8243   -3.7172   19.9928 C.ar    1  UNL1        0.0031
     24 C           4.5519   -3.9973   21.2742 C.ar    1  UNL1       -0.0000
     25 C           4.6178   -2.9480   22.3440 C.ar    1  UNL1        0.0011
     26 C           3.9560   -1.6186   22.1325 C.ar    1  UNL1        0.0402
     27 C           1.1031    0.0573   20.3173 C.3     1  UNL1        0.2525
     28 O           2.5665   -0.0092   20.6396 O.3     1  UNL1       -0.4717
@<TRIPOS>BOND
     1    27    28    1
     2    28    21    1
     3    21    22   ar
     4    22    23   ar
     5    23    24   ar
     6    24    25   ar
     7    25    26   ar
     8     1    26    1
     9     1     2    1
    10     2     3    1
    11     3     7    1
    12     7     8   ar
    13     8     9   ar
    14     9    15    1
    15    15    16   ar
    16    16    17   ar
    17    17    18   ar
    18    18    19   ar
    19    19    20   ar
    20     9    10   ar
    21    10    11   ar
    22    11    12    2
    23    11    13   ar
    24    13    14    1
    25     3     4    1
    26     4     5    1
    27     5     6    1
    28    26    21   ar
    29     6     1    1
    30    13     7   ar
    31    20    15   ar
