@<TRIPOS>MOLECULE
*****
 23 25 0 0 0
SMALL
GASTEIGER

@<TRIPOS>ATOM
      1 C          -7.3801  -17.0367   23.4188 C.ar    1  UNL1        0.2035
      2 N          -6.2326  -17.6653   22.6852 N.ar    1  UNL1       -0.2147
      3 C          -4.8234  -17.2820   23.0275 C.ar    1  UNL1        0.0911
      4 C          -4.5616  -16.2701   24.1035 C.ar    1  UNL1        0.0801
      5 C          -5.7091  -15.6415   24.8371 C.ar    1  UNL1        0.2645
      6 O          -5.4474  -14.6297   25.9130 O.2     1  UNL1       -0.2668
      7 N          -7.1184  -16.0248   24.4947 N.ar    1  UNL1       -0.2667
      8 C          -8.2659  -15.3962   25.2283 C.3     1  UNL1        0.1363
      9 C          -8.9286  -15.4258   21.4170 C.3     1  UNL1        0.0241
     10 C          -9.5636  -16.6145   22.0755 C.3     1  UNL1        0.1027
     11 C         -10.9728  -16.9978   21.7332 C.3     1  UNL1        0.1334
     12 C         -11.7471  -16.1924   20.7323 C.3     1  UNL1        0.0338
     13 O         -11.6077  -18.1866   22.3918 O.3     1  UNL1       -0.3527
     14 C         -10.8335  -18.9920   23.3926 C.3     1  UNL1        0.1635
     15 C          -9.4243  -18.6087   23.7350 C.3     1  UNL1        0.1256
     16 N          -8.7894  -17.4200   23.0764 N.pl3   1  UNL1       -0.2761
     17 C          -3.6759  -17.9106   22.2939 C.ar    1  UNL1        0.0485
     18 C          -3.6523  -19.3932   22.0678 C.ar    1  UNL1        0.0244
     19 C          -2.5048  -20.0218   21.3342 C.ar    1  UNL1        0.0991
     20 N          -1.3810  -19.1678   20.8267 N.ar    1  UNL1       -0.2400
     21 C          -1.4046  -17.6851   21.0528 C.ar    1  UNL1        0.1285
     22 C          -2.5521  -17.0565   21.7864 C.ar    1  UNL1        0.1606
     23 F          -2.5758  -15.5738   22.0124 F       1  UNL1       -0.2025
@<TRIPOS>BOND
     1    10     9    1
     2    10    11    1
     3    11    12    1
     4    11    13    1
     5    13    14    1
     6    14    15    1
     7    15    16    1
     8    16     1    1
     9     1     2   ar
    10     2     3   ar
    11     3    17    1
    12    17    18   ar
    13    18    19   ar
    14    19    20   ar
    15    20    21   ar
    16    21    22   ar
    17    22    23    1
    18     3     4   ar
    19     4     5   ar
    20     5     6    2
    21     5     7   ar
    22     7     8    1
    23    16    10    1
    24     7     1   ar
    25    22    17   ar
@<TRIPOS>MOLECULE
*****
 23 25 0 0 0
SMALL
GASTEIGER

@<TRIPOS>ATOM
      1 C          -7.5613  -16.5656   23.4341 C.ar    1  UNL1        0.2035
      2 N          -6.4400  -17.2574   22.7171 N.ar    1  UNL1       -0.2147
      3 C          -5.0392  -17.1599   23.2446 C.ar    1  UNL1        0.0911
      4 C          -4.7597  -16.3706   24.4892 C.ar    1  UNL1        0.0801
      5 C          -5.8810  -15.6788   25.2062 C.ar    1  UNL1        0.2645
      6 O          -5.6015  -14.8896   26.4507 O.2     1  UNL1       -0.2668
      7 N          -7.2818  -15.7764   24.6786 N.ar    1  UNL1       -0.2667
      8 C          -8.4031  -15.0846   25.3957 C.3     1  UNL1        0.1363
      9 C          -9.5736  -18.2965   24.8322 C.3     1  UNL1        0.0241
     10 C          -9.9682  -17.5286   23.6056 C.3     1  UNL1        0.1027
     11 C         -11.3690  -17.6261   23.0780 C.3     1  UNL1        0.1334
     12 C         -12.3752  -18.4916   23.7771 C.3     1  UNL1        0.0338
     13 O         -11.7636  -16.8582   21.8514 O.3     1  UNL1       -0.3527
     14 C         -10.7575  -15.9927   21.1524 C.3     1  UNL1        0.1635
     15 C          -9.3567  -15.8952   21.6799 C.3     1  UNL1        0.1256
     16 N          -8.9621  -16.6632   22.9065 N.pl3   1  UNL1       -0.2761
     17 C          -3.9179  -17.8517   22.5275 C.ar    1  UNL1        0.0485
     18 C          -3.9570  -19.3383   22.3317 C.ar    1  UNL1        0.0244
     19 C          -2.8357  -20.0301   21.6147 C.ar    1  UNL1        0.0991
     20 N          -1.6753  -19.2353   21.0935 N.ar    1  UNL1       -0.2400
     21 C          -1.6362  -17.7486   21.2893 C.ar    1  UNL1        0.1285
     22 C          -2.7575  -17.0568   22.0063 C.ar    1  UNL1        0.1606
     23 F          -2.7184  -15.5702   22.2021 F       1  UNL1       -0.2025
@<TRIPOS>BOND
     1    10     9    1
     2    10    11    1
     3    11    12    1
     4    11    13    1
     5    13    14    1
     6    14    15    1
     7    15    16    1
     8    16     1    1
     9     1     2   ar
    10     2     3   ar
    11     3    17    1
    12    17    18   ar
    13    18    19   ar
    14    19    20   ar
    15    20    21   ar
    16    21    22   ar
    17    22    23    1
    18     3     4   ar
    19     4     5   ar
    20     5     6    2
    21     5     7   ar
    22     7     8    1
    23    16    10    1
    24     7     1   ar
    25    22    17   ar
@<TRIPOS>MOLECULE
*****
 23 25 0 0 0
SMALL
GASTEIGER

@<TRIPOS>ATOM
      1 C          -7.4501  -16.9481   23.4379 C.ar    1  UNL1        0.2035
      2 N          -6.2637  -17.5225   22.7221 N.ar    1  UNL1       -0.2147
      3 C          -4.8765  -17.1220   23.1282 C.ar    1  UNL1        0.0911
      4 C          -4.6756  -16.1470   24.2503 C.ar    1  UNL1        0.0801
      5 C          -5.8620  -15.5725   24.9661 C.ar    1  UNL1        0.2645
      6 O          -5.6611  -14.5975   26.0882 O.2     1  UNL1       -0.2668
      7 N          -7.2493  -15.9731   24.5599 N.ar    1  UNL1       -0.2667
      8 C          -8.4357  -15.3986   25.2757 C.3     1  UNL1        0.1363
      9 C          -8.9278  -15.3522   21.3715 C.3     1  UNL1        0.0241
     10 C          -9.5763  -16.5507   21.9985 C.3     1  UNL1        0.1027
     11 C         -10.9635  -16.9513   21.5923 C.3     1  UNL1        0.1334
     12 C         -11.7024  -16.1534   20.5591 C.3     1  UNL1        0.0338
     13 O         -11.6120  -18.1498   22.2193 O.3     1  UNL1       -0.3527
     14 C         -10.8732  -18.9477   23.2524 C.3     1  UNL1        0.1635
     15 C          -9.4859  -18.5471   23.6586 C.3     1  UNL1        0.1256
     16 N          -8.8375  -17.3486   23.0316 N.pl3   1  UNL1       -0.2761
     17 C          -3.6901  -17.6965   22.4124 C.ar    1  UNL1        0.0485
     18 C          -2.5870  -16.7941   21.9447 C.ar    1  UNL1        0.0244
     19 C          -1.4006  -17.3685   21.2289 C.ar    1  UNL1        0.0991
     20 N          -1.3173  -18.8455   20.9807 N.ar    1  UNL1       -0.2400
     21 C          -2.4204  -19.7480   21.4484 C.ar    1  UNL1        0.1285
     22 C          -3.6068  -19.1735   22.1642 C.ar    1  UNL1        0.1606
     23 F          -4.7099  -20.0760   22.6319 F       1  UNL1       -0.2025
@<TRIPOS>BOND
     1    10     9    1
     2    10    11    1
     3    11    12    1
     4    11    13    1
     5    13    14    1
     6    14    15    1
     7    15    16    1
     8    16     1    1
     9     1     2   ar
    10     2     3   ar
    11     3    17    1
    12    17    18   ar
    13    18    19   ar
    14    19    20   ar
    15    20    21   ar
    16    21    22   ar
    17    22    23    1
    18     3     4   ar
    19     4     5   ar
    20     5     6    2
    21     5     7   ar
    22     7     8    1
    23    16    10    1
    24     7     1   ar
    25    22    17   ar
@<TRIPOS>MOLECULE
*****
 23 25 0 0 0
SMALL
GASTEIGER

@<TRIPOS>ATOM
      1 C          -8.1737  -17.3309   23.4932 C.ar    1  UNL1        0.2035
      2 N          -7.2170  -18.1987   22.7305 N.ar    1  UNL1       -0.2147
      3 C          -5.7481  -17.8958   22.7535 C.ar    1  UNL1        0.0911
      4 C          -5.2359  -16.7251   23.5391 C.ar    1  UNL1        0.0801
      5 C          -6.1926  -15.8574   24.3018 C.ar    1  UNL1        0.2645
      6 O          -5.6804  -14.6868   25.0875 O.2     1  UNL1       -0.2668
      7 N          -7.6616  -16.1603   24.2789 N.ar    1  UNL1       -0.2667
      8 C          -8.6183  -15.2926   25.0416 C.3     1  UNL1        0.1363
      9 C          -9.9225  -16.1188   21.3783 C.3     1  UNL1        0.0241
     10 C         -10.5170  -17.0278   22.4128 C.3     1  UNL1        0.1027
     11 C         -11.9859  -17.3308   22.3899 C.3     1  UNL1        0.1334
     12 C         -12.8603  -16.7247   21.3324 C.3     1  UNL1        0.0338
     13 O         -12.5805  -18.2398   23.4244 O.3     1  UNL1       -0.3527
     14 C         -11.7062  -18.8458   24.4819 C.3     1  UNL1        0.1635
     15 C         -10.2373  -18.5428   24.5048 C.3     1  UNL1        0.1256
     16 N          -9.6427  -17.6339   23.4703 N.pl3   1  UNL1       -0.2761
     17 C          -4.7914  -18.7635   21.9907 C.ar    1  UNL1        0.0485
     18 C          -3.3480  -18.8232   22.3942 C.ar    1  UNL1        0.0244
     19 C          -2.3913  -19.6909   21.6315 C.ar    1  UNL1        0.0991
     20 N          -2.8780  -20.4990   20.4653 N.ar    1  UNL1       -0.2400
     21 C          -4.3215  -20.4393   20.0618 C.ar    1  UNL1        0.1285
     22 C          -5.2782  -19.5716   20.8245 C.ar    1  UNL1        0.1606
     23 F          -6.7217  -19.5119   20.4210 F       1  UNL1       -0.2025
@<TRIPOS>BOND
     1    10     9    1
     2    10    11    1
     3    11    12    1
     4    11    13    1
     5    13    14    1
     6    14    15    1
     7    15    16    1
     8    16     1    1
     9     1     2   ar
    10     2     3   ar
    11     3    17    1
    12    17    18   ar
    13    18    19   ar
    14    19    20   ar
    15    20    21   ar
    16    21    22   ar
    17    22    23    1
    18     3     4   ar
    19     4     5   ar
    20     5     6    2
    21     5     7   ar
    22     7     8    1
    23    16    10    1
    24     7     1   ar
    25    22    17   ar
@<TRIPOS>MOLECULE
*****
 23 25 0 0 0
SMALL
GASTEIGER

@<TRIPOS>ATOM
      1 C          -9.1057  -18.5903   21.1833 C.ar    1  UNL1        0.2035
      2 N          -7.7181  -18.4187   21.7266 N.ar    1  UNL1       -0.2147
      3 C          -6.5622  -19.1059   21.0621 C.ar    1  UNL1        0.0911
      4 C          -6.7938  -19.9647   19.8542 C.ar    1  UNL1        0.0801
      5 C          -8.1814  -20.1363   19.3109 C.ar    1  UNL1        0.2645
      6 O          -8.4130  -20.9951   18.1031 O.2     1  UNL1       -0.2668
      7 N          -9.3373  -19.4491   19.9755 N.ar    1  UNL1       -0.2667
      8 C         -10.7249  -19.6207   19.4322 C.3     1  UNL1        0.1363
      9 C         -10.6689  -20.0077   23.3158 C.3     1  UNL1        0.0241
     10 C         -11.0432  -18.6118   22.9141 C.3     1  UNL1        0.1027
     11 C         -12.1991  -17.9246   23.5786 C.3     1  UNL1        0.1334
     12 C         -12.9808  -18.6333   24.6449 C.3     1  UNL1        0.0338
     13 O         -12.5734  -16.5287   23.1769 O.3     1  UNL1       -0.3527
     14 C         -11.7919  -15.8200   22.1106 C.3     1  UNL1        0.1635
     15 C         -10.6360  -16.5072   21.4461 C.3     1  UNL1        0.1256
     16 N         -10.2617  -17.9031   21.8479 N.pl3   1  UNL1       -0.2761
     17 C          -5.1746  -18.9342   21.6054 C.ar    1  UNL1        0.0485
     18 C          -4.9353  -18.0329   22.7803 C.ar    1  UNL1        0.0244
     19 C          -3.5477  -17.8613   23.3236 C.ar    1  UNL1        0.0991
     20 N          -2.3994  -18.5910   22.6920 N.ar    1  UNL1       -0.2400
     21 C          -2.6387  -19.4924   21.5171 C.ar    1  UNL1        0.1285
     22 C          -4.0263  -19.6640   20.9738 C.ar    1  UNL1        0.1606
     23 F          -4.2655  -20.5653   19.7989 F       1  UNL1       -0.2025
@<TRIPOS>BOND
     1    10     9    1
     2    10    11    1
     3    11    12    1
     4    11    13    1
     5    13    14    1
     6    14    15    1
     7    15    16    1
     8    16     1    1
     9     1     2   ar
    10     2     3   ar
    11     3    17    1
    12    17    18   ar
    13    18    19   ar
    14    19    20   ar
    15    20    21   ar
    16    21    22   ar
    17    22    23    1
    18     3     4   ar
    19     4     5   ar
    20     5     6    2
    21     5     7   ar
    22     7     8    1
    23    16    10    1
    24     7     1   ar
    25    22    17   ar
@<TRIPOS>MOLECULE
*****
 23 25 0 0 0
SMALL
GASTEIGER

@<TRIPOS>ATOM
      1 C          -6.3685  -16.6386   23.4576 C.ar    1  UNL1        0.2035
      2 N          -7.6051  -16.8194   22.6280 N.ar    1  UNL1       -0.2147
      3 C          -8.9466  -16.4571   23.1927 C.ar    1  UNL1        0.0911
      4 C          -9.0516  -15.9138   24.5870 C.ar    1  UNL1        0.0801
      5 C          -7.8150  -15.7330   25.4165 C.ar    1  UNL1        0.2645
      6 O          -7.9200  -15.1898   26.8107 O.2     1  UNL1       -0.2668
      7 N          -6.4734  -16.0954   24.8518 N.ar    1  UNL1       -0.2667
      8 C          -5.2368  -15.9146   25.6813 C.3     1  UNL1        0.1363
      9 C          -5.9258  -19.3577   22.2698 C.3     1  UNL1        0.0241
     10 C          -4.8056  -18.3605   22.2990 C.3     1  UNL1        0.1027
     11 C          -3.4640  -18.7229   21.7343 C.3     1  UNL1        0.1334
     12 C          -3.2426  -20.0824   21.1403 C.3     1  UNL1        0.0338
     13 O          -2.3438  -17.7257   21.7634 O.3     1  UNL1       -0.3527
     14 C          -2.5652  -16.3662   22.3573 C.3     1  UNL1        0.1635
     15 C          -3.9067  -16.0039   22.9220 C.3     1  UNL1        0.1256
     16 N          -5.0269  -17.0010   22.8928 N.pl3   1  UNL1       -0.2761
     17 C         -10.1832  -16.6379   22.3632 C.ar    1  UNL1        0.0485
     18 C         -10.3354  -15.8913   21.0711 C.ar    1  UNL1        0.0244
     19 C         -11.5720  -16.0721   20.2416 C.ar    1  UNL1        0.0991
     20 N         -12.6564  -16.9995   20.7041 N.ar    1  UNL1       -0.2400
     21 C         -12.5042  -17.7462   21.9962 C.ar    1  UNL1        0.1285
     22 C         -11.2676  -17.5654   22.8257 C.ar    1  UNL1        0.1606
     23 F         -11.1154  -18.3120   24.1177 F       1  UNL1       -0.2025
@<TRIPOS>BOND
     1    10     9    1
     2    10    11    1
     3    11    12    1
     4    11    13    1
     5    13    14    1
     6    14    15    1
     7    15    16    1
     8    16     1    1
     9     1     2   ar
    10     2     3   ar
    11     3    17    1
    12    17    18   ar
    13    18    19   ar
    14    19    20   ar
    15    20    21   ar
    16    21    22   ar
    17    22    23    1
    18     3     4   ar
    19     4     5   ar
    20     5     6    2
    21     5     7   ar
    22     7     8    1
    23    16    10    1
    24     7     1   ar
    25    22    17   ar
@<TRIPOS>MOLECULE
*****
 23 25 0 0 0
SMALL
GASTEIGER

@<TRIPOS>ATOM
      1 C          -7.7259  -18.6772   21.7370 C.ar    1  UNL1        0.2035
      2 N          -6.2349  -18.5275   21.6681 N.ar    1  UNL1       -0.2147
      3 C          -5.5016  -18.8941   20.4120 C.ar    1  UNL1        0.0911
      4 C          -6.2592  -19.4105   19.2248 C.ar    1  UNL1        0.0801
      5 C          -7.7501  -19.5602   19.2937 C.ar    1  UNL1        0.2645
      6 O          -8.5077  -20.0765   18.1065 O.2     1  UNL1       -0.2668
      7 N          -8.4835  -19.1935   20.5498 N.ar    1  UNL1       -0.2667
      8 C          -9.9744  -19.3432   20.6187 C.3     1  UNL1        0.1363
      9 C          -7.5079  -15.8974   22.8441 C.3     1  UNL1        0.0241
     10 C          -8.3502  -16.9206   23.5467 C.3     1  UNL1        0.1027
     11 C          -9.0835  -16.5540   24.8028 C.3     1  UNL1        0.1334
     12 C          -8.9746  -15.1641   25.3564 C.3     1  UNL1        0.0338
     13 O          -9.9258  -17.5773   25.5053 O.3     1  UNL1       -0.3527
     14 C         -10.0348  -18.9671   24.9518 C.3     1  UNL1        0.1635
     15 C          -9.3015  -19.3337   23.6957 C.3     1  UNL1        0.1256
     16 N          -8.4592  -18.3105   22.9932 N.pl3   1  UNL1       -0.2761
     17 C          -4.0107  -18.7444   20.3431 C.ar    1  UNL1        0.0485
     18 C          -3.3695  -18.1837   19.1085 C.ar    1  UNL1        0.0244
     19 C          -1.8786  -18.0340   19.0396 C.ar    1  UNL1        0.0991
     20 N          -1.0289  -18.4450   20.2053 N.ar    1  UNL1       -0.2400
     21 C          -1.6700  -19.0057   21.4400 C.ar    1  UNL1        0.1285
     22 C          -3.1610  -19.1554   21.5089 C.ar    1  UNL1        0.1606
     23 F          -3.8022  -19.7162   22.7436 F       1  UNL1       -0.2025
@<TRIPOS>BOND
     1    10     9    1
     2    10    11    1
     3    11    12    1
     4    11    13    1
     5    13    14    1
     6    14    15    1
     7    15    16    1
     8    16     1    1
     9     1     2   ar
    10     2     3   ar
    11     3    17    1
    12    17    18   ar
    13    18    19   ar
    14    19    20   ar
    15    20    21   ar
    16    21    22   ar
    17    22    23    1
    18     3     4   ar
    19     4     5   ar
    20     5     6    2
    21     5     7   ar
    22     7     8    1
    23    16    10    1
    24     7     1   ar
    25    22    17   ar
@<TRIPOS>MOLECULE
*****
 23 25 0 0 0
SMALL
GASTEIGER

@<TRIPOS>ATOM
      1 C          -6.3796  -16.8811   23.5297 C.ar    1  UNL1        0.2035
      2 N          -7.6153  -17.0399   22.6944 N.ar    1  UNL1       -0.2147
      3 C          -8.9366  -16.5509   23.2094 C.ar    1  UNL1        0.0911
      4 C          -9.0221  -15.9032   24.5597 C.ar    1  UNL1        0.0801
      5 C          -7.7863  -15.7444   25.3949 C.ar    1  UNL1        0.2645
      6 O          -7.8718  -15.0967   26.7451 O.2     1  UNL1       -0.2668
      7 N          -6.4650  -16.2334   24.8799 N.ar    1  UNL1       -0.2667
      8 C          -5.2292  -16.0746   25.7151 C.3     1  UNL1        0.1363
      9 C          -4.2361  -14.9154   22.7934 C.3     1  UNL1        0.0241
     10 C          -3.9866  -16.3872   22.6465 C.3     1  UNL1        0.1027
     11 C          -2.6654  -16.8762   22.1315 C.3     1  UNL1        0.1334
     12 C          -1.5936  -15.8933   21.7634 C.3     1  UNL1        0.0338
     13 O          -2.4159  -18.3480   21.9846 O.3     1  UNL1       -0.3527
     14 C          -3.4875  -19.3308   22.3527 C.3     1  UNL1        0.1635
     15 C          -4.8087  -18.8418   22.8677 C.3     1  UNL1        0.1256
     16 N          -5.0583  -17.3700   23.0146 N.pl3   1  UNL1       -0.2761
     17 C         -10.1724  -16.7097   22.3741 C.ar    1  UNL1        0.0485
     18 C         -11.1997  -17.7386   22.7428 C.ar    1  UNL1        0.0244
     19 C         -12.4355  -17.8974   21.9076 C.ar    1  UNL1        0.0991
     20 N         -12.6439  -17.0273   20.7037 N.ar    1  UNL1       -0.2400
     21 C         -11.6166  -15.9983   20.3349 C.ar    1  UNL1        0.1285
     22 C         -10.3808  -15.8396   21.1702 C.ar    1  UNL1        0.1606
     23 F          -9.3535  -14.8107   20.8015 F       1  UNL1       -0.2025
@<TRIPOS>BOND
     1    10     9    1
     2    10    11    1
     3    11    12    1
     4    11    13    1
     5    13    14    1
     6    14    15    1
     7    15    16    1
     8    16     1    1
     9     1     2   ar
    10     2     3   ar
    11     3    17    1
    12    17    18   ar
    13    18    19   ar
    14    19    20   ar
    15    20    21   ar
    16    21    22   ar
    17    22    23    1
    18     3     4   ar
    19     4     5   ar
    20     5     6    2
    21     5     7   ar
    22     7     8    1
    23    16    10    1
    24     7     1   ar
    25    22    17   ar
@<TRIPOS>MOLECULE
*****
 23 25 0 0 0
SMALL
GASTEIGER

@<TRIPOS>ATOM
      1 C           4.0751   -1.1375   20.6786 C.ar    1  UNL1        0.2035
      2 N           4.2783   -0.9976   22.1582 N.ar    1  UNL1       -0.2147
      3 C           4.5718   -2.2089   22.9928 C.ar    1  UNL1        0.0911
      4 C           4.6621   -3.5602   22.3478 C.ar    1  UNL1        0.0801
      5 C           4.4589   -3.7001   20.8682 C.ar    1  UNL1        0.2645
      6 O           4.5492   -5.0513   20.2232 O.2     1  UNL1       -0.2668
      7 N           4.1654   -2.4887   20.0336 N.ar    1  UNL1       -0.2667
      8 C           3.9623   -2.6286   18.5541 C.3     1  UNL1        0.1363
      9 C           1.2348   -0.3844   20.0744 C.3     1  UNL1        0.0241
     10 C           2.3615    0.4504   19.5419 C.3     1  UNL1        0.1027
     11 C           2.0681    1.6618   18.7074 C.3     1  UNL1        0.1334
     12 C           0.6479    2.0384   18.4052 C.3     1  UNL1        0.0338
     13 O           3.1949    2.4966   18.1750 O.3     1  UNL1       -0.3527
     14 C           4.6150    2.1201   18.4771 C.3     1  UNL1        0.1635
     15 C           4.9084    0.9087   19.3116 C.3     1  UNL1        0.1256
     16 N           3.7817    0.0739   19.8441 N.pl3   1  UNL1       -0.2761
     17 C           4.7750   -2.0690   24.4724 C.ar    1  UNL1        0.0485
     18 C           5.9592   -2.7122   25.1309 C.ar    1  UNL1        0.0244
     19 C           6.1624   -2.5723   26.6105 C.ar    1  UNL1        0.0991
     20 N           5.1813   -1.7893   27.4315 N.ar    1  UNL1       -0.2400
     21 C           3.9969   -1.1460   26.7730 C.ar    1  UNL1        0.1285
     22 C           3.7937   -1.2859   25.2934 C.ar    1  UNL1        0.1606
     23 F           2.6094   -0.6427   24.6349 F       1  UNL1       -0.2025
@<TRIPOS>BOND
     1    10     9    1
     2    10    11    1
     3    11    12    1
     4    11    13    1
     5    13    14    1
     6    14    15    1
     7    15    16    1
     8    16     1    1
     9     1     2   ar
    10     2     3   ar
    11     3    17    1
    12    17    18   ar
    13    18    19   ar
    14    19    20   ar
    15    20    21   ar
    16    21    22   ar
    17    22    23    1
    18     3     4   ar
    19     4     5   ar
    20     5     6    2
    21     5     7   ar
    22     7     8    1
    23    16    10    1
    24     7     1   ar
    25    22    17   ar
