@<TRIPOS>MOLECULE
*****
 38 43 0 0 0
SMALL
GASTEIGER

@<TRIPOS>ATOM
      1 C           6.7290   -3.4210   21.1481 C.ar    1  UNL1        0.0392
      2 C           7.5293   -4.6569   21.4343 C.ar    1  UNL1        0.1004
      3 N           7.7285   -5.1103   22.8502 N.ar    1  UNL1       -0.2423
      4 C           7.1273   -4.3277   23.9799 C.ar    1  UNL1        0.0984
      5 C           7.1540   -4.5289   25.4661 C.ar    1  UNL1        0.0348
      6 C           7.7907   -5.5807   26.3253 C.ar    1  UNL1        0.0027
      7 C           7.6435   -5.5209   27.8169 C.ar    1  UNL1       -0.0019
      8 C           6.8596   -4.4093   28.4492 C.ar    1  UNL1        0.0031
      9 C           6.2229   -3.3575   27.5899 C.ar    1  UNL1        0.0152
     10 C           6.3701   -3.4173   26.0984 C.ar    1  UNL1        0.0613
     11 N           5.8590   -2.5291   25.0030 N.ar    1  UNL1       -0.3240
     12 C           6.3270   -3.0918   23.6937 C.ar    1  UNL1        0.0781
     13 C           6.1279   -2.6384   22.2778 C.ar    1  UNL1        0.0218
     14 C           3.9627   -3.6493   19.4319 C.3     1  UNL1        0.0557
     15 C           5.2583   -3.0725   18.9434 C.ar    1  UNL1        0.0998
     16 N           5.5098   -2.4994   17.5802 N.ar    1  UNL1       -0.1332
     17 N           6.9369   -2.0403   17.5265 N.ar    1  UNL1       -0.0641
     18 N           7.5672   -2.3296   18.8565 N.ar    1  UNL1       -0.2300
     19 C           8.9859   -2.0331   19.2429 C.3     1  UNL1        0.1555
     20 C           6.5298   -2.9676   19.7322 C.ar    1  UNL1        0.0963
     21 C           6.7125   -4.3494   29.9408 C.3     1  UNL1        0.1072
     22 C           7.0419   -5.8100   30.0320 C.3     1  UNL1        0.0339
     23 C           6.3831   -2.8889   29.8497 C.3     1  UNL1        0.0339
     24 O           6.5653   -4.2895   31.4324 O.3     1  UNL1       -0.3827
     25 H           6.7344   -5.1671   31.8095 H       1  UNL1        0.2107
     26 C           5.0261   -1.2950   25.1849 C.3     1  UNL1        0.1080
     27 C           4.4759   -0.5782   23.9877 C.ar    1  UNL1       -0.0018
     28 C           5.1936    0.6166   23.4334 C.ar    1  UNL1       -0.0025
     29 C           4.6432    1.3334   22.2361 C.ar    1  UNL1       -0.0003
     30 C           3.3752    0.8553   21.5931 C.ar    1  UNL1       -0.0000
     31 C           2.6574   -0.3396   22.1474 C.ar    1  UNL1       -0.0003
     32 C           3.2078   -1.0563   23.3447 C.ar    1  UNL1       -0.0025
     33 C           4.7435   -0.7775   26.5642 C.3     1  UNL1        0.0300
     34 C           3.5005   -1.2064   27.2861 C.3     1  UNL1        0.0344
     35 C           3.2179   -0.6890   28.6653 C.3     1  UNL1        0.1422
     36 O           4.1782    0.2574   29.3227 O.3     1  UNL1       -0.3538
     37 C           5.4211    0.6864   28.6008 C.3     1  UNL1        0.1422
     38 C           5.7037    0.1689   27.2216 C.3     1  UNL1        0.0344
@<TRIPOS>BOND
     1    14    15    1
     2    15    16   ar
     3    16    17   ar
     4    17    18   ar
     5    18    19    1
     6    18    20   ar
     7    20     1    1
     8     1     2   ar
     9     2     3   ar
    10     3     4   ar
    11     4     5   ar
    12     5     6   ar
    13     6     7   ar
    14     7     8   ar
    15     8    21    1
    16    21    22    1
    17    21    23    1
    18    21    24    1
    19     8     9   ar
    20     9    10   ar
    21    10    11   ar
    22    11    26    1
    23    26    27    1
    24    27    28   ar
    25    28    29   ar
    26    29    30   ar
    27    30    31   ar
    28    31    32   ar
    29    26    33    1
    30    33    34    1
    31    34    35    1
    32    35    36    1
    33    36    37    1
    34    37    38    1
    35    11    12   ar
    36    12    13   ar
    37    20    15   ar
    38    13     1   ar
    39    12     4   ar
    40    10     5   ar
    41    32    27   ar
    42    38    33    1
    43    24    25    1
@<TRIPOS>MOLECULE
*****
 38 43 0 0 0
SMALL
GASTEIGER

@<TRIPOS>ATOM
      1 C           6.7506   -3.4688   21.1925 C.ar    1  UNL1        0.0392
      2 C           7.5514   -4.7001   21.4969 C.ar    1  UNL1        0.1004
      3 N           7.7444   -5.1366   22.9189 N.ar    1  UNL1       -0.2423
      4 C           7.1367   -4.3418   24.0365 C.ar    1  UNL1        0.0984
      5 C           7.1566   -4.5256   25.5251 C.ar    1  UNL1        0.0348
      6 C           7.7907   -5.5663   26.3996 C.ar    1  UNL1        0.0027
      7 C           7.6363   -5.4893   27.8896 C.ar    1  UNL1       -0.0019
      8 C           6.8478   -4.3715   28.5052 C.ar    1  UNL1        0.0031
      9 C           6.2137   -3.3308   27.6307 C.ar    1  UNL1        0.0152
     10 C           6.3680   -3.4079   26.1407 C.ar    1  UNL1        0.0613
     11 N           5.8609   -2.5333   25.0325 N.ar    1  UNL1       -0.3240
     12 C           6.3360   -3.1105   23.7321 C.ar    1  UNL1        0.0781
     13 C           6.1430   -2.6740   22.3101 C.ar    1  UNL1        0.0218
     14 C           4.0095   -3.7729   19.4479 C.3     1  UNL1        0.0557
     15 C           5.2976   -3.1721   18.9686 C.ar    1  UNL1        0.0998
     16 N           5.5519   -2.6055   17.6032 N.ar    1  UNL1       -0.1332
     17 N           6.9691   -2.1156   17.5611 N.ar    1  UNL1       -0.0641
     18 N           7.5906   -2.3794   18.9006 N.ar    1  UNL1       -0.2300
     19 C           8.9980   -2.0484   19.3000 C.3     1  UNL1        0.1555
     20 C           6.5575   -3.0323   19.7704 C.ar    1  UNL1        0.0963
     21 C           6.6934   -4.2945   29.9953 C.3     1  UNL1        0.1072
     22 C           6.3892   -2.8296   29.8881 C.3     1  UNL1        0.0339
     23 C           6.9977   -5.7594   30.1025 C.3     1  UNL1        0.0339
     24 O           6.5391   -4.2175   31.4853 O.3     1  UNL1       -0.3827
     25 H           6.3203   -3.3078   31.7411 H       1  UNL1        0.2107
     26 C           5.0254   -1.2983   25.1960 C.3     1  UNL1        0.1080
     27 C           4.7174   -0.7774   26.5685 C.ar    1  UNL1       -0.0018
     28 C           5.6492    0.1955   27.2281 C.ar    1  UNL1       -0.0025
     29 C           5.3412    0.7164   28.6007 C.ar    1  UNL1       -0.0003
     30 C           4.1013    0.2643   29.3136 C.ar    1  UNL1       -0.0000
     31 C           3.1695   -0.7087   28.6541 C.ar    1  UNL1       -0.0003
     32 C           3.4775   -1.2295   27.2816 C.ar    1  UNL1       -0.0025
     33 C           4.4978   -0.5842   23.9870 C.3     1  UNL1        0.0300
     34 C           5.2552    0.5752   23.4108 C.3     1  UNL1        0.0344
     35 C           4.7276    1.2893   22.2018 C.3     1  UNL1        0.1422
     36 O           3.4426    0.8440   21.5690 O.3     1  UNL1       -0.3538
     37 C           2.6852   -0.3154   22.1453 C.3     1  UNL1        0.1422
     38 C           3.2128   -1.0295   23.3543 C.3     1  UNL1        0.0344
@<TRIPOS>BOND
     1    14    15    1
     2    15    16   ar
     3    16    17   ar
     4    17    18   ar
     5    18    19    1
     6    18    20   ar
     7    20     1    1
     8     1     2   ar
     9     2     3   ar
    10     3     4   ar
    11     4     5   ar
    12     5     6   ar
    13     6     7   ar
    14     7     8   ar
    15     8    21    1
    16    21    22    1
    17    21    23    1
    18    21    24    1
    19     8     9   ar
    20     9    10   ar
    21    10    11   ar
    22    11    26    1
    23    26    27    1
    24    27    28   ar
    25    28    29   ar
    26    29    30   ar
    27    30    31   ar
    28    31    32   ar
    29    26    33    1
    30    33    34    1
    31    34    35    1
    32    35    36    1
    33    36    37    1
    34    37    38    1
    35    11    12   ar
    36    12    13   ar
    37    20    15   ar
    38    13     1   ar
    39    12     4   ar
    40    10     5   ar
    41    32    27   ar
    42    38    33    1
    43    24    25    1
@<TRIPOS>MOLECULE
*****
 38 43 0 0 0
SMALL
GASTEIGER

@<TRIPOS>ATOM
      1 C           3.4201    0.0155   27.6956 C.ar    1  UNL1        0.0392
      2 C           4.3249   -1.1767   27.7948 C.ar    1  UNL1        0.1004
      3 N           4.6925   -1.9440   26.5594 N.ar    1  UNL1       -0.2423
      4 C           4.1552   -1.5192   25.2250 C.ar    1  UNL1        0.0984
      5 C           4.3417   -2.0757   23.8445 C.ar    1  UNL1        0.0348
      6 C           5.1285   -3.2452   23.3316 C.ar    1  UNL1        0.0027
      7 C           5.1256   -3.5665   21.8665 C.ar    1  UNL1       -0.0019
      8 C           4.3360   -2.7182   20.9142 C.ar    1  UNL1        0.0031
      9 C           3.5492   -1.5486   21.4271 C.ar    1  UNL1        0.0152
     10 C           3.5521   -1.2274   22.8922 C.ar    1  UNL1        0.0613
     11 N           2.8776   -0.1466   23.6841 N.ar    1  UNL1       -0.3240
     12 C           3.2504   -0.3270   25.1258 C.ar    1  UNL1        0.0781
     13 C           2.8828    0.4404   26.3612 C.ar    1  UNL1        0.0218
     14 C           0.5026    0.0138   29.1577 C.3     1  UNL1        0.0557
     15 C           1.7115    0.7821   29.6030 C.ar    1  UNL1        0.0998
     16 N           1.7916    1.6845   30.7985 N.ar    1  UNL1       -0.1332
     17 N           3.1822    2.2430   30.8654 N.ar    1  UNL1       -0.0641
     18 N           3.9614    1.6857   29.7112 N.ar    1  UNL1       -0.2300
     19 C           5.3975    1.9798   29.3930 C.3     1  UNL1        0.1555
     20 C           3.0525    0.7829   28.9310 C.ar    1  UNL1        0.0963
     21 C           4.3331   -3.0394   19.4489 C.3     1  UNL1        0.1072
     22 C           4.8258   -4.4235   19.7514 C.3     1  UNL1        0.0339
     23 C           3.8404   -1.6553   19.1465 C.3     1  UNL1        0.0339
     24 O           4.3303   -3.3606   17.9837 O.3     1  UNL1       -0.3827
     25 H           4.6300   -4.2737   17.8523 H       1  UNL1        0.2107
     26 C           1.9868    0.9262   23.1314 C.3     1  UNL1        0.1080
     27 C           1.8755    1.1181   21.6479 C.ar    1  UNL1       -0.0018
     28 C           2.8538    2.0001   20.9303 C.ar    1  UNL1       -0.0025
     29 C           2.7425    2.1920   19.4467 C.ar    1  UNL1       -0.0003
     30 C           1.6528    1.5020   18.6809 C.ar    1  UNL1       -0.0000
     31 C           0.6745    0.6201   19.3985 C.ar    1  UNL1       -0.0003
     32 C           0.7858    0.4281   20.8820 C.ar    1  UNL1       -0.0025
     33 C           1.2072    1.8070   24.0621 C.3     1  UNL1        0.0300
     34 C           1.6623    3.2125   24.3220 C.3     1  UNL1        0.0344
     35 C           0.8827    4.0933   25.2528 C.3     1  UNL1        0.1422
     36 O          -0.3521    3.5687   25.9236 O.3     1  UNL1       -0.3538
     37 C          -0.8072    2.1633   25.6638 C.3     1  UNL1        0.1422
     38 C          -0.0276    1.2824   24.7330 C.3     1  UNL1        0.0344
@<TRIPOS>BOND
     1    14    15    1
     2    15    16   ar
     3    16    17   ar
     4    17    18   ar
     5    18    19    1
     6    18    20   ar
     7    20     1    1
     8     1     2   ar
     9     2     3   ar
    10     3     4   ar
    11     4     5   ar
    12     5     6   ar
    13     6     7   ar
    14     7     8   ar
    15     8    21    1
    16    21    22    1
    17    21    23    1
    18    21    24    1
    19     8     9   ar
    20     9    10   ar
    21    10    11   ar
    22    11    26    1
    23    26    27    1
    24    27    28   ar
    25    28    29   ar
    26    29    30   ar
    27    30    31   ar
    28    31    32   ar
    29    26    33    1
    30    33    34    1
    31    34    35    1
    32    35    36    1
    33    36    37    1
    34    37    38    1
    35    11    12   ar
    36    12    13   ar
    37    20    15   ar
    38    13     1   ar
    39    12     4   ar
    40    10     5   ar
    41    32    27   ar
    42    38    33    1
    43    24    25    1
@<TRIPOS>MOLECULE
*****
 38 43 0 0 0
SMALL
GASTEIGER

@<TRIPOS>ATOM
      1 C           3.4434    0.0225   27.7119 C.ar    1  UNL1        0.0392
      2 C           4.3511   -1.1679   27.8061 C.ar    1  UNL1        0.1004
      3 N           4.7098   -1.9372   26.5693 N.ar    1  UNL1       -0.2423
      4 C           4.1608   -1.5160   25.2385 C.ar    1  UNL1        0.0984
      5 C           4.3369   -2.0751   23.8576 C.ar    1  UNL1        0.0348
      6 C           5.1214   -3.2443   23.3407 C.ar    1  UNL1        0.0027
      7 C           5.1071   -3.5686   21.8763 C.ar    1  UNL1       -0.0019
      8 C           4.3082   -2.7237   20.9288 C.ar    1  UNL1        0.0031
      9 C           3.5236   -1.5544   21.4458 C.ar    1  UNL1        0.0152
     10 C           3.5380   -1.2301   22.9102 C.ar    1  UNL1        0.0613
     11 N           2.8682   -0.1489   23.7054 N.ar    1  UNL1       -0.3240
     12 C           3.2531   -0.3256   25.1443 C.ar    1  UNL1        0.0781
     13 C           2.8944    0.4437   26.3810 C.ar    1  UNL1        0.0218
     14 C           5.4202    2.0223   29.3681 C.3     1  UNL1        0.0557
     15 C           3.9933    1.7110   29.7099 C.ar    1  UNL1        0.0998
     16 N           3.2245    2.2642   30.8730 N.ar    1  UNL1       -0.1332
     17 N           1.8406    1.6870   30.8306 N.ar    1  UNL1       -0.0641
     18 N           1.7542    0.7770   29.6413 N.ar    1  UNL1       -0.2300
     19 C           0.5490   -0.0097   29.2189 C.3     1  UNL1        0.1555
     20 C           3.0846    0.7918   28.9487 C.ar    1  UNL1        0.0963
     21 C           4.2938   -3.0480   19.4643 C.3     1  UNL1        0.1072
     22 C           4.7712   -4.4373   19.7672 C.3     1  UNL1        0.0339
     23 C           3.8164   -1.6586   19.1614 C.3     1  UNL1        0.0339
     24 O           4.2794   -3.3722   17.9998 O.3     1  UNL1       -0.3827
     25 H           4.5673   -4.2892   17.8688 H       1  UNL1        0.2107
     26 C           1.9709    0.9212   23.1578 C.3     1  UNL1        0.1080
     27 C           1.8562    1.1177   21.6752 C.ar    1  UNL1       -0.0018
     28 C           0.7730    0.4195   20.9076 C.ar    1  UNL1       -0.0025
     29 C           0.6583    0.6160   19.4249 C.ar    1  UNL1       -0.0003
     30 C           1.6268    1.5108   18.7098 C.ar    1  UNL1       -0.0000
     31 C           2.7101    2.2090   19.4774 C.ar    1  UNL1       -0.0003
     32 C           2.8247    2.0124   20.9600 C.ar    1  UNL1       -0.0025
     33 C           1.1884    1.7949   24.0928 C.3     1  UNL1        0.0300
     34 C          -0.0414    1.2610   24.7656 C.3     1  UNL1        0.0344
     35 C          -0.8239    2.1347   25.7006 C.3     1  UNL1        0.1422
     36 O          -0.3767    3.5422   25.9629 O.3     1  UNL1       -0.3538
     37 C           0.8530    4.0761   25.2902 C.3     1  UNL1        0.1422
     38 C           1.6356    3.2024   24.3551 C.3     1  UNL1        0.0344
@<TRIPOS>BOND
     1    14    15    1
     2    15    16   ar
     3    16    17   ar
     4    17    18   ar
     5    18    19    1
     6    18    20   ar
     7    20     1    1
     8     1     2   ar
     9     2     3   ar
    10     3     4   ar
    11     4     5   ar
    12     5     6   ar
    13     6     7   ar
    14     7     8   ar
    15     8    21    1
    16    21    22    1
    17    21    23    1
    18    21    24    1
    19     8     9   ar
    20     9    10   ar
    21    10    11   ar
    22    11    26    1
    23    26    27    1
    24    27    28   ar
    25    28    29   ar
    26    29    30   ar
    27    30    31   ar
    28    31    32   ar
    29    26    33    1
    30    33    34    1
    31    34    35    1
    32    35    36    1
    33    36    37    1
    34    37    38    1
    35    11    12   ar
    36    12    13   ar
    37    20    15   ar
    38    13     1   ar
    39    12     4   ar
    40    10     5   ar
    41    32    27   ar
    42    38    33    1
    43    24    25    1
@<TRIPOS>MOLECULE
*****
 38 43 0 0 0
SMALL
GASTEIGER

@<TRIPOS>ATOM
      1 C           3.5334    0.1156   27.9660 C.ar    1  UNL1        0.0392
      2 C           4.4449   -1.0749   28.0078 C.ar    1  UNL1        0.1004
      3 N           4.7483   -1.8317   26.7488 N.ar    1  UNL1       -0.2423
      4 C           4.1401   -1.3981   25.4480 C.ar    1  UNL1        0.0984
      5 C           4.2545   -1.9436   24.0553 C.ar    1  UNL1        0.0348
      6 C           5.0156   -3.1070   23.4924 C.ar    1  UNL1        0.0027
      7 C           4.9359   -3.4171   22.0270 C.ar    1  UNL1       -0.0019
      8 C           4.0950   -2.5637   21.1245 C.ar    1  UNL1        0.0031
      9 C           3.3338   -1.4002   21.6874 C.ar    1  UNL1        0.0152
     10 C           3.4135   -1.0902   23.1528 C.ar    1  UNL1        0.0613
     11 N           2.7795   -0.0174   23.9877 N.ar    1  UNL1       -0.3240
     12 C           3.2285   -0.2077   25.4062 C.ar    1  UNL1        0.0781
     13 C           2.9252    0.5492   26.6652 C.ar    1  UNL1        0.0218
     14 C           0.6004    0.4134   29.3656 C.3     1  UNL1        0.0557
     15 C           1.8819    1.0094   29.8683 C.ar    1  UNL1        0.0998
     16 N           2.0401    1.8469   31.1026 N.ar    1  UNL1       -0.1332
     17 N           3.4861    2.2277   31.2221 N.ar    1  UNL1       -0.0641
     18 N           4.2214    1.6255   30.0617 N.ar    1  UNL1       -0.2300
     19 C           5.6903    1.7537   29.7863 C.3     1  UNL1        0.1555
     20 C           3.2300    0.8725   29.2250 C.ar    1  UNL1        0.0963
     21 C           4.0152   -2.8738   19.6590 C.3     1  UNL1        0.1072
     22 C           3.3702   -1.5422   19.4123 C.3     1  UNL1        0.0339
     23 C           4.6602   -4.2054   19.9057 C.3     1  UNL1        0.0339
     24 O           3.9355   -3.1839   18.1936 O.3     1  UNL1       -0.3827
     25 H           3.5251   -2.4389   17.7273 H       1  UNL1        0.2107
     26 C           1.8581    1.0572   23.4913 C.3     1  UNL1        0.1080
     27 C           1.0797    1.8879   24.4679 C.ar    1  UNL1       -0.0018
     28 C          -0.1208    1.3086   25.1558 C.ar    1  UNL1       -0.0025
     29 C          -0.8992    2.1395   26.1325 C.ar    1  UNL1       -0.0003
     30 C          -0.4772    3.5496   26.4211 C.ar    1  UNL1       -0.0000
     31 C           0.7232    4.1290   25.7332 C.ar    1  UNL1       -0.0003
     32 C           1.5016    3.2981   24.7566 C.ar    1  UNL1       -0.0025
     33 C           1.7152    1.3010   22.0181 C.3     1  UNL1        0.0300
     34 C           2.7338    2.1293   21.2927 C.3     1  UNL1        0.0344
     35 C           2.5909    2.3732   19.8196 C.3     1  UNL1        0.1422
     36 O           1.4293    1.7886   19.0718 O.3     1  UNL1       -0.3538
     37 C           0.4107    0.9603   19.7972 C.3     1  UNL1        0.1422
     38 C           0.5536    0.7165   21.2704 C.3     1  UNL1        0.0344
@<TRIPOS>BOND
     1    14    15    1
     2    15    16   ar
     3    16    17   ar
     4    17    18   ar
     5    18    19    1
     6    18    20   ar
     7    20     1    1
     8     1     2   ar
     9     2     3   ar
    10     3     4   ar
    11     4     5   ar
    12     5     6   ar
    13     6     7   ar
    14     7     8   ar
    15     8    21    1
    16    21    22    1
    17    21    23    1
    18    21    24    1
    19     8     9   ar
    20     9    10   ar
    21    10    11   ar
    22    11    26    1
    23    26    27    1
    24    27    28   ar
    25    28    29   ar
    26    29    30   ar
    27    30    31   ar
    28    31    32   ar
    29    26    33    1
    30    33    34    1
    31    34    35    1
    32    35    36    1
    33    36    37    1
    34    37    38    1
    35    11    12   ar
    36    12    13   ar
    37    20    15   ar
    38    13     1   ar
    39    12     4   ar
    40    10     5   ar
    41    32    27   ar
    42    38    33    1
    43    24    25    1
@<TRIPOS>MOLECULE
*****
 38 43 0 0 0
SMALL
GASTEIGER

@<TRIPOS>ATOM
      1 C           6.4998   -2.8477   26.1702 C.ar    1  UNL1        0.0392
      2 C           6.6150   -3.9044   25.1119 C.ar    1  UNL1        0.1004
      3 N           5.8985   -3.7379   23.8047 N.ar    1  UNL1       -0.2423
      4 C           5.0668   -2.5147   23.5558 C.ar    1  UNL1        0.0984
      5 C           4.2522   -2.0781   22.3742 C.ar    1  UNL1        0.0348
      6 C           3.9940   -2.7171   21.0420 C.ar    1  UNL1        0.0027
      7 C           3.1170   -2.0297   20.0378 C.ar    1  UNL1       -0.0019
      8 C           2.4984   -0.7032   20.3659 C.ar    1  UNL1        0.0031
      9 C           2.7567   -0.0642   21.6982 C.ar    1  UNL1        0.0152
     10 C           3.6336   -0.7517   22.7023 C.ar    1  UNL1        0.0613
     11 N           4.0658   -0.3684   24.0866 N.ar    1  UNL1       -0.3240
     12 C           4.9515   -1.4579   24.6140 C.ar    1  UNL1        0.0781
     13 C           5.6680   -1.6244   25.9213 C.ar    1  UNL1        0.0218
     14 C           8.7336   -0.8146   27.4058 C.3     1  UNL1        0.0557
     15 C           8.2430   -2.0797   28.0454 C.ar    1  UNL1        0.0998
     16 N           8.6931   -2.6323   29.3653 N.ar    1  UNL1       -0.1332
     17 N           7.9445   -3.9084   29.6131 N.ar    1  UNL1       -0.0641
     18 N           7.0318   -4.1443   28.4463 N.ar    1  UNL1       -0.2300
     19 C           6.0985   -5.3064   28.2780 C.3     1  UNL1        0.1555
     20 C           7.2163   -3.0141   27.4775 C.ar    1  UNL1        0.0963
     21 C           1.6214   -0.0157   19.3617 C.3     1  UNL1        0.1072
     22 C           2.7566    0.0007   18.3814 C.3     1  UNL1        0.0339
     23 C           0.4862   -0.0320   20.3420 C.3     1  UNL1        0.0339
     24 O           0.7444    0.6719   18.3576 O.3     1  UNL1       -0.3827
     25 H           1.2475    0.8300   17.5435 H       1  UNL1        0.2107
     26 C           3.6800    0.8846   24.8155 C.3     1  UNL1        0.1080
     27 C           2.3749    0.9523   25.5518 C.ar    1  UNL1       -0.0018
     28 C           2.3410    0.7525   27.0380 C.ar    1  UNL1       -0.0025
     29 C           1.0358    0.8202   27.7743 C.ar    1  UNL1       -0.0003
     30 C          -0.2354    1.0878   27.0243 C.ar    1  UNL1       -0.0000
     31 C          -0.2014    1.2877   25.5381 C.ar    1  UNL1       -0.0003
     32 C           1.1037    1.2199   24.8018 C.ar    1  UNL1       -0.0025
     33 C           4.5993    2.0699   24.8081 C.3     1  UNL1        0.0300
     34 C           5.7737    2.1139   25.7401 C.3     1  UNL1        0.0344
     35 C           6.6930    3.2992   25.7327 C.3     1  UNL1        0.1422
     36 O           6.4378    4.4404   24.7933 O.3     1  UNL1       -0.3538
     37 C           5.2634    4.3963   23.8613 C.3     1  UNL1        0.1422
     38 C           4.3441    3.2111   23.8687 C.3     1  UNL1        0.0344
@<TRIPOS>BOND
     1    14    15    1
     2    15    16   ar
     3    16    17   ar
     4    17    18   ar
     5    18    19    1
     6    18    20   ar
     7    20     1    1
     8     1     2   ar
     9     2     3   ar
    10     3     4   ar
    11     4     5   ar
    12     5     6   ar
    13     6     7   ar
    14     7     8   ar
    15     8    21    1
    16    21    22    1
    17    21    23    1
    18    21    24    1
    19     8     9   ar
    20     9    10   ar
    21    10    11   ar
    22    11    26    1
    23    26    27    1
    24    27    28   ar
    25    28    29   ar
    26    29    30   ar
    27    30    31   ar
    28    31    32   ar
    29    26    33    1
    30    33    34    1
    31    34    35    1
    32    35    36    1
    33    36    37    1
    34    37    38    1
    35    11    12   ar
    36    12    13   ar
    37    20    15   ar
    38    13     1   ar
    39    12     4   ar
    40    10     5   ar
    41    32    27   ar
    42    38    33    1
    43    24    25    1
@<TRIPOS>MOLECULE
*****
 38 43 0 0 0
SMALL
GASTEIGER

@<TRIPOS>ATOM
      1 C          -0.4157    2.4507   26.9492 C.ar    1  UNL1        0.0392
      2 C          -1.6872    3.2117   26.7165 C.ar    1  UNL1        0.1004
      3 N          -2.1047    3.5652   25.3198 N.ar    1  UNL1       -0.2423
      4 C          -1.2507    3.1578   24.1559 C.ar    1  UNL1        0.0984
      5 C          -1.4040    3.3634   22.6779 C.ar    1  UNL1        0.0348
      6 C          -2.4630    4.0459   21.8641 C.ar    1  UNL1        0.0027
      7 C          -2.3453    4.0946   20.3695 C.ar    1  UNL1       -0.0019
      8 C          -1.1686    3.4606   19.6888 C.ar    1  UNL1        0.0031
      9 C          -0.1095    2.7781   20.5028 C.ar    1  UNL1        0.0152
     10 C          -0.2272    2.7295   21.9973 C.ar    1  UNL1        0.0613
     11 N           0.6533    2.1321   23.0546 N.ar    1  UNL1       -0.3240
     12 C           0.0208    2.3968   24.3886 C.ar    1  UNL1        0.0781
     13 C           0.4383    2.0433   25.7853 C.ar    1  UNL1        0.0218
     14 C          -1.1977   -0.2828   28.5512 C.3     1  UNL1        0.0557
     15 C          -0.3576    0.8407   29.0822 C.ar    1  UNL1        0.0998
     16 N           0.2705    0.9050   30.4428 N.ar    1  UNL1       -0.1332
     17 N           1.0182    2.2012   30.5475 N.ar    1  UNL1       -0.0641
     18 N           0.8521    2.9379   29.2515 N.ar    1  UNL1       -0.2300
     19 C           1.4342    4.2799   28.9194 C.3     1  UNL1        0.1555
     20 C           0.0018    2.0971   28.3459 C.ar    1  UNL1        0.0963
     21 C          -1.0508    3.5092   18.1942 C.3     1  UNL1        0.1072
     22 C          -2.3426    4.2678   18.1170 C.3     1  UNL1        0.0339
     23 C           0.2409    2.7507   18.2713 C.3     1  UNL1        0.0339
     24 O          -0.9330    3.5578   16.6996 O.3     1  UNL1       -0.3827
     25 H          -1.6952    4.0308   16.3304 H       1  UNL1        0.2107
     26 C           1.9405    1.3987   22.8191 C.3     1  UNL1        0.1080
     27 C           2.2829    0.9071   21.4440 C.ar    1  UNL1       -0.0018
     28 C           3.2466    1.6770   20.5906 C.ar    1  UNL1       -0.0025
     29 C           3.5890    1.1853   19.2153 C.ar    1  UNL1       -0.0003
     30 C           2.9676   -0.0763   18.6936 C.ar    1  UNL1       -0.0000
     31 C           2.0039   -0.8463   19.5471 C.ar    1  UNL1       -0.0003
     32 C           1.6615   -0.3546   20.9222 C.ar    1  UNL1       -0.0025
     33 C           2.8852    1.1570   23.9588 C.3     1  UNL1        0.0300
     34 C           2.9616   -0.1993   24.5949 C.3     1  UNL1        0.0344
     35 C           3.9064   -0.4411   25.7346 C.3     1  UNL1        0.1422
     36 O           4.7748    0.6734   26.2382 O.3     1  UNL1       -0.3538
     37 C           4.6985    2.0297   25.6021 C.3     1  UNL1        0.1422
     38 C           3.7537    2.2715   24.4624 C.3     1  UNL1        0.0344
@<TRIPOS>BOND
     1    14    15    1
     2    15    16   ar
     3    16    17   ar
     4    17    18   ar
     5    18    19    1
     6    18    20   ar
     7    20     1    1
     8     1     2   ar
     9     2     3   ar
    10     3     4   ar
    11     4     5   ar
    12     5     6   ar
    13     6     7   ar
    14     7     8   ar
    15     8    21    1
    16    21    22    1
    17    21    23    1
    18    21    24    1
    19     8     9   ar
    20     9    10   ar
    21    10    11   ar
    22    11    26    1
    23    26    27    1
    24    27    28   ar
    25    28    29   ar
    26    29    30   ar
    27    30    31   ar
    28    31    32   ar
    29    26    33    1
    30    33    34    1
    31    34    35    1
    32    35    36    1
    33    36    37    1
    34    37    38    1
    35    11    12   ar
    36    12    13   ar
    37    20    15   ar
    38    13     1   ar
    39    12     4   ar
    40    10     5   ar
    41    32    27   ar
    42    38    33    1
    43    24    25    1
@<TRIPOS>MOLECULE
*****
 38 43 0 0 0
SMALL
GASTEIGER

@<TRIPOS>ATOM
      1 C           0.5759    1.5503   27.1143 C.ar    1  UNL1        0.0392
      2 C          -0.5179    2.0922   26.2426 C.ar    1  UNL1        0.1004
      3 N          -0.4338    1.9413   24.7526 N.ar    1  UNL1       -0.2423
      4 C           0.7443    1.2486   24.1343 C.ar    1  UNL1        0.0984
      5 C           1.0993    0.9528   22.7072 C.ar    1  UNL1        0.0348
      6 C           0.3964    1.2497   21.4158 C.ar    1  UNL1        0.0027
      7 C           1.0068    0.8219   20.1141 C.ar    1  UNL1       -0.0019
      8 C           2.3200    0.0973   20.1038 C.ar    1  UNL1        0.0031
      9 C           3.0230   -0.1996   21.3953 C.ar    1  UNL1        0.0152
     10 C           2.4126    0.2281   22.6969 C.ar    1  UNL1        0.0613
     11 N           2.8692    0.0761   24.1176 N.ar    1  UNL1       -0.3240
     12 C           1.8381    0.7067   25.0059 C.ar    1  UNL1        0.0781
     13 C           1.7540    0.8576   26.4959 C.ar    1  UNL1        0.0218
     14 C           2.3149    3.6282   28.9332 C.3     1  UNL1        0.0557
     15 C           1.2911    2.6563   29.4404 C.ar    1  UNL1        0.0998
     16 N           0.8869    2.4688   30.8726 N.ar    1  UNL1       -0.1332
     17 N          -0.1623    1.3979   30.9219 N.ar    1  UNL1       -0.0641
     18 N          -0.4064    0.9235   29.5200 N.ar    1  UNL1       -0.2300
     19 C          -1.3782   -0.1417   29.1063 C.3     1  UNL1        0.1555
     20 C           0.4918    1.7012   28.6043 C.ar    1  UNL1        0.0963
     21 C           2.9305   -0.3305   18.8021 C.3     1  UNL1        0.1072
     22 C           3.2640   -1.6663   19.3974 C.3     1  UNL1        0.0339
     23 C           2.5970    1.0053   18.2068 C.3     1  UNL1        0.0339
     24 O           3.5409   -0.7582   17.5004 O.3     1  UNL1       -0.3827
     25 H           3.8758   -1.6648   17.5827 H       1  UNL1        0.2107
     26 C           4.1347   -0.5898   24.5705 C.3     1  UNL1        0.1080
     27 C           4.8911   -1.4810   23.6306 C.ar    1  UNL1       -0.0018
     28 C           4.3269   -2.8166   23.2460 C.ar    1  UNL1       -0.0025
     29 C           5.0835   -3.7079   22.3060 C.ar    1  UNL1       -0.0003
     30 C           6.4042   -3.2636   21.7508 C.ar    1  UNL1       -0.0000
     31 C           6.9684   -1.9280   22.1354 C.ar    1  UNL1       -0.0003
     32 C           6.2119   -1.0368   23.0753 C.ar    1  UNL1       -0.0025
     33 C           4.6439   -0.3643   25.9633 C.3     1  UNL1        0.0300
     34 C           5.3179    0.9287   26.3153 C.3     1  UNL1        0.0344
     35 C           5.8271    1.1541   27.7081 C.3     1  UNL1        0.1422
     36 O           5.6622    0.0866   28.7489 O.3     1  UNL1       -0.3538
     37 C           4.9882   -1.2064   28.3969 C.3     1  UNL1        0.1422
     38 C           4.4791   -1.4318   27.0041 C.3     1  UNL1        0.0344
@<TRIPOS>BOND
     1    14    15    1
     2    15    16   ar
     3    16    17   ar
     4    17    18   ar
     5    18    19    1
     6    18    20   ar
     7    20     1    1
     8     1     2   ar
     9     2     3   ar
    10     3     4   ar
    11     4     5   ar
    12     5     6   ar
    13     6     7   ar
    14     7     8   ar
    15     8    21    1
    16    21    22    1
    17    21    23    1
    18    21    24    1
    19     8     9   ar
    20     9    10   ar
    21    10    11   ar
    22    11    26    1
    23    26    27    1
    24    27    28   ar
    25    28    29   ar
    26    29    30   ar
    27    30    31   ar
    28    31    32   ar
    29    26    33    1
    30    33    34    1
    31    34    35    1
    32    35    36    1
    33    36    37    1
    34    37    38    1
    35    11    12   ar
    36    12    13   ar
    37    20    15   ar
    38    13     1   ar
    39    12     4   ar
    40    10     5   ar
    41    32    27   ar
    42    38    33    1
    43    24    25    1
@<TRIPOS>MOLECULE
*****
 38 43 0 0 0
SMALL
GASTEIGER

@<TRIPOS>ATOM
      1 C          -1.2796    4.7467   21.0365 C.ar    1  UNL1        0.0392
      2 C          -2.3281    5.2046   22.0064 C.ar    1  UNL1        0.1004
      3 N          -2.3646    4.6376   23.3946 N.ar    1  UNL1       -0.2423
      4 C          -1.3525    3.6126   23.8129 C.ar    1  UNL1        0.0984
      5 C          -1.1409    2.8799   25.1046 C.ar    1  UNL1        0.0348
      6 C          -1.8697    2.9244   26.4148 C.ar    1  UNL1        0.0027
      7 C          -1.4191    2.0581   27.5535 C.ar    1  UNL1       -0.0019
      8 C          -0.2397    1.1473   27.3818 C.ar    1  UNL1        0.0031
      9 C           0.4891    1.1028   26.0715 C.ar    1  UNL1        0.0152
     10 C           0.0385    1.9691   24.9330 C.ar    1  UNL1        0.0613
     11 N           0.5558    2.1389   23.5352 N.ar    1  UNL1       -0.3240
     12 C          -0.3039    3.1546   22.8430 C.ar    1  UNL1        0.0781
     13 C          -0.2675    3.7216   21.4548 C.ar    1  UNL1        0.0218
     14 C           0.8881    6.9069   19.9031 C.3     1  UNL1        0.0557
     15 C          -0.2467    6.3067   19.1273 C.ar    1  UNL1        0.0998
     16 N          -0.5844    6.5940   17.6944 N.ar    1  UNL1       -0.1332
     17 N          -1.7895    5.7786   17.3296 N.ar    1  UNL1       -0.0641
     18 N          -2.1966    4.9874   18.5372 N.ar    1  UNL1       -0.2300
     19 C          -3.3539    4.0367   18.6193 C.3     1  UNL1        0.1555
     20 C          -1.2431    5.3137   19.6482 C.ar    1  UNL1        0.0963
     21 C           0.2109    0.2810   28.5205 C.3     1  UNL1        0.1072
     22 C           1.6248    0.7334   28.3053 C.3     1  UNL1        0.0339
     23 C          -1.2029   -0.1714   28.7357 C.3     1  UNL1        0.0339
     24 O           0.6615   -0.5853   29.6591 O.3     1  UNL1       -0.3827
     25 H           1.6206   -0.4962   29.7734 H       1  UNL1        0.2107
     26 C           1.7271    1.4193   22.9350 C.3     1  UNL1        0.1080
     27 C           1.8092    1.2285   21.4495 C.ar    1  UNL1       -0.0018
     28 C           0.8931    0.2570   20.7663 C.ar    1  UNL1       -0.0025
     29 C           0.9753    0.0663   19.2807 C.ar    1  UNL1       -0.0003
     30 C           1.9737    0.8470   18.4784 C.ar    1  UNL1       -0.0000
     31 C           2.8899    1.8185   19.1616 C.ar    1  UNL1       -0.0003
     32 C           2.8076    2.0092   20.6472 C.ar    1  UNL1       -0.0025
     33 C           2.8163    0.8904   23.8204 C.3     1  UNL1        0.0300
     34 C           3.7482    1.8407   24.5122 C.3     1  UNL1        0.0344
     35 C           4.8374    1.3119   25.3976 C.3     1  UNL1        0.1422
     36 O           4.9948   -0.1672   25.5912 O.3     1  UNL1       -0.3538
     37 C           4.0629   -1.1175   24.8994 C.3     1  UNL1        0.1422
     38 C           2.9737   -0.5887   24.0140 C.3     1  UNL1        0.0344
@<TRIPOS>BOND
     1    14    15    1
     2    15    16   ar
     3    16    17   ar
     4    17    18   ar
     5    18    19    1
     6    18    20   ar
     7    20     1    1
     8     1     2   ar
     9     2     3   ar
    10     3     4   ar
    11     4     5   ar
    12     5     6   ar
    13     6     7   ar
    14     7     8   ar
    15     8    21    1
    16    21    22    1
    17    21    23    1
    18    21    24    1
    19     8     9   ar
    20     9    10   ar
    21    10    11   ar
    22    11    26    1
    23    26    27    1
    24    27    28   ar
    25    28    29   ar
    26    29    30   ar
    27    30    31   ar
    28    31    32   ar
    29    26    33    1
    30    33    34    1
    31    34    35    1
    32    35    36    1
    33    36    37    1
    34    37    38    1
    35    11    12   ar
    36    12    13   ar
    37    20    15   ar
    38    13     1   ar
    39    12     4   ar
    40    10     5   ar
    41    32    27   ar
    42    38    33    1
    43    24    25    1
