@<TRIPOS>MOLECULE
*****
 27 29 0 0 0
SMALL
GASTEIGER

@<TRIPOS>ATOM
      1 C          -6.9046  -19.2685   21.7938 C.ar    1  UNL1        0.1485
      2 C          -7.3825  -20.1462   22.9123 C.ar    1  UNL1        0.0797
      3 C          -8.8252  -20.1201   23.3221 C.ar    1  UNL1        0.2047
      4 O          -9.3032  -20.9978   24.4407 O.2     1  UNL1       -0.2862
      5 C          -9.7900  -19.2163   22.6132 C.ar    1  UNL1        0.1104
      6 C         -11.2327  -19.1903   23.0230 C.ar    1  UNL1        0.1769
      7 O         -11.7106  -20.0679   24.1416 O.3     1  UNL1       -0.5027
      8 C         -12.1975  -18.2865   22.3142 C.ar    1  UNL1        0.2061
      9 C         -11.7195  -17.4088   21.1956 C.ar    1  UNL1        0.1785
     10 C         -10.2768  -17.4349   20.7859 C.ar    1  UNL1        0.0778
     11 C          -9.3120  -18.3386   21.4947 C.ar    1  UNL1        0.1545
     12 O          -7.8693  -18.3647   21.0850 O.2     1  UNL1       -0.4531
     13 H         -11.1080  -20.6325   24.5843 H       1  UNL1        0.2923
     14 C          -2.5764  -19.3467   20.5645 C.ar    1  UNL1        0.1724
     15 C          -3.5564  -20.2807   19.9187 C.ar    1  UNL1        0.0401
     16 C          -4.9992  -20.2547   20.3285 C.ar    1  UNL1        0.0064
     17 C          -5.4618  -19.2946   21.3840 C.ar    1  UNL1        0.0379
     18 C          -4.4818  -18.3605   22.0298 C.ar    1  UNL1        0.0431
     19 C          -3.0391  -18.3865   21.6200 C.ar    1  UNL1        0.1725
     20 C          -0.5468  -18.2155   19.4021 C.3     1  UNL1        0.2526
     21 O          -1.1337  -19.3727   20.1548 O.3     1  UNL1       -0.4684
     22 O          -2.0590  -17.4525   22.2658 O.3     1  UNL1       -0.4684
     23 C          -2.0415  -16.0022   21.8835 C.3     1  UNL1        0.2526
     24 O         -13.6402  -18.2604   22.7239 O.3     1  UNL1       -0.4654
     25 C         -14.0111  -17.9491   24.1437 C.3     1  UNL1        0.2528
     26 O         -12.6842  -16.5050   20.4868 O.3     1  UNL1       -0.4682
     27 C         -12.2175  -15.6657   19.3344 C.3     1  UNL1        0.2526
@<TRIPOS>BOND
     1    20    21    1
     2    21    14    1
     3    14    15   ar
     4    15    16   ar
     5    16    17   ar
     6    17     1    1
     7     1     2   ar
     8     2     3   ar
     9     3     4    2
    10     3     5   ar
    11     5     6   ar
    12     6     7    1
    13     6     8   ar
    14     8    24    1
    15    24    25    1
    16     8     9   ar
    17     9    26    1
    18    26    27    1
    19     9    10   ar
    20    10    11   ar
    21    11    12   ar
    22    17    18   ar
    23    18    19   ar
    24    19    22    1
    25    22    23    1
    26    19    14   ar
    27    12     1   ar
    28    11     5   ar
    29     7    13    1
@<TRIPOS>MOLECULE
*****
 27 29 0 0 0
SMALL
GASTEIGER

@<TRIPOS>ATOM
      1 C          -8.2458  -19.0190   22.1369 C.ar    1  UNL1        0.1485
      2 C          -7.9699  -20.1765   21.2237 C.ar    1  UNL1        0.0797
      3 C          -6.5661  -20.4641   20.7806 C.ar    1  UNL1        0.2047
      4 O          -6.2901  -21.6216   19.8673 O.2     1  UNL1       -0.2862
      5 C          -5.4381  -19.5942   21.2507 C.ar    1  UNL1        0.1104
      6 C          -4.0342  -19.8819   20.8076 C.ar    1  UNL1        0.1769
      7 O          -3.7583  -21.0394   19.8943 O.3     1  UNL1       -0.5027
      8 C          -2.9062  -19.0120   21.2777 C.ar    1  UNL1        0.2061
      9 C          -3.1822  -17.8544   22.1910 C.ar    1  UNL1        0.1785
     10 C          -4.5861  -17.5668   22.6341 C.ar    1  UNL1        0.0778
     11 C          -5.7140  -18.4367   22.1640 C.ar    1  UNL1        0.1545
     12 O          -7.1179  -18.1491   22.6071 O.2     1  UNL1       -0.4531
     13 H          -4.4629  -21.5827   19.6007 H       1  UNL1        0.2923
     14 C         -12.4576  -18.1560   23.4663 C.ar    1  UNL1        0.1724
     15 C         -11.4971  -18.8248   24.4045 C.ar    1  UNL1        0.0401
     16 C         -10.0932  -19.1125   23.9614 C.ar    1  UNL1        0.0064
     17 C          -9.6498  -18.7313   22.5801 C.ar    1  UNL1        0.0379
     18 C         -10.6102  -18.0625   21.6419 C.ar    1  UNL1        0.0431
     19 C         -12.0140  -17.7748   22.0850 C.ar    1  UNL1        0.1725
     20 C         -14.3755  -18.4461   25.1947 C.3     1  UNL1        0.2526
     21 O         -13.8614  -17.8683   23.9094 O.3     1  UNL1       -0.4684
     22 O         -12.9745  -17.1059   21.1468 O.3     1  UNL1       -0.4684
     23 C         -12.4705  -16.1212   20.1337 C.3     1  UNL1        0.2526
     24 O          -1.5024  -19.2996   20.8346 O.3     1  UNL1       -0.4654
     25 C          -0.8799  -18.4854   19.7393 C.3     1  UNL1        0.2528
     26 O          -2.0542  -16.9846   22.6611 O.3     1  UNL1       -0.4682
     27 C          -1.6318  -15.7984   21.8458 C.3     1  UNL1        0.2526
@<TRIPOS>BOND
     1    20    21    1
     2    21    14    1
     3    14    15   ar
     4    15    16   ar
     5    16    17   ar
     6    17     1    1
     7     1     2   ar
     8     2     3   ar
     9     3     4    2
    10     3     5   ar
    11     5     6   ar
    12     6     7    1
    13     6     8   ar
    14     8    24    1
    15    24    25    1
    16     8     9   ar
    17     9    26    1
    18    26    27    1
    19     9    10   ar
    20    10    11   ar
    21    11    12   ar
    22    17    18   ar
    23    18    19   ar
    24    19    22    1
    25    22    23    1
    26    19    14   ar
    27    12     1   ar
    28    11     5   ar
    29     7    13    1
@<TRIPOS>MOLECULE
*****
 27 29 0 0 0
SMALL
GASTEIGER

@<TRIPOS>ATOM
      1 C          -5.6922  -19.0588   20.8165 C.ar    1  UNL1        0.1485
      2 C          -6.5911  -19.5163   19.7063 C.ar    1  UNL1        0.0797
      3 C          -8.0742  -19.5820   19.9210 C.ar    1  UNL1        0.2047
      4 O          -8.9732  -20.0395   18.8108 O.2     1  UNL1       -0.2862
      5 C          -8.6583  -19.1902   21.2459 C.ar    1  UNL1        0.1104
      6 C         -10.1414  -19.2559   21.4606 C.ar    1  UNL1        0.1769
      7 O         -11.0404  -19.7134   20.3504 O.3     1  UNL1       -0.5027
      8 C         -10.7256  -18.8641   22.7855 C.ar    1  UNL1        0.2061
      9 C          -9.8265  -18.4066   23.8957 C.ar    1  UNL1        0.1785
     10 C          -8.3435  -18.3409   23.6810 C.ar    1  UNL1        0.0778
     11 C          -7.7593  -18.7327   22.3561 C.ar    1  UNL1        0.1545
     12 O          -6.2763  -18.6670   22.1414 O.2     1  UNL1       -0.4531
     13 H         -10.6755  -19.9581   19.5228 H       1  UNL1        0.2923
     14 C          -1.2428  -18.8616   20.1725 C.ar    1  UNL1        0.1724
     15 C          -1.7901  -19.3233   21.4906 C.ar    1  UNL1        0.0401
     16 C          -3.2732  -19.3890   21.7052 C.ar    1  UNL1        0.0064
     17 C          -4.2090  -18.9931   20.6018 C.ar    1  UNL1        0.0379
     18 C          -3.6617  -18.5314   19.2838 C.ar    1  UNL1        0.0431
     19 C          -2.1787  -18.4657   19.0691 C.ar    1  UNL1        0.1725
     20 C           0.9618  -17.4888   20.1023 C.3     1  UNL1        0.2526
     21 O           0.2403  -18.7959   19.9578 O.3     1  UNL1       -0.4684
     22 O          -1.6314  -18.0040   17.7510 O.3     1  UNL1       -0.4684
     23 C          -2.3907  -17.0016   16.9333 C.3     1  UNL1        0.2526
     24 O         -12.2086  -18.9298   23.0002 O.3     1  UNL1       -0.4654
     25 C         -13.0189  -17.6678   23.0290 C.3     1  UNL1        0.2528
     26 O         -10.4106  -18.0148   25.2206 O.3     1  UNL1       -0.4682
     27 C          -9.5061  -17.6783   26.3690 C.3     1  UNL1        0.2526
@<TRIPOS>BOND
     1    20    21    1
     2    21    14    1
     3    14    15   ar
     4    15    16   ar
     5    16    17   ar
     6    17     1    1
     7     1     2   ar
     8     2     3   ar
     9     3     4    2
    10     3     5   ar
    11     5     6   ar
    12     6     7    1
    13     6     8   ar
    14     8    24    1
    15    24    25    1
    16     8     9   ar
    17     9    26    1
    18    26    27    1
    19     9    10   ar
    20    10    11   ar
    21    11    12   ar
    22    17    18   ar
    23    18    19   ar
    24    19    22    1
    25    22    23    1
    26    19    14   ar
    27    12     1   ar
    28    11     5   ar
    29     7    13    1
@<TRIPOS>MOLECULE
*****
 27 29 0 0 0
SMALL
GASTEIGER

@<TRIPOS>ATOM
      1 C          -6.8147  -18.3761   21.9797 C.ar    1  UNL1        0.1485
      2 C          -5.9921  -18.2645   23.2290 C.ar    1  UNL1        0.0797
      3 C          -4.4947  -18.2533   23.1424 C.ar    1  UNL1        0.2047
      4 O          -3.6719  -18.1417   24.3917 O.2     1  UNL1       -0.2862
      5 C          -3.8199  -18.3538   21.8065 C.ar    1  UNL1        0.1104
      6 C          -2.3224  -18.3427   21.7199 C.ar    1  UNL1        0.1769
      7 O          -1.4997  -18.2310   22.9692 O.3     1  UNL1       -0.5027
      8 C          -1.6476  -18.4432   20.3840 C.ar    1  UNL1        0.2061
      9 C          -2.4703  -18.5548   19.1347 C.ar    1  UNL1        0.1785
     10 C          -3.9677  -18.5660   19.2213 C.ar    1  UNL1        0.0778
     11 C          -4.6425  -18.4655   20.5572 C.ar    1  UNL1        0.1545
     12 O          -6.1399  -18.4766   20.6438 O.2     1  UNL1       -0.4531
     13 H          -1.9212  -18.1683   23.8037 H       1  UNL1        0.2923
     14 C         -11.3072  -18.4096   22.2393 C.ar    1  UNL1        0.1724
     15 C         -10.5190  -19.5891   22.7267 C.ar    1  UNL1        0.0401
     16 C          -9.0215  -19.5779   22.6402 C.ar    1  UNL1        0.0064
     17 C          -8.3122  -18.3873   22.0663 C.ar    1  UNL1        0.0379
     18 C          -9.1004  -17.2078   21.5789 C.ar    1  UNL1        0.0431
     19 C         -10.5979  -17.2189   21.6654 C.ar    1  UNL1        0.1725
     20 C         -13.4885  -17.9060   23.5577 C.3     1  UNL1        0.2526
     21 O         -12.8046  -18.4207   22.3259 O.3     1  UNL1       -0.4684
     22 O         -11.3861  -16.0394   21.1780 O.3     1  UNL1       -0.4684
     23 C         -11.7603  -15.9343   19.7293 C.3     1  UNL1        0.2526
     24 O          -0.1502  -18.4320   20.2974 O.3     1  UNL1       -0.4654
     25 C           0.5788  -17.1396   20.0777 C.3     1  UNL1        0.2528
     26 O          -1.7955  -18.6553   17.7988 O.3     1  UNL1       -0.4682
     27 C          -1.7949  -17.4786   16.8685 C.3     1  UNL1        0.2526
@<TRIPOS>BOND
     1    20    21    1
     2    21    14    1
     3    14    15   ar
     4    15    16   ar
     5    16    17   ar
     6    17     1    1
     7     1     2   ar
     8     2     3   ar
     9     3     4    2
    10     3     5   ar
    11     5     6   ar
    12     6     7    1
    13     6     8   ar
    14     8    24    1
    15    24    25    1
    16     8     9   ar
    17     9    26    1
    18    26    27    1
    19     9    10   ar
    20    10    11   ar
    21    11    12   ar
    22    17    18   ar
    23    18    19   ar
    24    19    22    1
    25    22    23    1
    26    19    14   ar
    27    12     1   ar
    28    11     5   ar
    29     7    13    1
@<TRIPOS>MOLECULE
*****
 27 29 0 0 0
SMALL
GASTEIGER

@<TRIPOS>ATOM
      1 C         -14.5720   -3.7942   18.8984 C.ar    1  UNL1        0.1485
      2 C         -13.4360   -4.7571   18.7186 C.ar    1  UNL1        0.0797
      3 C         -13.6726   -6.2312   18.8629 C.ar    1  UNL1        0.2047
      4 O         -12.5366   -7.1943   18.6831 O.2     1  UNL1       -0.2862
      5 C         -15.0450   -6.7425   19.1869 C.ar    1  UNL1        0.1104
      6 C         -15.2815   -8.2167   19.3312 C.ar    1  UNL1        0.1769
      7 O         -14.1456   -9.1797   19.1514 O.3     1  UNL1       -0.5027
      8 C         -16.6540   -8.7279   19.6553 C.ar    1  UNL1        0.2061
      9 C         -17.7899   -7.7649   19.8351 C.ar    1  UNL1        0.1785
     10 C         -17.5534   -6.2908   19.6908 C.ar    1  UNL1        0.0778
     11 C         -16.1810   -5.7795   19.3667 C.ar    1  UNL1        0.1545
     12 O         -15.9444   -4.3054   19.2224 O.2     1  UNL1       -0.4531
     13 H         -13.2883   -8.8603   18.9490 H       1  UNL1        0.2923
     14 C         -13.8625    0.6285   18.4655 C.ar    1  UNL1        0.1724
     15 C         -15.1655    0.1282   19.0148 C.ar    1  UNL1        0.0401
     16 C         -15.4020   -1.3461   19.1591 C.ar    1  UNL1        0.0064
     17 C         -14.3355   -2.3199   18.7541 C.ar    1  UNL1        0.0379
     18 C         -13.0324   -1.8196   18.2048 C.ar    1  UNL1        0.0431
     19 C         -12.7959   -0.3454   18.0606 C.ar    1  UNL1        0.1725
     20 C         -13.8949    2.7806   17.0106 C.3     1  UNL1        0.2526
     21 O         -13.6259    2.1027   18.3213 O.3     1  UNL1       -0.4684
     22 O         -11.4928    0.1549   17.5113 O.3     1  UNL1       -0.4684
     23 C         -10.5738   -0.7843   16.7879 C.3     1  UNL1        0.2526
     24 O         -16.8905  -10.2021   19.7995 O.3     1  UNL1       -0.4654
     25 C         -17.0688  -11.0561   18.5793 C.3     1  UNL1        0.2528
     26 O         -19.1624   -8.2761   20.1591 O.3     1  UNL1       -0.4682
     27 C         -20.0664   -8.7473   19.0587 C.3     1  UNL1        0.2526
@<TRIPOS>BOND
     1    20    21    1
     2    21    14    1
     3    14    15   ar
     4    15    16   ar
     5    16    17   ar
     6    17     1    1
     7     1     2   ar
     8     2     3   ar
     9     3     4    2
    10     3     5   ar
    11     5     6   ar
    12     6     7    1
    13     6     8   ar
    14     8    24    1
    15    24    25    1
    16     8     9   ar
    17     9    26    1
    18    26    27    1
    19     9    10   ar
    20    10    11   ar
    21    11    12   ar
    22    17    18   ar
    23    18    19   ar
    24    19    22    1
    25    22    23    1
    26    19    14   ar
    27    12     1   ar
    28    11     5   ar
    29     7    13    1
@<TRIPOS>MOLECULE
*****
 27 29 0 0 0
SMALL
GASTEIGER

@<TRIPOS>ATOM
      1 C           1.7667    0.6070   19.2222 C.ar    1  UNL1        0.1485
      2 C           2.4853    0.2961   17.9428 C.ar    1  UNL1        0.0797
      3 C           3.5445   -0.7656   17.9165 C.ar    1  UNL1        0.2047
      4 O           4.2632   -1.0766   16.6370 O.2     1  UNL1       -0.2862
      5 C           3.8851   -1.5165   19.1696 C.ar    1  UNL1        0.1104
      6 C           4.9443   -2.5783   19.1432 C.ar    1  UNL1        0.1769
      7 O           5.6629   -2.8892   17.8638 O.3     1  UNL1       -0.5027
      8 C           5.2849   -3.3291   20.3963 C.ar    1  UNL1        0.2061
      9 C           4.5662   -3.0182   21.6758 C.ar    1  UNL1        0.1785
     10 C           3.5070   -1.9564   21.7020 C.ar    1  UNL1        0.0778
     11 C           3.1664   -1.2056   20.4490 C.ar    1  UNL1        0.1545
     12 O           2.1072   -0.1438   20.4752 O.2     1  UNL1       -0.4531
     13 H           5.4502   -2.4202   17.0811 H       1  UNL1        0.2923
     14 C          -1.4111    3.7924   19.3012 C.ar    1  UNL1        0.1724
     15 C          -0.4999    3.6713   18.1159 C.ar    1  UNL1        0.0401
     16 C           0.5594    2.6095   18.0895 C.ar    1  UNL1        0.0064
     17 C           0.7074    1.6688   19.2485 C.ar    1  UNL1        0.0379
     18 C          -0.2038    1.7899   20.4338 C.ar    1  UNL1        0.0431
     19 C          -1.2630    2.8516   20.4602 C.ar    1  UNL1        0.1725
     20 C          -3.8798    4.5170   18.9407 C.3     1  UNL1        0.2526
     21 O          -2.4703    4.8541   19.3276 O.3     1  UNL1       -0.4684
     22 O          -2.1742    2.9727   21.6456 O.3     1  UNL1       -0.4684
     23 C          -1.8423    3.9295   22.7521 C.3     1  UNL1        0.2526
     24 O           6.3441   -4.3909   20.3700 O.3     1  UNL1       -0.4654
     25 C           7.7411   -4.0677   20.8105 C.3     1  UNL1        0.2528
     26 O           4.9068   -3.7690   22.9288 O.3     1  UNL1       -0.4682
     27 C           5.8152   -3.1510   23.9501 C.3     1  UNL1        0.2526
@<TRIPOS>BOND
     1    20    21    1
     2    21    14    1
     3    14    15   ar
     4    15    16   ar
     5    16    17   ar
     6    17     1    1
     7     1     2   ar
     8     2     3   ar
     9     3     4    2
    10     3     5   ar
    11     5     6   ar
    12     6     7    1
    13     6     8   ar
    14     8    24    1
    15    24    25    1
    16     8     9   ar
    17     9    26    1
    18    26    27    1
    19     9    10   ar
    20    10    11   ar
    21    11    12   ar
    22    17    18   ar
    23    18    19   ar
    24    19    22    1
    25    22    23    1
    26    19    14   ar
    27    12     1   ar
    28    11     5   ar
    29     7    13    1
@<TRIPOS>MOLECULE
*****
 27 29 0 0 0
SMALL
GASTEIGER

@<TRIPOS>ATOM
      1 C         -14.8649   -3.7749   19.0389 C.ar    1  UNL1        0.1485
      2 C         -13.6689   -4.6707   18.9085 C.ar    1  UNL1        0.0797
      3 C         -13.8328   -6.1588   19.0014 C.ar    1  UNL1        0.2047
      4 O         -12.6367   -7.0547   18.8709 O.2     1  UNL1       -0.2862
      5 C         -15.1927   -6.7510   19.2248 C.ar    1  UNL1        0.1104
      6 C         -15.3565   -8.2392   19.3177 C.ar    1  UNL1        0.1769
      7 O         -14.1605   -9.1350   19.1873 O.3     1  UNL1       -0.5027
      8 C         -16.7164   -8.8315   19.5411 C.ar    1  UNL1        0.2061
      9 C         -17.9124   -7.9356   19.6716 C.ar    1  UNL1        0.1785
     10 C         -17.7486   -6.4475   19.5787 C.ar    1  UNL1        0.0778
     11 C         -16.3887   -5.8552   19.3553 C.ar    1  UNL1        0.1545
     12 O         -16.2248   -4.3671   19.2623 O.2     1  UNL1       -0.4531
     13 H         -13.3111   -8.7650   19.0477 H       1  UNL1        0.2923
     14 C         -14.3734    0.6896   18.7601 C.ar    1  UNL1        0.1724
     15 C         -13.2894   -0.2171   18.2573 C.ar    1  UNL1        0.0401
     16 C         -13.4532   -1.7053   18.3503 C.ar    1  UNL1        0.0064
     17 C         -14.7010   -2.2867   18.9460 C.ar    1  UNL1        0.0379
     18 C         -15.7850   -1.3800   19.4488 C.ar    1  UNL1        0.0431
     19 C         -15.6212    0.1081   19.3559 C.ar    1  UNL1        0.1725
     20 C         -14.8331    2.9313   17.5300 C.3     1  UNL1        0.2526
     21 O         -14.2096    2.1777   18.6672 O.3     1  UNL1       -0.4684
     22 O         -16.7053    1.0148   19.8587 O.3     1  UNL1       -0.4684
     23 C         -18.0003    1.1227   19.1096 C.3     1  UNL1        0.2526
     24 O         -16.8803  -10.3196   19.6341 O.3     1  UNL1       -0.4654
     25 C         -17.1502  -11.1232   18.3965 C.3     1  UNL1        0.2528
     26 O         -19.2723   -8.5279   19.8950 O.3     1  UNL1       -0.4682
     27 C         -20.0791   -8.1231   21.0931 C.3     1  UNL1        0.2526
@<TRIPOS>BOND
     1    20    21    1
     2    21    14    1
     3    14    15   ar
     4    15    16   ar
     5    16    17   ar
     6    17     1    1
     7     1     2   ar
     8     2     3   ar
     9     3     4    2
    10     3     5   ar
    11     5     6   ar
    12     6     7    1
    13     6     8   ar
    14     8    24    1
    15    24    25    1
    16     8     9   ar
    17     9    26    1
    18    26    27    1
    19     9    10   ar
    20    10    11   ar
    21    11    12   ar
    22    17    18   ar
    23    18    19   ar
    24    19    22    1
    25    22    23    1
    26    19    14   ar
    27    12     1   ar
    28    11     5   ar
    29     7    13    1
@<TRIPOS>MOLECULE
*****
 27 29 0 0 0
SMALL
GASTEIGER

@<TRIPOS>ATOM
      1 C           7.5450   -4.8205   22.7500 C.ar    1  UNL1        0.1485
      2 C           8.6449   -4.4747   21.7905 C.ar    1  UNL1        0.0797
      3 C           8.3352   -3.7066   20.5399 C.ar    1  UNL1        0.2047
      4 O           9.4352   -3.3608   19.5804 O.2     1  UNL1       -0.2862
      5 C           6.9257   -3.2843   20.2487 C.ar    1  UNL1        0.1104
      6 C           6.6161   -2.5162   18.9980 C.ar    1  UNL1        0.1769
      7 O           7.7160   -2.1704   18.0386 O.3     1  UNL1       -0.5027
      8 C           5.2065   -2.0939   18.7068 C.ar    1  UNL1        0.2061
      9 C           4.1066   -2.4397   19.6664 C.ar    1  UNL1        0.1785
     10 C           4.4162   -3.2078   20.9170 C.ar    1  UNL1        0.0778
     11 C           5.8258   -3.6301   21.2082 C.ar    1  UNL1        0.1545
     12 O           6.1354   -4.3981   22.4588 O.2     1  UNL1       -0.4531
     13 H           8.5965   -2.4342   18.2205 H       1  UNL1        0.2923
     14 C           8.4738   -7.1247   26.5021 C.ar    1  UNL1        0.1724
     15 C           8.6665   -7.7671   25.1604 C.ar    1  UNL1        0.0401
     16 C           8.3569   -6.9990   23.9097 C.ar    1  UNL1        0.0064
     17 C           7.8546   -5.5886   24.0007 C.ar    1  UNL1        0.0379
     18 C           7.6619   -4.9462   25.3424 C.ar    1  UNL1        0.0431
     19 C           7.9715   -5.7142   26.5931 C.ar    1  UNL1        0.1725
     20 C           8.6169   -9.3833   27.7781 C.3     1  UNL1        0.2526
     21 O           8.7834   -7.8928   27.7527 O.3     1  UNL1       -0.4684
     22 O           7.7788   -5.0718   27.9348 O.3     1  UNL1       -0.4684
     23 C           6.5063   -5.2944   28.6971 C.3     1  UNL1        0.2526
     24 O           4.8969   -1.3258   17.4562 O.3     1  UNL1       -0.4654
     25 C           4.7530    0.1664   17.5087 C.3     1  UNL1        0.2528
     26 O           2.6970   -2.0174   19.3752 O.3     1  UNL1       -0.4682
     27 C           2.0271   -0.9922   20.2415 C.3     1  UNL1        0.2526
@<TRIPOS>BOND
     1    20    21    1
     2    21    14    1
     3    14    15   ar
     4    15    16   ar
     5    16    17   ar
     6    17     1    1
     7     1     2   ar
     8     2     3   ar
     9     3     4    2
    10     3     5   ar
    11     5     6   ar
    12     6     7    1
    13     6     8   ar
    14     8    24    1
    15    24    25    1
    16     8     9   ar
    17     9    26    1
    18    26    27    1
    19     9    10   ar
    20    10    11   ar
    21    11    12   ar
    22    17    18   ar
    23    18    19   ar
    24    19    22    1
    25    22    23    1
    26    19    14   ar
    27    12     1   ar
    28    11     5   ar
    29     7    13    1
@<TRIPOS>MOLECULE
*****
 27 29 0 0 0
SMALL
GASTEIGER

@<TRIPOS>ATOM
      1 C         -12.7273   -1.7362   18.6463 C.ar    1  UNL1        0.1485
      2 C         -11.9944   -0.5748   18.0432 C.ar    1  UNL1        0.0797
      3 C         -12.6668    0.7617   17.9348 C.ar    1  UNL1        0.2047
      4 O         -11.9339    1.9233   17.3317 O.2     1  UNL1       -0.2862
      5 C         -14.0720    0.9367   18.4295 C.ar    1  UNL1        0.1104
      6 C         -14.7443    2.2732   18.3211 C.ar    1  UNL1        0.1769
      7 O         -14.0115    3.4347   17.7180 O.3     1  UNL1       -0.5027
      8 C         -16.1496    2.4482   18.8158 C.ar    1  UNL1        0.2061
      9 C         -16.8824    1.2866   19.4189 C.ar    1  UNL1        0.1785
     10 C         -16.2101   -0.0499   19.5273 C.ar    1  UNL1        0.0778
     11 C         -14.8049   -0.2248   19.0326 C.ar    1  UNL1        0.1545
     12 O         -14.1325   -1.5613   19.1410 O.2     1  UNL1       -0.4531
     13 H         -13.1337    3.3254   17.4089 H       1  UNL1        0.2923
     14 C         -10.7103   -5.7458   18.9716 C.ar    1  UNL1        0.1724
     15 C          -9.8914   -4.5112   18.7368 C.ar    1  UNL1        0.0401
     16 C         -10.5638   -3.1747   18.6283 C.ar    1  UNL1        0.0064
     17 C         -12.0549   -3.0728   18.7548 C.ar    1  UNL1        0.0379
     18 C         -12.8738   -4.3074   18.9896 C.ar    1  UNL1        0.0431
     19 C         -12.2016   -5.6439   19.0981 C.ar    1  UNL1        0.1725
     20 C         -10.0344   -8.0173   17.9072 C.3     1  UNL1        0.2526
     21 O         -10.0381   -7.0823   19.0801 O.3     1  UNL1       -0.4684
     22 O         -13.0205   -6.8785   19.3329 O.3     1  UNL1       -0.4684
     23 C         -14.4722   -6.8985   18.9562 C.3     1  UNL1        0.2526
     24 O         -16.8219    3.7846   18.7074 O.3     1  UNL1       -0.4654
     25 C         -16.6112    4.8189   19.7732 C.3     1  UNL1        0.2528
     26 O         -18.2877    1.4615   19.9136 O.3     1  UNL1       -0.4682
     27 C         -19.0070    0.3101   20.5515 C.3     1  UNL1        0.2526
@<TRIPOS>BOND
     1    20    21    1
     2    21    14    1
     3    14    15   ar
     4    15    16   ar
     5    16    17   ar
     6    17     1    1
     7     1     2   ar
     8     2     3   ar
     9     3     4    2
    10     3     5   ar
    11     5     6   ar
    12     6     7    1
    13     6     8   ar
    14     8    24    1
    15    24    25    1
    16     8     9   ar
    17     9    26    1
    18    26    27    1
    19     9    10   ar
    20    10    11   ar
    21    11    12   ar
    22    17    18   ar
    23    18    19   ar
    24    19    22    1
    25    22    23    1
    26    19    14   ar
    27    12     1   ar
    28    11     5   ar
    29     7    13    1
