@<TRIPOS>MOLECULE
*****
 18 19 0 0 0
SMALL
GASTEIGER

@<TRIPOS>ATOM
      1 C          -6.8735  -20.2979   22.1723 C.2     1  UNL1        0.0034
      2 C          -7.9352  -19.2603   22.3870 C.2     1  UNL1        0.0421
      3 C          -3.3508  -18.5215   21.7420 C.ar    1  UNL1        0.1387
      4 C          -2.8897  -19.1168   20.4448 C.ar    1  UNL1        0.0369
      5 C          -3.7565  -20.1059   19.7234 C.ar    1  UNL1        0.0031
      6 C          -5.0844  -20.4996   20.2992 C.ar    1  UNL1        0.0002
      7 C          -5.5456  -19.9042   21.5964 C.ar    1  UNL1        0.0031
      8 C          -4.6788  -18.9152   22.3179 C.ar    1  UNL1        0.0369
      9 C          -2.1278  -16.2303   21.8097 C.3     1  UNL1        0.2525
     10 O          -2.4840  -17.5325   22.4635 O.3     1  UNL1       -0.4714
     11 C          -9.2632  -19.6540   22.9629 C.2     1  UNL1        0.1971
     12 O          -9.3412  -20.7417   23.9928 O.2     1  UNL1       -0.2865
     13 C         -10.5130  -18.9599   22.5089 C.ar    1  UNL1        0.0581
     14 C         -11.5738  -18.5973   23.5055 C.ar    1  UNL1        0.0063
     15 C         -12.8236  -17.9032   23.0514 C.ar    1  UNL1        0.0208
     16 C         -13.0127  -17.5718   21.6007 C.ar    1  UNL1        0.0989
     17 N         -11.9519  -17.9344   20.6041 N.ar    1  UNL1       -0.2422
     18 C         -10.7020  -18.6285   21.0582 C.ar    1  UNL1        0.1020
@<TRIPOS>BOND
     1     9    10    1
     2    10     3    1
     3     3     4   ar
     4     4     5   ar
     5     5     6   ar
     6     6     7   ar
     7     7     1    1
     8     1     2    2
     9     2    11    1
    10    11    12    2
    11    11    13    1
    12    13    14   ar
    13    14    15   ar
    14    15    16   ar
    15    16    17   ar
    16    17    18   ar
    17     7     8   ar
    18     8     3   ar
    19    18    13   ar
@<TRIPOS>MOLECULE
*****
 18 19 0 0 0
SMALL
GASTEIGER

@<TRIPOS>ATOM
      1 C          -6.4790  -19.6310   19.9462 C.2     1  UNL1        0.0034
      2 C          -7.7150  -19.1311   20.6334 C.2     1  UNL1        0.0421
      3 C          -2.5872  -18.9221   20.2657 C.ar    1  UNL1        0.1387
      4 C          -2.4314  -18.8628   21.7564 C.ar    1  UNL1        0.0369
      5 C          -3.6247  -19.0596   22.6437 C.ar    1  UNL1        0.0031
      6 C          -4.9738  -19.3156   22.0403 C.ar    1  UNL1        0.0002
      7 C          -5.1297  -19.3749   20.5497 C.ar    1  UNL1        0.0031
      8 C          -3.9364  -19.1782   19.6624 C.ar    1  UNL1        0.0369
      9 C          -0.2533  -17.8650   19.8353 C.3     1  UNL1        0.2525
     10 O          -1.3939  -18.7254   19.3784 O.3     1  UNL1       -0.4714
     11 C          -9.0642  -19.3871   20.0300 C.2     1  UNL1        0.1971
     12 O          -9.1860  -20.2318   18.7964 O.2     1  UNL1       -0.2865
     13 C         -10.2916  -18.7985   20.6601 C.ar    1  UNL1        0.0581
     14 C         -10.6568  -19.1578   22.0698 C.ar    1  UNL1        0.0063
     15 C         -11.8841  -18.5692   22.6999 C.ar    1  UNL1        0.0208
     16 C         -12.7463  -17.6211   21.9202 C.ar    1  UNL1        0.0989
     17 N         -12.3811  -17.2617   20.5105 N.ar    1  UNL1       -0.2422
     18 C         -11.1537  -17.8505   19.8804 C.ar    1  UNL1        0.1020
@<TRIPOS>BOND
     1     9    10    1
     2    10     3    1
     3     3     4   ar
     4     4     5   ar
     5     5     6   ar
     6     6     7   ar
     7     7     1    1
     8     1     2    2
     9     2    11    1
    10    11    12    2
    11    11    13    1
    12    13    14   ar
    13    14    15   ar
    14    15    16   ar
    15    16    17   ar
    16    17    18   ar
    17     7     8   ar
    18     8     3   ar
    19    18    13   ar
@<TRIPOS>MOLECULE
*****
 18 19 0 0 0
SMALL
GASTEIGER

@<TRIPOS>ATOM
      1 C          -7.4089  -19.6497   21.6576 C.2     1  UNL1        0.0034
      2 C          -5.9586  -19.9266   21.9216 C.2     1  UNL1        0.0421
      3 C          -9.2985  -17.3800   24.3087 C.ar    1  UNL1        0.1387
      4 C         -10.1136  -18.4097   25.0336 C.ar    1  UNL1        0.0369
      5 C         -10.0271  -19.8527   24.6331 C.ar    1  UNL1        0.0031
      6 C          -9.1256  -20.2660   23.5078 C.ar    1  UNL1        0.0002
      7 C          -8.3105  -19.2363   22.7830 C.ar    1  UNL1        0.0031
      8 C          -8.3970  -17.7934   23.1834 C.ar    1  UNL1        0.0369
      9 C          -8.4666  -15.3951   25.7640 C.3     1  UNL1        0.2525
     10 O          -9.3850  -15.9371   24.7091 O.3     1  UNL1       -0.4714
     11 C          -5.0569  -20.3399   20.7962 C.2     1  UNL1        0.1971
     12 O          -5.4477  -21.4790   19.9019 O.2     1  UNL1       -0.2865
     13 C          -3.7647  -19.6142   20.5653 C.ar    1  UNL1        0.0581
     14 C          -3.5897  -18.7651   19.3413 C.ar    1  UNL1        0.0063
     15 C          -2.2975  -18.0394   19.1103 C.ar    1  UNL1        0.0208
     16 C          -1.1801  -18.1628   20.1035 C.ar    1  UNL1        0.0989
     17 N          -1.3551  -19.0119   21.3276 N.ar    1  UNL1       -0.2422
     18 C          -2.6474  -19.7377   21.5585 C.ar    1  UNL1        0.1020
@<TRIPOS>BOND
     1     9    10    1
     2    10     3    1
     3     3     4   ar
     4     4     5   ar
     5     5     6   ar
     6     6     7   ar
     7     7     1    1
     8     1     2    2
     9     2    11    1
    10    11    12    2
    11    11    13    1
    12    13    14   ar
    13    14    15   ar
    14    15    16   ar
    15    16    17   ar
    16    17    18   ar
    17     7     8   ar
    18     8     3   ar
    19    18    13   ar
@<TRIPOS>MOLECULE
*****
 18 19 0 0 0
SMALL
GASTEIGER

@<TRIPOS>ATOM
      1 C          -8.0022  -19.9308   22.5118 C.2     1  UNL1        0.0034
      2 C          -7.3748  -19.5844   21.1941 C.2     1  UNL1        0.0421
      3 C         -11.5498  -18.1887   22.1511 C.ar    1  UNL1        0.1387
      4 C         -12.0905  -18.3564   23.5402 C.ar    1  UNL1        0.0369
      5 C         -11.2684  -19.0490   24.5864 C.ar    1  UNL1        0.0031
      6 C          -9.9057  -19.5738   24.2436 C.ar    1  UNL1        0.0002
      7 C          -9.3650  -19.4060   22.8546 C.ar    1  UNL1        0.0031
      8 C         -10.1870  -18.7134   21.8084 C.ar    1  UNL1        0.0369
      9 C         -11.7254  -16.5180   20.1692 C.3     1  UNL1        0.2525
     10 O         -12.3718  -17.4961   21.1049 O.3     1  UNL1       -0.4714
     11 C          -6.0120  -20.1092   20.8513 C.2     1  UNL1        0.1971
     12 O          -5.8616  -21.4856   20.2744 O.2     1  UNL1       -0.2865
     13 C          -4.7996  -19.2575   21.0853 C.ar    1  UNL1        0.0581
     14 C          -4.3779  -18.9215   22.4850 C.ar    1  UNL1        0.0063
     15 C          -3.1655  -18.0699   22.7191 C.ar    1  UNL1        0.0208
     16 C          -2.3748  -17.5542   21.5534 C.ar    1  UNL1        0.0989
     17 N          -2.7965  -17.8901   20.1536 N.ar    1  UNL1       -0.2422
     18 C          -4.0090  -18.7418   19.9196 C.ar    1  UNL1        0.1020
@<TRIPOS>BOND
     1     9    10    1
     2    10     3    1
     3     3     4   ar
     4     4     5   ar
     5     5     6   ar
     6     6     7   ar
     7     7     1    1
     8     1     2    2
     9     2    11    1
    10    11    12    2
    11    11    13    1
    12    13    14   ar
    13    14    15   ar
    14    15    16   ar
    15    16    17   ar
    16    17    18   ar
    17     7     8   ar
    18     8     3   ar
    19    18    13   ar
@<TRIPOS>MOLECULE
*****
 18 19 0 0 0
SMALL
GASTEIGER

@<TRIPOS>ATOM
      1 C          -6.8151  -19.7063   20.0711 C.2     1  UNL1        0.0034
      2 C          -8.0317  -19.2531   20.8223 C.2     1  UNL1        0.0421
      3 C          -3.9238  -18.6423   22.5729 C.ar    1  UNL1        0.1387
      4 C          -2.7406  -19.3127   21.9402 C.ar    1  UNL1        0.0369
      5 C          -2.9154  -20.1143   20.6845 C.ar    1  UNL1        0.0031
      6 C          -4.2736  -20.2455   20.0614 C.ar    1  UNL1        0.0002
      7 C          -5.4568  -19.5751   20.6941 C.ar    1  UNL1        0.0031
      8 C          -5.2820  -18.7735   21.9498 C.ar    1  UNL1        0.0369
      9 C          -4.5740  -16.6081   24.0526 C.3     1  UNL1        0.2525
     10 O          -3.7490  -17.8407   23.8286 O.3     1  UNL1       -0.4714
     11 C          -9.3900  -19.3843   20.1993 C.2     1  UNL1        0.1971
     12 O          -9.5593  -20.1588   18.9259 O.2     1  UNL1       -0.2865
     13 C         -10.5787  -18.7410   20.8496 C.ar    1  UNL1        0.0581
     14 C         -10.9449  -19.0951   22.2604 C.ar    1  UNL1        0.0063
     15 C         -12.1336  -18.4517   22.9107 C.ar    1  UNL1        0.0208
     16 C         -12.9563  -17.4542   22.1502 C.ar    1  UNL1        0.0989
     17 N         -12.5901  -17.1001   20.7393 N.ar    1  UNL1       -0.2422
     18 C         -11.4013  -17.7435   20.0890 C.ar    1  UNL1        0.1020
@<TRIPOS>BOND
     1     9    10    1
     2    10     3    1
     3     3     4   ar
     4     4     5   ar
     5     5     6   ar
     6     6     7   ar
     7     7     1    1
     8     1     2    2
     9     2    11    1
    10    11    12    2
    11    11    13    1
    12    13    14   ar
    13    14    15   ar
    14    15    16   ar
    15    16    17   ar
    16    17    18   ar
    17     7     8   ar
    18     8     3   ar
    19    18    13   ar
@<TRIPOS>MOLECULE
*****
 18 19 0 0 0
SMALL
GASTEIGER

@<TRIPOS>ATOM
      1 C          -6.7872  -19.3094   20.1615 C.2     1  UNL1        0.0034
      2 C          -5.7323  -20.0504   20.9282 C.2     1  UNL1        0.0421
      3 C          -9.9728  -19.3850   22.5271 C.ar    1  UNL1        0.1387
      4 C         -11.0764  -19.4616   21.5141 C.ar    1  UNL1        0.0369
      5 C         -10.7503  -19.4875   20.0502 C.ar    1  UNL1        0.0031
      6 C          -9.3206  -19.4367   19.5993 C.ar    1  UNL1        0.0002
      7 C          -8.2170  -19.3601   20.6123 C.ar    1  UNL1        0.0031
      8 C          -8.5431  -19.3343   22.0762 C.ar    1  UNL1        0.0369
      9 C         -11.6058  -18.7902   24.4583 C.3     1  UNL1        0.2525
     10 O         -10.2990  -19.3592   23.9910 O.3     1  UNL1       -0.4714
     11 C          -4.3025  -19.9997   20.4774 C.2     1  UNL1        0.1971
     12 O          -3.7178  -21.1466   19.7075 O.2     1  UNL1       -0.2865
     13 C          -3.4576  -18.8021   20.7964 C.ar    1  UNL1        0.0581
     14 C          -3.4773  -18.2166   22.1773 C.ar    1  UNL1        0.0063
     15 C          -2.6323  -17.0190   22.4963 C.ar    1  UNL1        0.0208
     16 C          -1.7676  -16.4069   21.4344 C.ar    1  UNL1        0.0989
     17 N          -1.7479  -16.9923   20.0535 N.ar    1  UNL1       -0.2422
     18 C          -2.5929  -18.1900   19.7345 C.ar    1  UNL1        0.1020
@<TRIPOS>BOND
     1     9    10    1
     2    10     3    1
     3     3     4   ar
     4     4     5   ar
     5     5     6   ar
     6     6     7   ar
     7     7     1    1
     8     1     2    2
     9     2    11    1
    10    11    12    2
    11    11    13    1
    12    13    14   ar
    13    14    15   ar
    14    15    16   ar
    15    16    17   ar
    16    17    18   ar
    17     7     8   ar
    18     8     3   ar
    19    18    13   ar
@<TRIPOS>MOLECULE
*****
 18 19 0 0 0
SMALL
GASTEIGER

@<TRIPOS>ATOM
      1 C          -7.1471  -18.4039   21.2270 C.2     1  UNL1        0.0034
      2 C          -6.1108  -19.3406   21.7733 C.2     1  UNL1        0.0421
      3 C         -10.4909  -17.1011   22.9218 C.ar    1  UNL1        0.1387
      4 C          -9.9363  -16.2533   24.0280 C.ar    1  UNL1        0.0369
      5 C          -8.4520  -16.1224   24.2005 C.ar    1  UNL1        0.0031
      6 C          -7.5223  -16.8392   23.2669 C.ar    1  UNL1        0.0002
      7 C          -8.0769  -17.6870   22.1607 C.ar    1  UNL1        0.0031
      8 C          -9.5612  -17.8179   21.9882 C.ar    1  UNL1        0.0369
      9 C         -12.5367  -17.7657   21.4648 C.3     1  UNL1        0.2525
     10 O         -11.9752  -17.2320   22.7492 O.3     1  UNL1       -0.4714
     11 C          -5.1810  -20.0575   20.8396 C.2     1  UNL1        0.1971
     12 O          -5.6159  -21.3332   20.1811 O.2     1  UNL1       -0.2865
     13 C          -3.8165  -19.4987   20.5644 C.ar    1  UNL1        0.0581
     14 C          -3.5536  -18.7559   19.2880 C.ar    1  UNL1        0.0063
     15 C          -2.1891  -18.1972   19.0128 C.ar    1  UNL1        0.0208
     16 C          -1.0874  -18.3812   20.0140 C.ar    1  UNL1        0.0989
     17 N          -1.3502  -19.1240   21.2904 N.ar    1  UNL1       -0.2422
     18 C          -2.7148  -19.6828   21.5656 C.ar    1  UNL1        0.1020
@<TRIPOS>BOND
     1     9    10    1
     2    10     3    1
     3     3     4   ar
     4     4     5   ar
     5     5     6   ar
     6     6     7   ar
     7     7     1    1
     8     1     2    2
     9     2    11    1
    10    11    12    2
    11    11    13    1
    12    13    14   ar
    13    14    15   ar
    14    15    16   ar
    15    16    17   ar
    16    17    18   ar
    17     7     8   ar
    18     8     3   ar
    19    18    13   ar
@<TRIPOS>MOLECULE
*****
 18 19 0 0 0
SMALL
GASTEIGER

@<TRIPOS>ATOM
      1 C          -9.7122  -16.6630   24.3396 C.2     1  UNL1        0.0034
      2 C         -10.4320  -17.9419   24.6495 C.2     1  UNL1        0.0421
      3 C          -6.1350  -15.2799   25.3599 C.ar    1  UNL1        0.1387
      4 C          -6.2046  -15.3889   26.8543 C.ar    1  UNL1        0.0369
      5 C          -7.4434  -15.9225   27.5105 C.ar    1  UNL1        0.0031
      6 C          -8.6126  -16.3472   26.6723 C.ar    1  UNL1        0.0002
      7 C          -8.5430  -16.2383   25.1779 C.ar    1  UNL1        0.0031
      8 C          -7.3042  -15.7046   24.5217 C.ar    1  UNL1        0.0369
      9 C          -4.4847  -15.2537   23.3535 C.3     1  UNL1        0.2525
     10 O          -4.8962  -14.7463   24.7037 O.3     1  UNL1       -0.4714
     11 C         -11.6012  -18.3667   23.8112 C.2     1  UNL1        0.1971
     12 O         -12.9213  -18.6613   24.4597 O.2     1  UNL1       -0.2865
     13 C         -11.4503  -18.4967   22.3245 C.ar    1  UNL1        0.0581
     14 C         -10.7665  -19.6981   21.7423 C.ar    1  UNL1        0.0063
     15 C         -10.6156  -19.8281   20.2556 C.ar    1  UNL1        0.0208
     16 C         -11.1486  -18.7566   19.3511 C.ar    1  UNL1        0.0989
     17 N         -11.8324  -17.5552   19.9333 N.ar    1  UNL1       -0.2422
     18 C         -11.9833  -17.4252   21.4201 C.ar    1  UNL1        0.1020
@<TRIPOS>BOND
     1     9    10    1
     2    10     3    1
     3     3     4   ar
     4     4     5   ar
     5     5     6   ar
     6     6     7   ar
     7     7     1    1
     8     1     2    2
     9     2    11    1
    10    11    12    2
    11    11    13    1
    12    13    14   ar
    13    14    15   ar
    14    15    16   ar
    15    16    17   ar
    16    17    18   ar
    17     7     8   ar
    18     8     3   ar
    19    18    13   ar
@<TRIPOS>MOLECULE
*****
 18 19 0 0 0
SMALL
GASTEIGER

@<TRIPOS>ATOM
      1 C          -7.0657  -18.6911   22.6331 C.2     1  UNL1        0.0034
      2 C          -8.1620  -17.8980   21.9857 C.2     1  UNL1        0.0421
      3 C          -3.5094  -19.6689   21.1680 C.ar    1  UNL1        0.1387
      4 C          -3.9021  -20.6435   20.0975 C.ar    1  UNL1        0.0369
      5 C          -5.3493  -20.9673   19.8722 C.ar    1  UNL1        0.0031
      6 C          -6.4038  -20.3165   20.7174 C.ar    1  UNL1        0.0002
      7 C          -6.0112  -19.3419   21.7879 C.ar    1  UNL1        0.0031
      8 C          -4.5640  -19.0181   22.0131 C.ar    1  UNL1        0.0369
      9 C          -1.2811  -18.6253   20.3342 C.3     1  UNL1        0.2525
     10 O          -2.0622  -19.3451   21.3932 O.3     1  UNL1       -0.4714
     11 C          -9.2166  -17.2471   22.8310 C.2     1  UNL1        0.1971
     12 O         -10.5334  -16.8635   22.2237 O.2     1  UNL1       -0.2865
     13 C          -8.9543  -16.9800   24.2835 C.ar    1  UNL1        0.0581
     14 C          -8.2251  -15.7363   24.6976 C.ar    1  UNL1        0.0063
     15 C          -7.9628  -15.4691   26.1501 C.ar    1  UNL1        0.0208
     16 C          -8.4297  -16.4457   27.1886 C.ar    1  UNL1        0.0989
     17 N          -9.1589  -17.6894   26.7745 N.ar    1  UNL1       -0.2422
     18 C          -9.4212  -17.9565   25.3219 C.ar    1  UNL1        0.1020
@<TRIPOS>BOND
     1     9    10    1
     2    10     3    1
     3     3     4   ar
     4     4     5   ar
     5     5     6   ar
     6     6     7   ar
     7     7     1    1
     8     1     2    2
     9     2    11    1
    10    11    12    2
    11    11    13    1
    12    13    14   ar
    13    14    15   ar
    14    15    16   ar
    15    16    17   ar
    16    17    18   ar
    17     7     8   ar
    18     8     3   ar
    19    18    13   ar
