@<TRIPOS>MOLECULE
*****
 26 28 0 0 0
SMALL
GASTEIGER

@<TRIPOS>ATOM
      1 C          -9.5978  -18.7875   23.5831 C.ar    1  UNL1       -0.0208
      2 C          -8.9329  -20.0629   23.1575 C.ar    1  UNL1       -0.0042
      3 C          -7.5543  -20.0292   22.5673 C.ar    1  UNL1       -0.0003
      4 C          -6.8407  -18.7202   22.4027 C.ar    1  UNL1       -0.0000
      5 C          -7.5056  -17.4448   22.8282 C.ar    1  UNL1       -0.0003
      6 C          -8.8842  -17.4784   23.4185 C.ar    1  UNL1       -0.0042
      7 C          -5.4621  -18.6866   21.8124 C.ar    1  UNL1        0.0001
      8 C          -4.3013  -18.2270   22.6438 C.ar    1  UNL1        0.0014
      9 C          -2.9226  -18.1934   22.0535 C.ar    1  UNL1        0.0199
     10 C          -2.7049  -18.6194   20.6319 C.ar    1  UNL1        0.1217
     11 C          -3.8658  -19.0790   19.8005 C.ar    1  UNL1        0.0199
     12 C          -5.2443  -19.1126   20.3907 C.ar    1  UNL1        0.0014
     13 S          -1.3264  -18.5858   20.0416 S.O2    1  UNL1        0.0572
     14 N           0.0522  -18.5522   19.4513 N.3     1  UNL1       -0.2035
     15 O          -0.7363  -18.5690   21.4205 O.2     1  UNL1       -0.1532
     16 O          -1.9164  -18.6026   18.6627 O.2     1  UNL1       -0.1532
     17 H           0.7429  -18.5338   20.2016 H       1  UNL1        0.1442
     18 H           0.1547  -17.7174   18.8742 H       1  UNL1        0.1442
     19 C         -10.9764  -18.8211   24.1734 C.3     1  UNL1        0.0437
     20 C         -12.1677  -18.5170   23.3142 C.3     1  UNL1        0.0768
     21 C         -11.0496  -19.8325   20.5450 C.3     1  UNL1        0.0173
     22 C         -11.4735  -18.4063   20.7352 C.3     1  UNL1        0.0576
     23 C         -11.4580  -17.3345   19.6860 C.3     1  UNL1        0.0174
     24 C         -11.9624  -16.0672   20.3104 C.3     1  UNL1        0.0187
     25 C         -12.2897  -16.3560   21.7456 C.3     1  UNL1        0.0721
     26 N         -11.9875  -17.8016   22.0081 N.3     1  UNL1       -0.2737
@<TRIPOS>BOND
     1    22    21    1
     2    22    23    1
     3    23    24    1
     4    24    25    1
     5    25    26    1
     6    26    20    1
     7    20    19    1
     8    19     1    1
     9     1     2   ar
    10     2     3   ar
    11     3     4   ar
    12     4     7    1
    13     7     8   ar
    14     8     9   ar
    15     9    10   ar
    16    10    13    1
    17    13    14    1
    18    13    15    2
    19    13    16    2
    20    10    11   ar
    21    11    12   ar
    22     4     5   ar
    23     5     6   ar
    24    26    22    1
    25     6     1   ar
    26    12     7   ar
    27    14    17    1
    28    14    18    1
@<TRIPOS>MOLECULE
*****
 26 28 0 0 0
SMALL
GASTEIGER

@<TRIPOS>ATOM
      1 C          -9.5905  -18.7991   23.5647 C.ar    1  UNL1       -0.0208
      2 C          -8.8820  -17.4871   23.4017 C.ar    1  UNL1       -0.0042
      3 C          -7.5025  -17.4477   22.8141 C.ar    1  UNL1       -0.0003
      4 C          -6.8315  -18.7203   22.3895 C.ar    1  UNL1       -0.0000
      5 C          -7.5400  -20.0323   22.5525 C.ar    1  UNL1       -0.0003
      6 C          -8.9195  -20.0717   23.1401 C.ar    1  UNL1       -0.0042
      7 C          -5.4519  -18.6808   21.8019 C.ar    1  UNL1        0.0001
      8 C          -4.2982  -18.1956   22.6286 C.ar    1  UNL1        0.0014
      9 C          -2.9186  -18.1562   22.0410 C.ar    1  UNL1        0.0199
     10 C          -2.6927  -18.6019   20.6267 C.ar    1  UNL1        0.1217
     11 C          -3.8465  -19.0872   19.8000 C.ar    1  UNL1        0.0199
     12 C          -5.2260  -19.1266   20.3876 C.ar    1  UNL1        0.0014
     13 S          -1.3132  -18.5625   20.0391 S.O2    1  UNL1        0.0572
     14 N           0.0663  -18.5230   19.4515 N.3     1  UNL1       -0.2035
     15 O          -1.9008  -18.5732   18.6590 O.2     1  UNL1       -0.1532
     16 O          -0.7257  -18.5518   21.4191 O.2     1  UNL1       -0.1532
     17 H           0.0023  -18.5209   18.4335 H       1  UNL1        0.1442
     18 H           0.5898  -19.3432   19.7575 H       1  UNL1        0.1442
     19 C         -10.9701  -18.8386   24.1523 C.3     1  UNL1        0.0437
     20 C         -12.1588  -18.5114   23.2980 C.3     1  UNL1        0.0768
     21 C         -11.0669  -19.7982   20.5049 C.3     1  UNL1        0.0173
     22 C         -11.4706  -18.3695   20.7189 C.3     1  UNL1        0.0576
     23 C         -11.4433  -17.2815   19.6867 C.3     1  UNL1        0.0174
     24 C         -11.9284  -16.0175   20.3326 C.3     1  UNL1        0.0187
     25 C         -12.2555  -16.3244   21.7640 C.3     1  UNL1        0.0721
     26 N         -11.9725  -17.7780   22.0027 N.3     1  UNL1       -0.2737
@<TRIPOS>BOND
     1    22    21    1
     2    22    23    1
     3    23    24    1
     4    24    25    1
     5    25    26    1
     6    26    20    1
     7    20    19    1
     8    19     1    1
     9     1     2   ar
    10     2     3   ar
    11     3     4   ar
    12     4     7    1
    13     7     8   ar
    14     8     9   ar
    15     9    10   ar
    16    10    13    1
    17    13    14    1
    18    13    15    2
    19    13    16    2
    20    10    11   ar
    21    11    12   ar
    22     4     5   ar
    23     5     6   ar
    24    26    22    1
    25     6     1   ar
    26    12     7   ar
    27    14    17    1
    28    14    18    1
@<TRIPOS>MOLECULE
*****
 26 28 0 0 0
SMALL
GASTEIGER

@<TRIPOS>ATOM
      1 C          -8.7707  -19.6796   23.0656 C.ar    1  UNL1       -0.0208
      2 C          -8.3466  -18.2426   22.9953 C.ar    1  UNL1       -0.0042
      3 C          -6.9678  -17.8898   22.5217 C.ar    1  UNL1       -0.0003
      4 C          -6.0130  -18.9740   22.1184 C.ar    1  UNL1       -0.0000
      5 C          -6.4370  -20.4111   22.1886 C.ar    1  UNL1       -0.0003
      6 C          -7.8158  -20.7639   22.6622 C.ar    1  UNL1       -0.0042
      7 C          -4.6341  -18.6212   21.6448 C.ar    1  UNL1        0.0001
      8 C          -4.1709  -19.0633   20.2884 C.ar    1  UNL1        0.0014
      9 C          -2.7920  -18.7105   19.8148 C.ar    1  UNL1        0.0199
     10 C          -1.8764  -17.9154   20.6977 C.ar    1  UNL1        0.1217
     11 C          -2.3396  -17.4732   22.0541 C.ar    1  UNL1        0.0199
     12 C          -3.7185  -17.8261   22.5277 C.ar    1  UNL1        0.0014
     13 S          -0.4976  -17.5626   20.2241 S.O2    1  UNL1        0.0572
     14 N           0.8813  -17.2097   19.7506 N.3     1  UNL1       -0.2035
     15 O          -0.7024  -16.1487   20.6813 O.2     1  UNL1       -0.1532
     16 O          -0.2927  -18.9764   19.7670 O.2     1  UNL1       -0.1532
     17 H           1.0625  -16.2232   19.9364 H       1  UNL1        0.1442
     18 H           0.9519  -17.3855   18.7484 H       1  UNL1        0.1442
     19 C         -10.1495  -20.0325   23.5392 C.3     1  UNL1        0.0437
     20 C         -11.3285  -19.8275   22.6348 C.3     1  UNL1        0.0768
     21 C         -10.8180  -18.5011   19.6972 C.3     1  UNL1        0.0173
     22 C         -11.4838  -17.8320   20.8630 C.3     1  UNL1        0.0576
     23 C         -12.0318  -16.4359   20.8832 C.3     1  UNL1        0.0174
     24 C         -12.6052  -16.1827   22.2461 C.3     1  UNL1        0.0187
     25 C         -12.4115  -17.4225   23.0681 C.3     1  UNL1        0.0721
     26 N         -11.7185  -18.4417   22.2132 N.3     1  UNL1       -0.2737
@<TRIPOS>BOND
     1    22    21    1
     2    22    23    1
     3    23    24    1
     4    24    25    1
     5    25    26    1
     6    26    20    1
     7    20    19    1
     8    19     1    1
     9     1     2   ar
    10     2     3   ar
    11     3     4   ar
    12     4     7    1
    13     7     8   ar
    14     8     9   ar
    15     9    10   ar
    16    10    13    1
    17    13    14    1
    18    13    15    2
    19    13    16    2
    20    10    11   ar
    21    11    12   ar
    22     4     5   ar
    23     5     6   ar
    24    26    22    1
    25     6     1   ar
    26    12     7   ar
    27    14    17    1
    28    14    18    1
@<TRIPOS>MOLECULE
*****
 26 28 0 0 0
SMALL
GASTEIGER

@<TRIPOS>ATOM
      1 C          -5.1990  -20.0588   20.5700 C.ar    1  UNL1       -0.0208
      2 C          -5.6153  -20.6909   21.8650 C.ar    1  UNL1       -0.0042
      3 C          -6.9677  -20.3958   22.4429 C.ar    1  UNL1       -0.0003
      4 C          -7.9037  -19.4685   21.7258 C.ar    1  UNL1       -0.0000
      5 C          -7.4873  -18.8364   20.4308 C.ar    1  UNL1       -0.0003
      6 C          -6.1349  -19.1315   19.8529 C.ar    1  UNL1       -0.0042
      7 C          -9.2561  -19.1734   22.3038 C.ar    1  UNL1        0.0001
      8 C         -10.2873  -18.4656   21.4759 C.ar    1  UNL1        0.0014
      9 C         -11.6397  -18.1705   22.0539 C.ar    1  UNL1        0.0199
     10 C         -11.9608  -18.5833   23.4597 C.ar    1  UNL1        0.1217
     11 C         -10.9295  -19.2912   24.2876 C.ar    1  UNL1        0.0199
     12 C          -9.5772  -19.5862   23.7097 C.ar    1  UNL1        0.0014
     13 S         -13.3131  -18.2882   24.0377 S.O2    1  UNL1        0.0572
     14 N         -14.6654  -17.9931   24.6157 N.3     1  UNL1       -0.2035
     15 O         -12.8552  -18.8008   25.3709 O.2     1  UNL1       -0.1532
     16 O         -13.7711  -17.7756   22.7045 O.2     1  UNL1       -0.1532
     17 H         -14.6784  -18.2549   25.6015 H       1  UNL1        0.1442
     18 H         -15.3741  -18.5273   24.1128 H       1  UNL1        0.1442
     19 C          -3.8466  -20.3539   19.9920 C.3     1  UNL1        0.0437
     20 C          -2.6094  -20.0394   20.7798 C.3     1  UNL1        0.0768
     21 C          -3.6075  -17.8366   22.9708 C.3     1  UNL1        0.0173
     22 C          -2.5876  -17.6100   21.8946 C.3     1  UNL1        0.0576
     23 C          -1.8473  -16.3312   21.6365 C.3     1  UNL1        0.0174
     24 C          -0.9309  -16.5534   20.4699 C.3     1  UNL1        0.0187
     25 C          -1.1049  -17.9696   20.0069 C.3     1  UNL1        0.0721
     26 N          -2.1288  -18.6226   20.8875 N.3     1  UNL1       -0.2737
@<TRIPOS>BOND
     1    22    21    1
     2    22    23    1
     3    23    24    1
     4    24    25    1
     5    25    26    1
     6    26    20    1
     7    20    19    1
     8    19     1    1
     9     1     2   ar
    10     2     3   ar
    11     3     4   ar
    12     4     7    1
    13     7     8   ar
    14     8     9   ar
    15     9    10   ar
    16    10    13    1
    17    13    14    1
    18    13    15    2
    19    13    16    2
    20    10    11   ar
    21    11    12   ar
    22     4     5   ar
    23     5     6   ar
    24    26    22    1
    25     6     1   ar
    26    12     7   ar
    27    14    17    1
    28    14    18    1
@<TRIPOS>MOLECULE
*****
 26 28 0 0 0
SMALL
GASTEIGER

@<TRIPOS>ATOM
      1 C          -9.3379  -19.8610   21.4311 C.ar    1  UNL1       -0.0208
      2 C          -8.4361  -19.7342   22.6230 C.ar    1  UNL1       -0.0042
      3 C          -6.9895  -19.3850   22.4351 C.ar    1  UNL1       -0.0003
      4 C          -6.4447  -19.1626   21.0553 C.ar    1  UNL1       -0.0000
      5 C          -7.3466  -19.2894   19.8634 C.ar    1  UNL1       -0.0003
      6 C          -8.7931  -19.6386   20.0513 C.ar    1  UNL1       -0.0042
      7 C          -4.9981  -18.8134   20.8675 C.ar    1  UNL1        0.0001
      8 C          -4.1675  -18.3986   22.0456 C.ar    1  UNL1        0.0014
      9 C          -2.7208  -18.0494   21.8578 C.ar    1  UNL1        0.0199
     10 C          -2.1048  -18.1149   20.4917 C.ar    1  UNL1        0.1217
     11 C          -2.9354  -18.5297   19.3135 C.ar    1  UNL1        0.0199
     12 C          -4.3820  -18.8789   19.5014 C.ar    1  UNL1        0.0014
     13 S          -0.6582  -17.7657   20.3038 S.O2    1  UNL1        0.0572
     14 N           0.7884  -17.4165   20.1159 N.3     1  UNL1       -0.2035
     15 O          -0.3741  -19.1742   19.8733 O.2     1  UNL1       -0.1532
     16 O          -0.9423  -16.3572   20.7343 O.2     1  UNL1       -0.1532
     17 H           1.2985  -18.2404   19.7973 H       1  UNL1        0.1442
     18 H           1.1789  -17.0966   21.0023 H       1  UNL1        0.1442
     19 C         -10.7846  -20.2103   21.6190 C.3     1  UNL1        0.0437
     20 C         -11.8221  -19.1271   21.6317 C.3     1  UNL1        0.0768
     21 C         -10.4627  -16.7140   23.3574 C.3     1  UNL1        0.0173
     22 C         -10.8591  -16.6493   21.9122 C.3     1  UNL1        0.0576
     23 C         -10.7002  -15.4643   21.0065 C.3     1  UNL1        0.0174
     24 C         -11.2270  -15.8410   19.6535 C.3     1  UNL1        0.0187
     25 C         -11.7113  -17.2590   19.7230 C.3     1  UNL1        0.0721
     26 N         -11.4839  -17.7585   21.1190 N.3     1  UNL1       -0.2737
@<TRIPOS>BOND
     1    22    21    1
     2    22    23    1
     3    23    24    1
     4    24    25    1
     5    25    26    1
     6    26    20    1
     7    20    19    1
     8    19     1    1
     9     1     2   ar
    10     2     3   ar
    11     3     4   ar
    12     4     7    1
    13     7     8   ar
    14     8     9   ar
    15     9    10   ar
    16    10    13    1
    17    13    14    1
    18    13    15    2
    19    13    16    2
    20    10    11   ar
    21    11    12   ar
    22     4     5   ar
    23     5     6   ar
    24    26    22    1
    25     6     1   ar
    26    12     7   ar
    27    14    17    1
    28    14    18    1
@<TRIPOS>MOLECULE
*****
 26 28 0 0 0
SMALL
GASTEIGER

@<TRIPOS>ATOM
      1 C          -5.0212  -17.0094   23.2291 C.ar    1  UNL1       -0.0208
      2 C          -5.6734  -18.2018   22.5943 C.ar    1  UNL1       -0.0042
      3 C          -7.1497  -18.4188   22.7468 C.ar    1  UNL1       -0.0003
      4 C          -7.9738  -17.4435   23.5339 C.ar    1  UNL1       -0.0000
      5 C          -7.3216  -16.2512   24.1687 C.ar    1  UNL1       -0.0003
      6 C          -5.8453  -16.0342   24.0162 C.ar    1  UNL1       -0.0042
      7 C          -9.4502  -17.6606   23.6863 C.ar    1  UNL1        0.0001
      8 C          -9.9604  -18.7170   24.6211 C.ar    1  UNL1        0.0014
      9 C         -11.4368  -18.9341   24.7735 C.ar    1  UNL1        0.0199
     10 C         -12.4030  -18.0948   23.9911 C.ar    1  UNL1        0.1217
     11 C         -11.8927  -17.0384   23.0563 C.ar    1  UNL1        0.0199
     12 C         -10.4164  -16.8214   22.9039 C.ar    1  UNL1        0.0014
     13 S         -13.8793  -18.3118   24.1435 S.O2    1  UNL1        0.0572
     14 N         -15.3557  -18.5289   24.2959 N.3     1  UNL1       -0.2035
     15 O         -14.0630  -18.0970   22.6704 O.2     1  UNL1       -0.1532
     16 O         -13.6957  -18.5266   25.6166 O.2     1  UNL1       -0.1532
     17 H         -15.8080  -18.4404   23.3860 H       1  UNL1        0.1442
     18 H         -15.7377  -17.8316   24.9348 H       1  UNL1        0.1442
     19 C          -3.5448  -16.7923   23.0767 C.3     1  UNL1        0.0437
     20 C          -2.6670  -17.9124   22.6023 C.3     1  UNL1        0.0768
     21 C          -3.7890  -20.0685   20.4249 C.3     1  UNL1        0.0173
     22 C          -2.7863  -18.9856   20.1571 C.3     1  UNL1        0.0576
     23 C          -2.1234  -18.7035   18.8414 C.3     1  UNL1        0.0174
     24 C          -1.1978  -17.5380   19.0292 C.3     1  UNL1        0.0187
     25 C          -1.2889  -17.0998   20.4610 C.3     1  UNL1        0.0721
     26 N          -2.2706  -17.9945   21.1579 N.3     1  UNL1       -0.2737
@<TRIPOS>BOND
     1    22    21    1
     2    22    23    1
     3    23    24    1
     4    24    25    1
     5    25    26    1
     6    26    20    1
     7    20    19    1
     8    19     1    1
     9     1     2   ar
    10     2     3   ar
    11     3     4   ar
    12     4     7    1
    13     7     8   ar
    14     8     9   ar
    15     9    10   ar
    16    10    13    1
    17    13    14    1
    18    13    15    2
    19    13    16    2
    20    10    11   ar
    21    11    12   ar
    22     4     5   ar
    23     5     6   ar
    24    26    22    1
    25     6     1   ar
    26    12     7   ar
    27    14    17    1
    28    14    18    1
@<TRIPOS>MOLECULE
*****
 26 28 0 0 0
SMALL
GASTEIGER

@<TRIPOS>ATOM
      1 C          -3.9709  -17.5488   22.9025 C.ar    1  UNL1       -0.0208
      2 C          -4.7406  -16.4868   23.6303 C.ar    1  UNL1       -0.0042
      3 C          -6.2344  -16.5785   23.7299 C.ar    1  UNL1       -0.0003
      4 C          -6.9586  -17.7321   23.1017 C.ar    1  UNL1       -0.0000
      5 C          -6.1889  -18.7941   22.3739 C.ar    1  UNL1       -0.0003
      6 C          -4.6951  -18.7025   22.2743 C.ar    1  UNL1       -0.0042
      7 C          -8.4525  -17.8237   23.2013 C.ar    1  UNL1        0.0001
      8 C          -9.2682  -16.5815   23.4044 C.ar    1  UNL1        0.0014
      9 C         -10.7622  -16.6731   23.5040 C.ar    1  UNL1        0.0199
     10 C         -11.4403  -18.0070   23.4005 C.ar    1  UNL1        0.1217
     11 C         -10.6245  -19.2493   23.1974 C.ar    1  UNL1        0.0199
     12 C          -9.1307  -19.1577   23.0978 C.ar    1  UNL1        0.0014
     13 S         -12.9342  -18.0987   23.5001 S.O2    1  UNL1        0.0572
     14 N         -14.4280  -18.1903   23.5996 N.3     1  UNL1       -0.2035
     15 O         -12.8101  -18.5860   24.9132 O.2     1  UNL1       -0.1532
     16 O         -13.0583  -17.6113   22.0869 O.2     1  UNL1       -0.1532
     17 H         -14.6871  -18.5235   24.5282 H       1  UNL1        0.1442
     18 H         -14.7764  -18.8409   22.8955 H       1  UNL1        0.1442
     19 C          -2.4770  -17.4572   22.8029 C.3     1  UNL1        0.0437
     20 C          -1.8471  -16.5854   21.7575 C.3     1  UNL1        0.0768
     21 C           0.9024  -17.5484   20.2870 C.3     1  UNL1        0.0173
     22 C          -0.4639  -17.5180   19.6688 C.3     1  UNL1        0.0576
     23 C          -0.8063  -17.9248   18.2663 C.3     1  UNL1        0.0174
     24 C          -2.2818  -17.7336   18.0753 C.3     1  UNL1        0.0187
     25 C          -2.8513  -17.2085   19.3599 C.3     1  UNL1        0.0721
     26 N          -1.7277  -17.0753   20.3447 N.3     1  UNL1       -0.2737
@<TRIPOS>BOND
     1    22    21    1
     2    22    23    1
     3    23    24    1
     4    24    25    1
     5    25    26    1
     6    26    20    1
     7    20    19    1
     8    19     1    1
     9     1     2   ar
    10     2     3   ar
    11     3     4   ar
    12     4     7    1
    13     7     8   ar
    14     8     9   ar
    15     9    10   ar
    16    10    13    1
    17    13    14    1
    18    13    15    2
    19    13    16    2
    20    10    11   ar
    21    11    12   ar
    22     4     5   ar
    23     5     6   ar
    24    26    22    1
    25     6     1   ar
    26    12     7   ar
    27    14    17    1
    28    14    18    1
@<TRIPOS>MOLECULE
*****
 26 28 0 0 0
SMALL
GASTEIGER

@<TRIPOS>ATOM
      1 C         -15.3447    0.8034   19.0779 C.ar    1  UNL1       -0.0208
      2 C         -14.0004    0.8467   18.4141 C.ar    1  UNL1       -0.0042
      3 C         -13.1305   -0.3752   18.4014 C.ar    1  UNL1       -0.0003
      4 C         -13.6050   -1.6404   19.0527 C.ar    1  UNL1       -0.0000
      5 C         -14.9494   -1.6837   19.7165 C.ar    1  UNL1       -0.0003
      6 C         -15.8192   -0.4618   19.7291 C.ar    1  UNL1       -0.0042
      7 C         -12.7350   -2.8623   19.0400 C.ar    1  UNL1        0.0001
      8 C         -13.3037   -4.1920   19.4381 C.ar    1  UNL1        0.0014
      9 C         -12.4338   -5.4140   19.4255 C.ar    1  UNL1        0.0199
     10 C         -10.9951   -5.3061   19.0148 C.ar    1  UNL1        0.1217
     11 C         -10.4265   -3.9764   18.6167 C.ar    1  UNL1        0.0199
     12 C         -11.2964   -2.7545   18.6293 C.ar    1  UNL1        0.0014
     13 S         -10.1252   -6.5280   19.0021 S.O2    1  UNL1        0.0572
     14 N          -9.2553   -7.7499   18.9895 N.3     1  UNL1       -0.2035
     15 O         -11.2186   -7.2995   18.3244 O.2     1  UNL1       -0.1532
     16 O          -9.0318   -5.7565   19.6798 O.2     1  UNL1       -0.1532
     17 H          -9.7591   -8.5214   18.5521 H       1  UNL1        0.1442
     18 H          -9.0105   -8.0029   19.9468 H       1  UNL1        0.1442
     19 C         -16.2147    2.0254   19.0905 C.3     1  UNL1        0.0437
     20 C         -15.9186    3.1471   20.0414 C.3     1  UNL1        0.0768
     21 C         -15.1240    5.2001   22.4503 C.3     1  UNL1        0.0173
     22 C         -16.0534    4.0280   22.5615 C.3     1  UNL1        0.0576
     23 C         -16.7807    3.5938   23.7995 C.3     1  UNL1        0.0174
     24 C         -17.5955    2.3817   23.4573 C.3     1  UNL1        0.0187
     25 C         -17.3717    2.0668   22.0078 C.3     1  UNL1        0.0721
     26 N         -16.4186    3.0843   21.4543 N.3     1  UNL1       -0.2737
@<TRIPOS>BOND
     1    22    21    1
     2    22    23    1
     3    23    24    1
     4    24    25    1
     5    25    26    1
     6    26    20    1
     7    20    19    1
     8    19     1    1
     9     1     2   ar
    10     2     3   ar
    11     3     4   ar
    12     4     7    1
    13     7     8   ar
    14     8     9   ar
    15     9    10   ar
    16    10    13    1
    17    13    14    1
    18    13    15    2
    19    13    16    2
    20    10    11   ar
    21    11    12   ar
    22     4     5   ar
    23     5     6   ar
    24    26    22    1
    25     6     1   ar
    26    12     7   ar
    27    14    17    1
    28    14    18    1
