@<TRIPOS>MOLECULE
*****
 19 21 0 0 0
SMALL
GASTEIGER

@<TRIPOS>ATOM
      1 N          -8.0669  -18.9765   21.1804 N.3     1  UNL1       -0.2724
      2 C          -9.3084  -19.0658   20.3434 C.3     1  UNL1        0.0724
      3 C         -10.3125  -18.0998   20.8989 C.3     1  UNL1        0.0210
      4 C         -11.7120  -17.7566   20.4824 C.3     1  UNL1        0.0017
      5 C         -12.4906  -16.7269   21.2463 C.3     1  UNL1        0.0001
      6 C         -11.8697  -16.0406   22.4267 C.3     1  UNL1        0.0004
      7 C         -10.4702  -16.3839   22.8432 C.3     1  UNL1        0.0054
      8 C          -9.6916  -17.4135   22.0793 C.3     1  UNL1        0.0349
      9 C          -8.3038  -17.9553   22.2533 C.3     1  UNL1        0.0761
     10 C          -8.9427  -16.8137   23.2323 C.ar    1  UNL1       -0.0206
     11 C          -7.8891  -15.7754   22.9836 C.ar    1  UNL1       -0.0033
     12 C          -7.1402  -15.1757   24.1365 C.ar    1  UNL1        0.0119
     13 C          -7.4448  -15.6143   25.5383 C.ar    1  UNL1        0.0682
     14 CL         -6.6958  -15.0146   26.6913 Cl      1  UNL1       -0.0814
     15 C          -8.4983  -16.6526   25.7870 C.ar    1  UNL1        0.0679
     16 CL         -8.8029  -17.0912   27.1888 Cl      1  UNL1       -0.0814
     17 C          -9.2473  -17.2523   24.6340 C.ar    1  UNL1        0.0080
     18 C          -5.7331  -19.7453   22.0244 C.3     1  UNL1        0.0188
     19 C          -6.8093  -19.7691   20.9799 C.3     1  UNL1        0.0721
@<TRIPOS>BOND
     1    18    19    1
     2    19     1    1
     3     1     2    1
     4     3     2    1
     5     3     4    1
     6     4     5    1
     7     5     6    1
     8     6     7    1
     9     7     8    1
    10     8    10    1
    11    10    11   ar
    12    11    12   ar
    13    12    13   ar
    14    13    14    1
    15    13    15   ar
    16    15    16    1
    17    15    17   ar
    18     8     9    1
    19     9     1    1
    20     8     3    1
    21    17    10   ar
@<TRIPOS>MOLECULE
*****
 19 21 0 0 0
SMALL
GASTEIGER

@<TRIPOS>ATOM
      1 N          -7.0814  -18.8544   21.7889 N.3     1  UNL1       -0.2724
      2 C          -5.8710  -18.1125   22.2733 C.3     1  UNL1        0.0724
      3 C          -6.3238  -17.0872   23.2702 C.3     1  UNL1        0.0210
      4 C          -5.5717  -16.0691   24.0750 C.3     1  UNL1        0.0017
      5 C          -6.3099  -15.1593   25.0115 C.3     1  UNL1        0.0001
      6 C          -7.8001  -15.2675   25.1433 C.3     1  UNL1        0.0004
      7 C          -8.5523  -16.2856   24.3385 C.3     1  UNL1        0.0054
      8 C          -7.8141  -17.1955   23.4020 C.3     1  UNL1        0.0349
      9 C          -8.2823  -18.2876   22.4865 C.3     1  UNL1        0.0761
     10 C          -9.2971  -17.4195   23.4280 C.ar    1  UNL1       -0.0206
     11 C          -9.8978  -18.3472   24.4421 C.ar    1  UNL1       -0.0033
     12 C         -11.3807  -18.5712   24.4681 C.ar    1  UNL1        0.0119
     13 C         -12.2629  -17.8675   23.4799 C.ar    1  UNL1        0.0682
     14 CL        -13.7459  -18.0915   23.5059 Cl      1  UNL1       -0.0814
     15 C         -11.6623  -16.9399   22.4658 C.ar    1  UNL1        0.0679
     16 CL        -12.5445  -16.2361   21.4775 Cl      1  UNL1       -0.0814
     17 C         -10.1793  -16.7158   22.4398 C.ar    1  UNL1        0.0080
     18 C          -5.8218  -20.7069   20.4730 C.3     1  UNL1        0.0188
     19 C          -7.0894  -19.9675   20.7835 C.3     1  UNL1        0.0721
@<TRIPOS>BOND
     1    18    19    1
     2    19     1    1
     3     1     2    1
     4     3     2    1
     5     3     4    1
     6     4     5    1
     7     5     6    1
     8     6     7    1
     9     7     8    1
    10     8    10    1
    11    10    11   ar
    12    11    12   ar
    13    12    13   ar
    14    13    14    1
    15    13    15   ar
    16    15    16    1
    17    15    17   ar
    18     8     9    1
    19     9     1    1
    20     8     3    1
    21    17    10   ar
@<TRIPOS>MOLECULE
*****
 19 21 0 0 0
SMALL
GASTEIGER

@<TRIPOS>ATOM
      1 N          -5.1474  -17.1279   23.3520 N.3     1  UNL1       -0.2724
      2 C          -3.9557  -17.7718   22.7077 C.3     1  UNL1        0.0724
      3 C          -4.4490  -18.8727   21.8162 C.3     1  UNL1        0.0210
      4 C          -3.7288  -19.8466   20.9315 C.3     1  UNL1        0.0017
      5 C          -4.5053  -20.8570   20.1402 C.3     1  UNL1        0.0001
      6 C          -6.0019  -20.8934   20.2335 C.3     1  UNL1        0.0004
      7 C          -6.7221  -19.9195   21.1182 C.3     1  UNL1        0.0054
      8 C          -5.9457  -18.9091   21.9096 C.3     1  UNL1        0.0349
      9 C          -6.3773  -17.8308   22.8588 C.3     1  UNL1        0.0761
     10 C          -7.4308  -18.8256   22.1036 C.ar    1  UNL1       -0.0206
     11 C          -8.1547  -19.9190   22.8319 C.ar    1  UNL1       -0.0033
     12 C          -9.6396  -19.8354   23.0259 C.ar    1  UNL1        0.0119
     13 C         -10.4008  -18.6586   22.4916 C.ar    1  UNL1        0.0682
     14 CL        -11.8859  -18.5750   22.6856 Cl      1  UNL1       -0.0814
     15 C          -9.6770  -17.5652   21.7632 C.ar    1  UNL1        0.0679
     16 CL        -10.4382  -16.3883   21.2288 Cl      1  UNL1       -0.0814
     17 C          -8.1919  -17.6487   21.5692 C.ar    1  UNL1        0.0080
     18 C          -6.3766  -15.2390   24.6446 C.3     1  UNL1        0.0188
     19 C          -5.1149  -15.9823   24.3197 C.3     1  UNL1        0.0721
@<TRIPOS>BOND
     1    18    19    1
     2    19     1    1
     3     1     2    1
     4     3     2    1
     5     3     4    1
     6     4     5    1
     7     5     6    1
     8     6     7    1
     9     7     8    1
    10     8    10    1
    11    10    11   ar
    12    11    12   ar
    13    12    13   ar
    14    13    14    1
    15    13    15   ar
    16    15    16    1
    17    15    17   ar
    18     8     9    1
    19     9     1    1
    20     8     3    1
    21    17    10   ar
@<TRIPOS>MOLECULE
*****
 19 21 0 0 0
SMALL
GASTEIGER

@<TRIPOS>ATOM
      1 N         -10.5143  -16.6550   21.4019 N.3     1  UNL1       -0.2724
      2 C         -11.4945  -17.0429   22.4690 C.3     1  UNL1        0.0724
      3 C         -10.9439  -18.2358   23.1928 C.3     1  UNL1        0.0210
      4 C         -11.4745  -19.0490   24.3361 C.3     1  UNL1        0.0017
      5 C         -10.6844  -20.2115   24.8597 C.3     1  UNL1        0.0001
      6 C          -9.3638  -20.5609   24.2400 C.3     1  UNL1        0.0004
      7 C          -8.8333  -19.7477   23.0967 C.3     1  UNL1        0.0054
      8 C          -9.6234  -18.5851   22.5731 C.3     1  UNL1        0.0349
      9 C          -9.3578  -17.6081   21.4663 C.3     1  UNL1        0.0761
     10 C          -8.3256  -18.8133   21.8562 C.ar    1  UNL1       -0.0206
     11 C          -8.3267  -19.3556   20.4577 C.ar    1  UNL1       -0.0033
     12 C          -7.0290  -19.5837   19.7409 C.ar    1  UNL1        0.0119
     13 C          -5.7303  -19.2696   20.4225 C.ar    1  UNL1        0.0682
     14 CL         -4.4326  -19.4978   19.7056 Cl      1  UNL1       -0.0814
     15 C          -5.7292  -18.7274   21.8210 C.ar    1  UNL1        0.0679
     16 CL         -4.4305  -18.4132   22.5027 Cl      1  UNL1       -0.0814
     17 C          -7.0269  -18.4992   22.5379 C.ar    1  UNL1        0.0080
     18 C         -11.5818  -15.6437   19.2601 C.3     1  UNL1        0.0188
     19 C         -10.6641  -15.5143   20.4395 C.3     1  UNL1        0.0721
@<TRIPOS>BOND
     1    18    19    1
     2    19     1    1
     3     1     2    1
     4     3     2    1
     5     3     4    1
     6     4     5    1
     7     5     6    1
     8     6     7    1
     9     7     8    1
    10     8    10    1
    11    10    11   ar
    12    11    12   ar
    13    12    13   ar
    14    13    14    1
    15    13    15   ar
    16    15    16    1
    17    15    17   ar
    18     8     9    1
    19     9     1    1
    20     8     3    1
    21    17    10   ar
@<TRIPOS>MOLECULE
*****
 19 21 0 0 0
SMALL
GASTEIGER

@<TRIPOS>ATOM
      1 N          -5.5197  -18.4403   21.9235 N.3     1  UNL1       -0.2724
      2 C          -4.5990  -17.7365   22.8759 C.3     1  UNL1        0.0724
      3 C          -5.4298  -16.8446   23.7502 C.3     1  UNL1        0.0210
      4 C          -5.0657  -15.9133   24.8682 C.3     1  UNL1        0.0017
      5 C          -6.1358  -15.1346   25.5742 C.3     1  UNL1        0.0001
      6 C          -7.5700  -15.2872   25.1622 C.3     1  UNL1        0.0004
      7 C          -7.9341  -16.2185   24.0442 C.3     1  UNL1        0.0054
      8 C          -6.8641  -16.9972   23.3382 C.3     1  UNL1        0.0349
      9 C          -6.9196  -17.9834   22.2092 C.3     1  UNL1        0.0761
     10 C          -8.2478  -17.2522   22.8183 C.ar    1  UNL1       -0.0206
     11 C          -8.9552  -16.1976   22.0199 C.ar    1  UNL1       -0.0033
     12 C         -10.3389  -16.4526   21.5001 C.ar    1  UNL1        0.0119
     13 C         -11.0153  -17.7621   21.7787 C.ar    1  UNL1        0.0682
     14 CL        -12.3990  -18.0171   21.2589 Cl      1  UNL1       -0.0814
     15 C         -10.3080  -18.8167   22.5771 C.ar    1  UNL1        0.0679
     16 CL        -10.9844  -20.1263   22.8557 Cl      1  UNL1       -0.0814
     17 C          -8.9242  -18.5617   23.0969 C.ar    1  UNL1        0.0080
     18 C          -5.9633  -20.6334   20.6032 C.3     1  UNL1        0.0188
     19 C          -5.1122  -19.4276   20.8704 C.3     1  UNL1        0.0721
@<TRIPOS>BOND
     1    18    19    1
     2    19     1    1
     3     1     2    1
     4     3     2    1
     5     3     4    1
     6     4     5    1
     7     5     6    1
     8     6     7    1
     9     7     8    1
    10     8    10    1
    11    10    11   ar
    12    11    12   ar
    13    12    13   ar
    14    13    14    1
    15    13    15   ar
    16    15    16    1
    17    15    17   ar
    18     8     9    1
    19     9     1    1
    20     8     3    1
    21    17    10   ar
@<TRIPOS>MOLECULE
*****
 19 21 0 0 0
SMALL
GASTEIGER

@<TRIPOS>ATOM
      1 N          -5.6948  -16.4904   23.7026 N.3     1  UNL1       -0.2724
      2 C          -4.6421  -17.4071   23.1533 C.3     1  UNL1        0.0724
      3 C          -5.3228  -18.4360   22.3000 C.3     1  UNL1        0.0210
      4 C          -4.7913  -19.5922   21.5059 C.3     1  UNL1        0.0017
      5 C          -5.7332  -20.4677   20.7337 C.3     1  UNL1        0.0001
      6 C          -7.2066  -20.1869   20.7556 C.3     1  UNL1        0.0004
      7 C          -7.7380  -19.0306   21.5497 C.3     1  UNL1        0.0054
      8 C          -6.7961  -18.1552   22.3219 C.3     1  UNL1        0.0349
      9 C          -7.0260  -16.9528   23.1887 C.3     1  UNL1        0.0761
     10 C          -8.2366  -17.7533   22.4381 C.ar    1  UNL1       -0.0206
     11 C          -8.7747  -16.6378   21.5919 C.ar    1  UNL1       -0.0033
     12 C         -10.2151  -16.2360   21.7082 C.ar    1  UNL1        0.0119
     13 C         -11.1175  -16.9496   22.6707 C.ar    1  UNL1        0.0682
     14 CL        -12.5580  -16.5477   22.7870 Cl      1  UNL1       -0.0814
     15 C         -10.5795  -18.0650   23.5169 C.ar    1  UNL1        0.0679
     16 CL        -11.4819  -18.7787   24.4795 Cl      1  UNL1       -0.0814
     17 C          -9.1390  -18.4669   23.4006 C.ar    1  UNL1        0.0080
     18 C          -5.4566  -15.5057   26.0950 C.3     1  UNL1        0.0188
     19 C          -5.4578  -15.3173   24.6069 C.3     1  UNL1        0.0721
@<TRIPOS>BOND
     1    18    19    1
     2    19     1    1
     3     1     2    1
     4     3     2    1
     5     3     4    1
     6     4     5    1
     7     5     6    1
     8     6     7    1
     9     7     8    1
    10     8    10    1
    11    10    11   ar
    12    11    12   ar
    13    12    13   ar
    14    13    14    1
    15    13    15   ar
    16    15    16    1
    17    15    17   ar
    18     8     9    1
    19     9     1    1
    20     8     3    1
    21    17    10   ar
@<TRIPOS>MOLECULE
*****
 19 21 0 0 0
SMALL
GASTEIGER

@<TRIPOS>ATOM
      1 N         -11.3011  -18.1423   21.2775 N.3     1  UNL1       -0.2724
      2 C         -10.7027  -18.8622   20.1054 C.3     1  UNL1        0.0724
      3 C          -9.2432  -19.0684   20.3839 C.3     1  UNL1        0.0210
      4 C          -8.1516  -19.7191   19.5872 C.3     1  UNL1        0.0017
      5 C          -6.7563  -19.7773   20.1347 C.3     1  UNL1        0.0001
      6 C          -6.4527  -19.1849   21.4789 C.3     1  UNL1        0.0004
      7 C          -7.5444  -18.5343   22.2756 C.3     1  UNL1        0.0054
      8 C          -8.9396  -18.4760   21.7281 C.3     1  UNL1        0.0349
      9 C         -10.2115  -17.9037   22.2804 C.3     1  UNL1        0.0761
     10 C          -8.7878  -17.8441   23.0800 C.ar    1  UNL1       -0.0206
     11 C          -9.4849  -18.4379   24.2681 C.ar    1  UNL1       -0.0033
     12 C          -9.3331  -17.8060   25.6199 C.ar    1  UNL1        0.0119
     13 C          -8.4841  -16.5802   25.7837 C.ar    1  UNL1        0.0682
     14 CL         -8.3323  -15.9483   27.1356 Cl      1  UNL1       -0.0814
     15 C          -7.7871  -15.9864   24.5958 C.ar    1  UNL1        0.0679
     16 CL         -6.9381  -14.7606   24.7596 Cl      1  UNL1       -0.0814
     17 C          -7.9389  -16.6183   23.2439 C.ar    1  UNL1        0.0080
     18 C         -13.3552  -17.6324   22.7843 C.3     1  UNL1        0.0188
     19 C         -12.7370  -17.7330   21.4214 C.3     1  UNL1        0.0721
@<TRIPOS>BOND
     1    18    19    1
     2    19     1    1
     3     1     2    1
     4     3     2    1
     5     3     4    1
     6     4     5    1
     7     5     6    1
     8     6     7    1
     9     7     8    1
    10     8    10    1
    11    10    11   ar
    12    11    12   ar
    13    12    13   ar
    14    13    14    1
    15    13    15   ar
    16    15    16    1
    17    15    17   ar
    18     8     9    1
    19     9     1    1
    20     8     3    1
    21    17    10   ar
@<TRIPOS>MOLECULE
*****
 19 21 0 0 0
SMALL
GASTEIGER

@<TRIPOS>ATOM
      1 N         -10.0753  -15.9321   20.7836 N.3     1  UNL1       -0.2724
      2 C         -10.9138  -17.1340   20.4636 C.3     1  UNL1        0.0724
      3 C         -10.6604  -18.1701   21.5182 C.3     1  UNL1        0.0210
      4 C         -11.2072  -19.5523   21.7191 C.3     1  UNL1        0.0017
      5 C         -10.7590  -20.3731   22.8919 C.3     1  UNL1        0.0001
      6 C          -9.7639  -19.8115   23.8638 C.3     1  UNL1        0.0004
      7 C          -9.2171  -18.4293   23.6629 C.3     1  UNL1        0.0054
      8 C          -9.6653  -17.6086   22.4901 C.3     1  UNL1        0.0349
      9 C          -9.3037  -16.2255   22.0361 C.3     1  UNL1        0.0761
     10 C          -8.6698  -16.9172   23.3737 C.ar    1  UNL1       -0.0206
     11 C          -9.1392  -16.1398   24.5675 C.ar    1  UNL1       -0.0033
     12 C          -8.1437  -15.4484   25.4511 C.ar    1  UNL1        0.0119
     13 C          -6.6786  -15.5345   25.1410 C.ar    1  UNL1        0.0682
     14 CL         -5.6831  -14.8431   26.0246 Cl      1  UNL1       -0.0814
     15 C          -6.2091  -16.3119   23.9472 C.ar    1  UNL1        0.0679
     16 CL         -4.7440  -16.3979   23.6370 Cl      1  UNL1       -0.0814
     17 C          -7.2047  -17.0033   23.0636 C.ar    1  UNL1        0.0080
     18 C          -8.8099  -13.7759   20.0770 C.3     1  UNL1        0.0188
     19 C         -10.0184  -14.6602   19.9905 C.3     1  UNL1        0.0721
@<TRIPOS>BOND
     1    18    19    1
     2    19     1    1
     3     1     2    1
     4     3     2    1
     5     3     4    1
     6     4     5    1
     7     5     6    1
     8     6     7    1
     9     7     8    1
    10     8    10    1
    11    10    11   ar
    12    11    12   ar
    13    12    13   ar
    14    13    14    1
    15    13    15   ar
    16    15    16    1
    17    15    17   ar
    18     8     9    1
    19     9     1    1
    20     8     3    1
    21    17    10   ar
@<TRIPOS>MOLECULE
*****
 19 21 0 0 0
SMALL
GASTEIGER

@<TRIPOS>ATOM
      1 N          -7.8289  -16.0570   23.8991 N.3     1  UNL1       -0.2724
      2 C          -9.2576  -16.1868   24.3372 C.3     1  UNL1        0.0724
      3 C          -9.8371  -17.4015   23.6748 C.3     1  UNL1        0.0210
      4 C         -11.2013  -18.0224   23.7339 C.3     1  UNL1        0.0017
      5 C         -11.4949  -19.2641   22.9454 C.3     1  UNL1        0.0001
      6 C         -10.4243  -19.8851   22.0979 C.3     1  UNL1        0.0004
      7 C          -9.0602  -19.2642   22.0388 C.3     1  UNL1        0.0054
      8 C          -8.7666  -18.0224   22.8273 C.3     1  UNL1        0.0349
      9 C          -7.5255  -17.1915   22.9659 C.3     1  UNL1        0.0761
     10 C          -7.6018  -18.5275   22.0284 C.ar    1  UNL1       -0.0206
     11 C          -7.7677  -18.8280   20.5682 C.ar    1  UNL1       -0.0033
     12 C          -6.6031  -19.3331   19.7693 C.ar    1  UNL1        0.0119
     13 C          -5.2723  -19.5377   20.4306 C.ar    1  UNL1        0.0682
     14 CL         -4.1076  -20.0428   19.6317 Cl      1  UNL1       -0.0814
     15 C          -5.1063  -19.2373   21.8907 C.ar    1  UNL1        0.0679
     16 CL         -3.7756  -19.4419   22.5521 Cl      1  UNL1       -0.0814
     17 C          -6.2711  -18.7322   22.6896 C.ar    1  UNL1        0.0080
     18 C          -5.7731  -15.2941   25.2924 C.3     1  UNL1        0.0188
     19 C          -6.8718  -14.9816   24.3202 C.3     1  UNL1        0.0721
@<TRIPOS>BOND
     1    18    19    1
     2    19     1    1
     3     1     2    1
     4     3     2    1
     5     3     4    1
     6     4     5    1
     7     5     6    1
     8     6     7    1
     9     7     8    1
    10     8    10    1
    11    10    11   ar
    12    11    12   ar
    13    12    13   ar
    14    13    14    1
    15    13    15   ar
    16    15    16    1
    17    15    17   ar
    18     8     9    1
    19     9     1    1
    20     8     3    1
    21    17    10   ar
