@<TRIPOS>MOLECULE
*****
 24 26 0 0 0
SMALL
GASTEIGER

@<TRIPOS>ATOM
      1 C         -18.6951   -7.7989   20.0278 C.3     1  UNL1        0.0512
      2 C         -17.3609   -7.2689   19.5931 C.2     1  UNL1        0.0551
      3 C         -17.0575   -5.8054   19.7205 C.2     1  UNL1        0.0470
      4 S         -15.7234   -5.2754   19.2858 S.3     1  UNL1       -0.0751
      5 C         -14.6925   -6.2088   18.7236 C.3     1  UNL1        0.2085
      6 C         -14.9959   -7.6723   18.5962 C.ar    1  UNL1        0.2066
      7 N         -14.1841   -8.8246   18.0832 N.ar    1  UNL1       -0.0545
      8 O         -15.0166  -10.0668   18.2009 O.2     1  UNL1       -0.2950
      9 C         -16.3429   -9.6822   18.7866 C.ar    1  UNL1        0.4470
     10 O         -17.4820  -10.6140   19.0770 O.2     1  UNL1       -0.2203
     11 N         -16.3301   -8.2023   19.0309 N.ar    1  UNL1       -0.2279
     12 C         -13.9405   -4.9133   18.6465 C.ar    1  UNL1        0.0190
     13 C         -13.6728   -4.1261   19.8950 C.ar    1  UNL1       -0.0002
     14 C         -12.9209   -2.8305   19.8180 C.ar    1  UNL1        0.0065
     15 C         -12.4365   -2.3220   18.4925 C.ar    1  UNL1        0.0345
     16 BR        -11.6846   -1.0264   18.4156 Br      1  UNL1       -0.0490
     17 C         -12.7042   -3.1092   17.2440 C.ar    1  UNL1        0.0065
     18 C         -13.4562   -4.4048   17.3210 C.ar    1  UNL1       -0.0002
     19 O         -13.4005   -6.6923   18.1347 O.3     1  UNL1       -0.3293
     20 C         -12.2169   -6.9381   19.0227 C.3     1  UNL1        0.2470
     21 C         -10.8273   -6.7561   18.4879 C.3     1  UNL1        0.4249
     22 F          -9.4378   -6.5741   17.9531 F       1  UNL1       -0.1674
     23 F         -10.9721   -8.0141   17.6838 F       1  UNL1       -0.1674
     24 F         -10.6826   -5.4982   19.2920 F       1  UNL1       -0.1674
@<TRIPOS>BOND
     1     1     2    1
     2     2     3    2
     3     3     4    1
     4     4     5    1
     5     5    19    1
     6    19    20    1
     7    20    21    1
     8    21    22    1
     9    21    23    1
    10    21    24    1
    11     5    12    1
    12    12    13   ar
    13    13    14   ar
    14    14    15   ar
    15    15    16    1
    16    15    17   ar
    17    17    18   ar
    18     5     6    1
    19     6     7   ar
    20     7     8   ar
    21     8     9   ar
    22     9    10    2
    23     9    11   ar
    24    11     2    1
    25    18    12   ar
    26    11     6   ar
@<TRIPOS>MOLECULE
*****
 24 26 0 0 0
SMALL
GASTEIGER

@<TRIPOS>ATOM
      1 C         -15.6113    0.2448   18.5469 C.3     1  UNL1        0.0512
      2 C         -14.9703   -1.1058   18.4243 C.2     1  UNL1        0.0551
      3 C         -15.8184   -2.3428   18.4417 C.2     1  UNL1        0.0470
      4 S         -15.1775   -3.6934   18.3191 S.3     1  UNL1       -0.0751
      5 C         -13.6883   -3.8070   18.1792 C.3     1  UNL1        0.2085
      6 C         -12.8402   -2.5699   18.1619 C.ar    1  UNL1        0.2066
      7 N         -11.3587   -2.3704   18.0377 N.ar    1  UNL1       -0.0545
      8 O         -11.0841   -0.8965   18.0835 O.2     1  UNL1       -0.2950
      9 C         -12.3958   -0.1851   18.2360 C.ar    1  UNL1        0.4470
     10 O         -12.5884    1.2999   18.3245 O.2     1  UNL1       -0.2203
     11 N         -13.4812   -1.2193   18.2845 N.ar    1  UNL1       -0.2279
     12 C         -14.0648   -5.2585   18.1437 C.ar    1  UNL1        0.0190
     13 C         -14.7886   -5.8742   19.3043 C.ar    1  UNL1       -0.0002
     14 C         -15.1652   -7.3257   19.2689 C.ar    1  UNL1        0.0065
     15 C         -14.8179   -8.1617   18.0728 C.ar    1  UNL1        0.0345
     16 BR        -15.1944   -9.6131   18.0374 Br      1  UNL1       -0.0490
     17 C         -14.0941   -7.5460   16.9122 C.ar    1  UNL1        0.0065
     18 C         -13.7175   -6.0944   16.9476 C.ar    1  UNL1       -0.0002
     19 O         -12.3300   -4.4246   18.0270 O.3     1  UNL1       -0.3293
     20 C         -11.6231   -4.9868   19.2247 C.3     1  UNL1        0.2470
     21 C         -10.4652   -5.9225   19.0415 C.3     1  UNL1        0.4249
     22 F          -9.3072   -6.8583   18.8582 F       1  UNL1       -0.1674
     23 F          -9.5220   -4.7562   19.0458 F       1  UNL1       -0.1674
     24 F         -11.4084   -7.0889   19.0371 F       1  UNL1       -0.1674
@<TRIPOS>BOND
     1     1     2    1
     2     2     3    2
     3     3     4    1
     4     4     5    1
     5     5    19    1
     6    19    20    1
     7    20    21    1
     8    21    22    1
     9    21    23    1
    10    21    24    1
    11     5    12    1
    12    12    13   ar
    13    13    14   ar
    14    14    15   ar
    15    15    16    1
    16    15    17   ar
    17    17    18   ar
    18     5     6    1
    19     6     7   ar
    20     7     8   ar
    21     8     9   ar
    22     9    10    2
    23     9    11   ar
    24    11     2    1
    25    18    12   ar
    26    11     6   ar
@<TRIPOS>MOLECULE
*****
 24 26 0 0 0
SMALL
GASTEIGER

@<TRIPOS>ATOM
      1 C           0.6586    1.4305   23.5365 C.3     1  UNL1        0.0512
      2 C           1.6284    0.5511   22.8043 C.2     1  UNL1        0.0551
      3 C           2.7671   -0.0874   23.5430 C.2     1  UNL1        0.0470
      4 S           3.7369   -0.9668   22.8108 S.3     1  UNL1       -0.0751
      5 C           3.5681   -1.2078   21.3399 C.3     1  UNL1        0.2085
      6 C           2.4294   -0.5692   20.6012 C.ar    1  UNL1        0.2066
      7 N           2.0111   -0.6227   19.1617 N.ar    1  UNL1       -0.0545
      8 O           0.7828    0.2237   19.0043 O.2     1  UNL1       -0.2950
      9 C           0.4419    0.8003   20.3464 C.ar    1  UNL1        0.4470
     10 O          -0.7138    1.7076   20.6485 O.2     1  UNL1       -0.2203
     11 N           1.4595    0.3102   21.3334 N.ar    1  UNL1       -0.2279
     12 C           4.7962   -2.0289   21.5991 C.ar    1  UNL1        0.0190
     13 C           4.7456   -3.1663   22.5758 C.ar    1  UNL1       -0.0002
     14 C           5.9736   -3.9876   22.8351 C.ar    1  UNL1        0.0065
     15 C           7.2525   -3.6715   22.1177 C.ar    1  UNL1        0.0345
     16 BR          8.4806   -4.4927   22.3770 Br      1  UNL1       -0.0490
     17 C           7.3032   -2.5341   21.1410 C.ar    1  UNL1        0.0065
     18 C           6.0750   -1.7129   20.8817 C.ar    1  UNL1       -0.0002
     19 O           3.8257   -1.7338   19.9591 O.3     1  UNL1       -0.3293
     20 C           3.1979   -3.0229   19.5183 C.3     1  UNL1        0.2470
     21 C           4.0548   -4.1261   18.9719 C.3     1  UNL1        0.4249
     22 F           4.9118   -5.2294   18.4254 F       1  UNL1       -0.1674
     23 F           3.3238   -5.1178   19.8276 F       1  UNL1       -0.1674
     24 F           4.7859   -3.1345   18.1162 F       1  UNL1       -0.1674
@<TRIPOS>BOND
     1     1     2    1
     2     2     3    2
     3     3     4    1
     4     4     5    1
     5     5    19    1
     6    19    20    1
     7    20    21    1
     8    21    22    1
     9    21    23    1
    10    21    24    1
    11     5    12    1
    12    12    13   ar
    13    13    14   ar
    14    14    15   ar
    15    15    16    1
    16    15    17   ar
    17    17    18   ar
    18     5     6    1
    19     6     7   ar
    20     7     8   ar
    21     8     9   ar
    22     9    10    2
    23     9    11   ar
    24    11     2    1
    25    18    12   ar
    26    11     6   ar
@<TRIPOS>MOLECULE
*****
 24 26 0 0 0
SMALL
GASTEIGER

@<TRIPOS>ATOM
      1 C           5.8025   -2.1854   26.4980 C.3     1  UNL1        0.0512
      2 C           5.4309   -2.1486   25.0452 C.2     1  UNL1        0.0551
      3 C           4.4835   -1.1014   24.5397 C.2     1  UNL1        0.0470
      4 S           4.1119   -1.0646   23.0870 S.3     1  UNL1       -0.0751
      5 C           4.6878   -2.0751   22.1396 C.3     1  UNL1        0.2085
      6 C           5.6353   -3.1223   22.6451 C.ar    1  UNL1        0.2066
      7 N           6.3569   -4.2408   21.9536 N.ar    1  UNL1       -0.0545
      8 O           7.1745   -4.9688   22.9790 O.2     1  UNL1       -0.2950
      9 C           6.9582   -4.3003   24.3043 C.ar    1  UNL1        0.4470
     10 O           7.5834   -4.7024   25.6071 O.2     1  UNL1       -0.2203
     11 N           6.0069   -3.1591   24.0979 N.ar    1  UNL1       -0.2279
     12 C           3.8377   -1.2832   21.1907 C.ar    1  UNL1        0.0190
     13 C           4.4473   -0.6870   19.9566 C.ar    1  UNL1       -0.0002
     14 C           3.5974    0.1048   19.0077 C.ar    1  UNL1        0.0065
     15 C           2.1377    0.3006   19.2929 C.ar    1  UNL1        0.0345
     16 BR          1.2878    1.0924   18.3439 Br      1  UNL1       -0.0490
     17 C           1.5282   -0.2956   20.5270 C.ar    1  UNL1        0.0065
     18 C           2.3782   -1.0875   21.4759 C.ar    1  UNL1       -0.0002
     19 O           4.9685   -2.8105   20.8628 O.3     1  UNL1       -0.3293
     20 C           3.9574   -3.7730   20.3138 C.3     1  UNL1        0.2470
     21 C           4.3525   -4.7459   19.2426 C.3     1  UNL1        0.4249
     22 F           4.7476   -5.7187   18.1714 F       1  UNL1       -0.1674
     23 F           3.3969   -5.7551   19.8068 F       1  UNL1       -0.1674
     24 F           5.3081   -3.7366   18.6784 F       1  UNL1       -0.1674
@<TRIPOS>BOND
     1     1     2    1
     2     2     3    2
     3     3     4    1
     4     4     5    1
     5     5    19    1
     6    19    20    1
     7    20    21    1
     8    21    22    1
     9    21    23    1
    10    21    24    1
    11     5    12    1
    12    12    13   ar
    13    13    14   ar
    14    14    15   ar
    15    15    16    1
    16    15    17   ar
    17    17    18   ar
    18     5     6    1
    19     6     7   ar
    20     7     8   ar
    21     8     9   ar
    22     9    10    2
    23     9    11   ar
    24    11     2    1
    25    18    12   ar
    26    11     6   ar
@<TRIPOS>MOLECULE
*****
 24 26 0 0 0
SMALL
GASTEIGER

@<TRIPOS>ATOM
      1 C           5.8470   -2.7805   25.2437 C.3     1  UNL1        0.0512
      2 C           5.1186   -2.3069   24.0209 C.2     1  UNL1        0.0551
      3 C           4.1618   -1.1556   24.1168 C.2     1  UNL1        0.0470
      4 S           3.4334   -0.6820   22.8941 S.3     1  UNL1       -0.0751
      5 C           3.6617   -1.3596   21.5754 C.3     1  UNL1        0.2085
      6 C           4.6185   -2.5109   21.4796 C.ar    1  UNL1        0.2066
      7 N           5.0442   -3.3687   20.3251 N.ar    1  UNL1       -0.0545
      8 O           6.0357   -4.3725   20.8343 O.2     1  UNL1       -0.2950
      9 C           6.2228   -4.1351   22.3035 C.ar    1  UNL1        0.4470
     10 O           7.1270   -4.9118   23.2140 O.2     1  UNL1       -0.2203
     11 N           5.3469   -2.9845   22.7024 N.ar    1  UNL1       -0.2279
     12 C           2.6639   -0.3181   21.1638 C.ar    1  UNL1        0.0190
     13 C           1.3602   -0.7307   20.5473 C.ar    1  UNL1       -0.0002
     14 C           0.3623    0.3107   20.1356 C.ar    1  UNL1        0.0065
     15 C           0.6681    1.7650   20.3404 C.ar    1  UNL1        0.0345
     16 BR         -0.3298    2.8064   19.9287 Br      1  UNL1       -0.0490
     17 C           1.9718    2.1776   20.9569 C.ar    1  UNL1        0.0065
     18 C           2.9698    1.1360   21.3686 C.ar    1  UNL1       -0.0002
     19 O           3.5436   -1.6755   20.1139 O.3     1  UNL1       -0.3293
     20 C           4.2211   -0.8015   19.1005 C.3     1  UNL1        0.2470
     21 C           3.8531   -0.9105   17.6504 C.3     1  UNL1        0.4249
     22 F           3.4851   -1.0195   16.2003 F       1  UNL1       -0.1674
     23 F           4.7697   -2.0891   17.5064 F       1  UNL1       -0.1674
     24 F           2.9365    0.2681   17.7944 F       1  UNL1       -0.1674
@<TRIPOS>BOND
     1     1     2    1
     2     2     3    2
     3     3     4    1
     4     4     5    1
     5     5    19    1
     6    19    20    1
     7    20    21    1
     8    21    22    1
     9    21    23    1
    10    21    24    1
    11     5    12    1
    12    12    13   ar
    13    13    14   ar
    14    14    15   ar
    15    15    16    1
    16    15    17   ar
    17    17    18   ar
    18     5     6    1
    19     6     7   ar
    20     7     8   ar
    21     8     9   ar
    22     9    10    2
    23     9    11   ar
    24    11     2    1
    25    18    12   ar
    26    11     6   ar
@<TRIPOS>MOLECULE
*****
 24 26 0 0 0
SMALL
GASTEIGER

@<TRIPOS>ATOM
      1 C         -16.9452   -0.7667   19.3171 C.3     1  UNL1        0.0512
      2 C         -16.3451   -2.1158   19.0530 C.2     1  UNL1        0.0551
      3 C         -17.1947   -3.3477   19.1562 C.2     1  UNL1        0.0470
      4 S         -16.5948   -4.6968   18.8922 S.3     1  UNL1       -0.0751
      5 C         -15.1451   -4.8142   18.5249 C.3     1  UNL1        0.2085
      6 C         -14.2955   -3.5823   18.4218 C.ar    1  UNL1        0.2066
      7 N         -12.8476   -3.3873   18.0819 N.ar    1  UNL1       -0.0545
      8 O         -12.5528   -1.9175   18.1359 O.2     1  UNL1       -0.2950
      9 C         -13.8184   -1.2042   18.5091 C.ar    1  UNL1        0.4470
     10 O         -13.9788    0.2778   18.6763 O.2     1  UNL1       -0.2203
     11 N         -14.8955   -2.2331   18.6858 N.ar    1  UNL1       -0.2279
     12 C         -15.5388   -6.2613   18.4973 C.ar    1  UNL1        0.0190
     13 C         -15.3977   -7.0528   17.2309 C.ar    1  UNL1       -0.0002
     14 C         -15.7914   -8.4999   17.2031 C.ar    1  UNL1        0.0065
     15 C         -16.3263   -9.1557   18.4417 C.ar    1  UNL1        0.0345
     16 BR        -16.7200  -10.6027   18.4139 Br      1  UNL1       -0.0490
     17 C         -16.4674   -8.3641   19.7081 C.ar    1  UNL1        0.0065
     18 C         -16.0737   -6.9169   19.7358 C.ar    1  UNL1       -0.0002
     19 O         -13.8323   -5.4340   18.1481 O.3     1  UNL1       -0.3293
     20 C         -12.9705   -6.0644   19.2018 C.3     1  UNL1        0.2470
     21 C         -11.7217   -6.7971   18.8098 C.3     1  UNL1        0.4249
     22 F         -10.4729   -7.5298   18.4179 F       1  UNL1       -0.1674
     23 F         -10.8912   -5.6730   19.3545 F       1  UNL1       -0.1674
     24 F         -12.5522   -7.9212   18.2652 F       1  UNL1       -0.1674
@<TRIPOS>BOND
     1     1     2    1
     2     2     3    2
     3     3     4    1
     4     4     5    1
     5     5    19    1
     6    19    20    1
     7    20    21    1
     8    21    22    1
     9    21    23    1
    10    21    24    1
    11     5    12    1
    12    12    13   ar
    13    13    14   ar
    14    14    15   ar
    15    15    16    1
    16    15    17   ar
    17    17    18   ar
    18     5     6    1
    19     6     7   ar
    20     7     8   ar
    21     8     9   ar
    22     9    10    2
    23     9    11   ar
    24    11     2    1
    25    18    12   ar
    26    11     6   ar
@<TRIPOS>MOLECULE
*****
 24 26 0 0 0
SMALL
GASTEIGER

@<TRIPOS>ATOM
      1 C         -10.6906  -15.8475   23.6215 C.3     1  UNL1        0.0512
      2 C          -9.7636  -16.7962   22.9210 C.2     1  UNL1        0.0551
      3 C          -8.2798  -16.5923   23.0023 C.2     1  UNL1        0.0470
      4 S          -7.3528  -17.5409   22.3018 S.3     1  UNL1       -0.0751
      5 C          -7.9097  -18.6936   21.5199 C.3     1  UNL1        0.2085
      6 C          -9.3935  -18.8975   21.4386 C.ar    1  UNL1        0.2066
      7 N         -10.2275  -19.9356   20.7481 N.ar    1  UNL1       -0.0545
      8 O         -11.6700  -19.6284   21.0219 O.2     1  UNL1       -0.2950
      9 C         -11.7274  -18.4006   21.8816 C.ar    1  UNL1        0.4470
     10 O         -12.9731  -17.7404   22.3938 O.2     1  UNL1       -0.2203
     11 N         -10.3204  -17.9488   22.1391 N.ar    1  UNL1       -0.2279
     12 C          -6.4422  -18.9168   21.3037 C.ar    1  UNL1        0.0190
     13 C          -5.8704  -18.8555   19.9183 C.ar    1  UNL1       -0.0002
     14 C          -4.4030  -19.0787   19.7019 C.ar    1  UNL1        0.0065
     15 C          -3.5073  -19.3631   20.8711 C.ar    1  UNL1        0.0345
     16 BR         -2.0399  -19.5863   20.6547 Br      1  UNL1       -0.0490
     17 C          -4.0790  -19.4243   22.2565 C.ar    1  UNL1        0.0065
     18 C          -5.5465  -19.2012   22.4728 C.ar    1  UNL1       -0.0002
     19 O          -7.9569  -19.9237   20.6629 O.3     1  UNL1       -0.3293
     20 C          -8.3473  -19.8170   19.2186 C.3     1  UNL1        0.2470
     21 C          -8.4415  -21.0530   18.3739 C.3     1  UNL1        0.4249
     22 F          -8.5358  -22.2890   17.5292 F       1  UNL1       -0.1674
     23 F          -9.6242  -20.4726   17.6565 F       1  UNL1       -0.1674
     24 F          -7.2589  -21.6334   19.0912 F       1  UNL1       -0.1674
@<TRIPOS>BOND
     1     1     2    1
     2     2     3    2
     3     3     4    1
     4     4     5    1
     5     5    19    1
     6    19    20    1
     7    20    21    1
     8    21    22    1
     9    21    23    1
    10    21    24    1
    11     5    12    1
    12    12    13   ar
    13    13    14   ar
    14    14    15   ar
    15    15    16    1
    16    15    17   ar
    17    17    18   ar
    18     5     6    1
    19     6     7   ar
    20     7     8   ar
    21     8     9   ar
    22     9    10    2
    23     9    11   ar
    24    11     2    1
    25    18    12   ar
    26    11     6   ar
@<TRIPOS>MOLECULE
*****
 24 26 0 0 0
SMALL
GASTEIGER

@<TRIPOS>ATOM
      1 C          -4.7182  -16.2887   24.5155 C.3     1  UNL1        0.0512
      2 C          -5.8625  -16.8352   23.7143 C.2     1  UNL1        0.0551
      3 C          -5.5971  -17.7446   22.5514 C.2     1  UNL1        0.0470
      4 S          -6.7413  -18.2911   21.7503 S.3     1  UNL1       -0.0751
      5 C          -8.1511  -17.9283   22.1120 C.3     1  UNL1        0.2085
      6 C          -8.4166  -17.0189   23.2750 C.ar    1  UNL1        0.2066
      7 N          -9.6900  -16.4892   23.8646 N.ar    1  UNL1       -0.0545
      8 O          -9.3328  -15.6153   25.0302 O.2     1  UNL1       -0.2950
      9 C          -7.8385  -15.6048   25.1610 C.ar    1  UNL1        0.4470
     10 O          -7.0491  -14.8580   26.1950 O.2     1  UNL1       -0.2203
     11 N          -7.2722  -16.4723   24.0761 N.ar    1  UNL1       -0.2279
     12 C          -8.4059  -18.8191   20.9325 C.ar    1  UNL1        0.0190
     13 C          -7.3858  -19.8432   20.5318 C.ar    1  UNL1       -0.0002
     14 C          -7.6404  -20.7341   19.3523 C.ar    1  UNL1        0.0065
     15 C          -8.9154  -20.6010   18.5732 C.ar    1  UNL1        0.0345
     16 BR         -9.1701  -21.4918   17.3937 Br      1  UNL1       -0.0490
     17 C          -9.9356  -19.5769   18.9739 C.ar    1  UNL1        0.0065
     18 C          -9.6808  -18.6859   20.1535 C.ar    1  UNL1       -0.0002
     19 O          -9.6494  -17.8748   22.0642 O.3     1  UNL1       -0.3293
     20 C         -10.4595  -18.9637   22.7028 C.3     1  UNL1        0.2470
     21 C         -11.8242  -18.6621   23.2475 C.3     1  UNL1        0.4249
     22 F         -13.1889  -18.3604   23.7922 F       1  UNL1       -0.1674
     23 F         -12.2024  -18.0212   21.9451 F       1  UNL1       -0.1674
     24 F         -11.4460  -19.3030   24.5499 F       1  UNL1       -0.1674
@<TRIPOS>BOND
     1     1     2    1
     2     2     3    2
     3     3     4    1
     4     4     5    1
     5     5    19    1
     6    19    20    1
     7    20    21    1
     8    21    22    1
     9    21    23    1
    10    21    24    1
    11     5    12    1
    12    12    13   ar
    13    13    14   ar
    14    14    15   ar
    15    15    16    1
    16    15    17   ar
    17    17    18   ar
    18     5     6    1
    19     6     7   ar
    20     7     8   ar
    21     8     9   ar
    22     9    10    2
    23     9    11   ar
    24    11     2    1
    25    18    12   ar
    26    11     6   ar
@<TRIPOS>MOLECULE
*****
 24 26 0 0 0
SMALL
GASTEIGER

@<TRIPOS>ATOM
      1 C           3.1843    3.9903   20.5532 C.3     1  UNL1        0.0512
      2 C           3.3997    2.5061   20.5779 C.2     1  UNL1        0.0551
      3 C           4.4751    1.9185   21.4429 C.2     1  UNL1        0.0470
      4 S           4.6904    0.4343   21.4676 S.3     1  UNL1       -0.0751
      5 C           3.8304   -0.4625   20.6272 C.3     1  UNL1        0.2085
      6 C           2.7550    0.1251   19.7622 C.ar    1  UNL1        0.2066
      7 N           1.7588   -0.5033   18.8333 N.ar    1  UNL1       -0.0545
      8 O           0.9278    0.5926   18.2346 O.2     1  UNL1       -0.2950
      9 C           1.4104    1.8983   18.7934 C.ar    1  UNL1        0.4470
     10 O           0.8602    3.2547   18.4657 O.2     1  UNL1       -0.2203
     11 N           2.5397    1.6094   19.7375 N.ar    1  UNL1       -0.2279
     12 C           4.7136   -1.4847   21.2790 C.ar    1  UNL1        0.0190
     13 C           6.1854   -1.4979   20.9898 C.ar    1  UNL1       -0.0002
     14 C           7.0688   -2.5200   21.6415 C.ar    1  UNL1        0.0065
     15 C           6.4804   -3.5291   22.5827 C.ar    1  UNL1        0.0345
     16 BR          7.3637   -4.5512   23.2345 Br      1  UNL1       -0.0490
     17 C           5.0086   -3.5158   22.8720 C.ar    1  UNL1        0.0065
     18 C           4.1252   -2.4936   22.2201 C.ar    1  UNL1       -0.0002
     19 O           3.2771   -1.7141   20.0132 O.3     1  UNL1       -0.3293
     20 C           3.9007   -2.2796   18.7717 C.3     1  UNL1        0.2470
     21 C           4.2475   -3.7374   18.7037 C.3     1  UNL1        0.4249
     22 F           4.5943   -5.1952   18.6356 F       1  UNL1       -0.1674
     23 F           5.5723   -3.3936   18.0898 F       1  UNL1       -0.1674
     24 F           2.9227   -4.0812   19.3176 F       1  UNL1       -0.1674
@<TRIPOS>BOND
     1     1     2    1
     2     2     3    2
     3     3     4    1
     4     4     5    1
     5     5    19    1
     6    19    20    1
     7    20    21    1
     8    21    22    1
     9    21    23    1
    10    21    24    1
    11     5    12    1
    12    12    13   ar
    13    13    14   ar
    14    14    15   ar
    15    15    16    1
    16    15    17   ar
    17    17    18   ar
    18     5     6    1
    19     6     7   ar
    20     7     8   ar
    21     8     9   ar
    22     9    10    2
    23     9    11   ar
    24    11     2    1
    25    18    12   ar
    26    11     6   ar
