@<TRIPOS>MOLECULE
*****
 14 15 0 0 0
SMALL
GASTEIGER

@<TRIPOS>ATOM
      1 C          -8.8031  -18.6365   21.7527 C.1     1  UNL1       -0.0399
      2 C          -7.3443  -18.9493   21.5979 C.1     1  UNL1       -0.0567
      3 C         -13.5964  -17.9519   23.8591 C.3     1  UNL1        0.0594
      4 C         -12.4652  -18.0089   22.8757 C.ar    1  UNL1        0.0893
      5 N         -11.0520  -18.4096   23.1796 N.ar    1  UNL1       -0.2344
      6 C         -10.2620  -18.3236   21.9074 C.ar    1  UNL1        0.1295
      7 C         -11.1869  -17.8697   20.8172 C.ar    1  UNL1        0.0641
      8 S         -12.5485  -17.6752   21.4156 S.2     1  UNL1       -0.0695
      9 C          -5.8855  -19.2622   21.4432 C.ar    1  UNL1        0.0612
     10 C          -5.4181  -20.1132   20.2998 C.ar    1  UNL1        0.0114
     11 C          -3.9593  -20.4260   20.1451 C.ar    1  UNL1        0.0213
     12 C          -2.9679  -19.8879   21.1338 C.ar    1  UNL1        0.0989
     13 N          -3.4352  -19.0370   22.2772 N.ar    1  UNL1       -0.2417
     14 C          -4.8940  -18.7241   22.4319 C.ar    1  UNL1        0.1071
@<TRIPOS>BOND
     1     3     4    1
     2     4     5   ar
     3     5     6   ar
     4     6     1    1
     5     1     2    3
     6     2     9    1
     7     9    10   ar
     8    10    11   ar
     9    11    12   ar
    10    12    13   ar
    11    13    14   ar
    12     6     7   ar
    13     7     8   ar
    14     8     4   ar
    15    14     9   ar
@<TRIPOS>MOLECULE
*****
 14 15 0 0 0
SMALL
GASTEIGER

@<TRIPOS>ATOM
      1 C          -7.3237  -19.2709   22.2938 C.1     1  UNL1       -0.0399
      2 C          -5.9178  -19.2209   21.7735 C.1     1  UNL1       -0.0567
      3 C         -12.3988  -18.1055   23.1697 C.3     1  UNL1        0.0594
      4 C         -11.0625  -18.7853   23.2167 C.ar    1  UNL1        0.0893
      5 N          -9.8298  -18.3589   22.4758 N.ar    1  UNL1       -0.2344
      6 C          -8.7298  -19.3210   22.8141 C.ar    1  UNL1        0.1295
      7 C          -9.2825  -20.3419   23.7639 C.ar    1  UNL1        0.0641
      8 S         -10.7242  -20.0108   24.0128 S.2     1  UNL1       -0.0695
      9 C          -4.5117  -19.1707   21.2532 C.ar    1  UNL1        0.0612
     10 C          -4.2590  -18.8958   19.8005 C.ar    1  UNL1        0.0114
     11 C          -2.8530  -18.8458   19.2802 C.ar    1  UNL1        0.0213
     12 C          -1.6998  -19.0706   20.2127 C.ar    1  UNL1        0.0989
     13 N          -1.9526  -19.3455   21.6655 N.ar    1  UNL1       -0.2417
     14 C          -3.3585  -19.3956   22.1857 C.ar    1  UNL1        0.1071
@<TRIPOS>BOND
     1     3     4    1
     2     4     5   ar
     3     5     6   ar
     4     6     1    1
     5     1     2    3
     6     2     9    1
     7     9    10   ar
     8    10    11   ar
     9    11    12   ar
    10    12    13   ar
    11    13    14   ar
    12     6     7   ar
    13     7     8   ar
    14     8     4   ar
    15    14     9   ar
@<TRIPOS>MOLECULE
*****
 14 15 0 0 0
SMALL
GASTEIGER

@<TRIPOS>ATOM
      1 C          -5.9112  -18.9377   21.7897 C.1     1  UNL1       -0.0399
      2 C          -7.2998  -18.9325   22.3568 C.1     1  UNL1       -0.0567
      3 C          -1.7705  -18.0413   18.6381 C.3     1  UNL1        0.0594
      4 C          -2.6193  -18.5308   19.7739 C.ar    1  UNL1        0.0893
      5 N          -4.0844  -18.2664   19.9575 N.ar    1  UNL1       -0.2344
      6 C          -4.5225  -18.9429   21.2225 C.ar    1  UNL1        0.1295
      7 C          -3.3283  -19.6254   21.8208 C.ar    1  UNL1        0.0641
      8 S          -2.1520  -19.3707   20.9256 S.2     1  UNL1       -0.0695
      9 C          -8.6885  -18.9274   22.9240 C.ar    1  UNL1        0.0612
     10 C          -9.2298  -20.1558   23.5933 C.ar    1  UNL1        0.0114
     11 C         -10.6185  -20.1506   24.1604 C.ar    1  UNL1        0.0213
     12 C         -11.4657  -18.9170   24.0583 C.ar    1  UNL1        0.0989
     13 N         -10.9244  -17.6886   23.3890 N.ar    1  UNL1       -0.2417
     14 C          -9.5358  -17.6938   22.8219 C.ar    1  UNL1        0.1071
@<TRIPOS>BOND
     1     3     4    1
     2     4     5   ar
     3     5     6   ar
     4     6     1    1
     5     1     2    3
     6     2     9    1
     7     9    10   ar
     8    10    11   ar
     9    11    12   ar
    10    12    13   ar
    11    13    14   ar
    12     6     7   ar
    13     7     8   ar
    14     8     4   ar
    15    14     9   ar
@<TRIPOS>MOLECULE
*****
 14 15 0 0 0
SMALL
GASTEIGER

@<TRIPOS>ATOM
      1 C          -8.6045  -18.1623   21.9953 C.1     1  UNL1       -0.0399
      2 C          -7.1967  -18.6228   21.7586 C.1     1  UNL1       -0.0567
      3 C         -13.5805  -17.9160   23.7447 C.3     1  UNL1        0.0594
      4 C         -12.2995  -17.5886   23.0362 C.ar    1  UNL1        0.0893
      5 N         -11.0352  -18.3945   23.0829 N.ar    1  UNL1       -0.2344
      6 C         -10.0123  -17.7018   22.2320 C.ar    1  UNL1        0.1295
      7 C         -10.6444  -16.4678   21.6595 C.ar    1  UNL1        0.0641
      8 S         -12.0580  -16.3979   22.1565 S.2     1  UNL1       -0.0695
      9 C          -5.7888  -19.0832   21.5219 C.ar    1  UNL1        0.0612
     10 C          -4.6910  -18.6443   22.4449 C.ar    1  UNL1        0.0114
     11 C          -3.2832  -19.1048   22.2082 C.ar    1  UNL1        0.0213
     12 C          -2.9733  -20.0042   21.0485 C.ar    1  UNL1        0.0989
     13 N          -4.0712  -20.4431   20.1254 N.ar    1  UNL1       -0.2417
     14 C          -5.4789  -19.9826   20.3622 C.ar    1  UNL1        0.1071
@<TRIPOS>BOND
     1     3     4    1
     2     4     5   ar
     3     5     6   ar
     4     6     1    1
     5     1     2    3
     6     2     9    1
     7     9    10   ar
     8    10    11   ar
     9    11    12   ar
    10    12    13   ar
    11    13    14   ar
    12     6     7   ar
    13     7     8   ar
    14     8     4   ar
    15    14     9   ar
@<TRIPOS>MOLECULE
*****
 14 15 0 0 0
SMALL
GASTEIGER

@<TRIPOS>ATOM
      1 C          -7.1909  -18.7296   21.6753 C.1     1  UNL1       -0.0399
      2 C          -8.6471  -18.5355   21.9782 C.1     1  UNL1       -0.0567
      3 C          -2.5519  -18.8010   19.1541 C.3     1  UNL1        0.0594
      4 C          -3.6023  -18.9565   20.2136 C.ar    1  UNL1        0.0893
      5 N          -5.0545  -18.6076   20.0734 N.ar    1  UNL1       -0.2344
      6 C          -5.7346  -18.9237   21.3725 C.ar    1  UNL1        0.1295
      7 C          -4.7028  -19.4679   22.3155 C.ar    1  UNL1        0.0641
      8 S          -3.3850  -19.4882   21.5993 S.2     1  UNL1       -0.0695
      9 C         -10.1034  -18.3414   22.2810 C.ar    1  UNL1        0.0612
     10 C         -10.6149  -18.5574   23.6744 C.ar    1  UNL1        0.0114
     11 C         -12.0711  -18.3633   23.9772 C.ar    1  UNL1        0.0213
     12 C         -13.0158  -17.9532   22.8865 C.ar    1  UNL1        0.0989
     13 N         -12.5042  -17.7372   21.4932 N.ar    1  UNL1       -0.2417
     14 C         -11.0480  -17.9313   21.1904 C.ar    1  UNL1        0.1071
@<TRIPOS>BOND
     1     3     4    1
     2     4     5   ar
     3     5     6   ar
     4     6     1    1
     5     1     2    3
     6     2     9    1
     7     9    10   ar
     8    10    11   ar
     9    11    12   ar
    10    12    13   ar
    11    13    14   ar
    12     6     7   ar
    13     7     8   ar
    14     8     4   ar
    15    14     9   ar
@<TRIPOS>MOLECULE
*****
 14 15 0 0 0
SMALL
GASTEIGER

@<TRIPOS>ATOM
      1 C          -8.6633  -17.5456   22.4997 C.1     1  UNL1       -0.0399
      2 C          -8.1099  -16.8396   23.7019 C.1     1  UNL1       -0.0567
      3 C          -9.0561  -20.5836   18.1988 C.3     1  UNL1        0.0594
      4 C          -9.3972  -19.6480   19.3205 C.ar    1  UNL1        0.0893
      5 N          -8.4562  -19.1682   20.3856 N.ar    1  UNL1       -0.2344
      6 C          -9.2167  -18.2516   21.2974 C.ar    1  UNL1        0.1295
      7 C         -10.6278  -18.1650   20.7960 C.ar    1  UNL1        0.0641
      8 S         -10.7394  -19.0280   19.5743 S.2     1  UNL1       -0.0695
      9 C          -7.5565  -16.1336   24.9041 C.ar    1  UNL1        0.0612
     10 C          -8.3684  -16.0461   26.1623 C.ar    1  UNL1        0.0114
     11 C          -7.8150  -15.3401   27.3644 C.ar    1  UNL1        0.0213
     12 C          -6.4495  -14.7217   27.3084 C.ar    1  UNL1        0.0989
     13 N          -5.6376  -14.8092   26.0503 N.ar    1  UNL1       -0.2417
     14 C          -6.1910  -15.5152   24.8481 C.ar    1  UNL1        0.1071
@<TRIPOS>BOND
     1     3     4    1
     2     4     5   ar
     3     5     6   ar
     4     6     1    1
     5     1     2    3
     6     2     9    1
     7     9    10   ar
     8    10    11   ar
     9    11    12   ar
    10    12    13   ar
    11    13    14   ar
    12     6     7   ar
    13     7     8   ar
    14     8     4   ar
    15    14     9   ar
@<TRIPOS>MOLECULE
*****
 14 15 0 0 0
SMALL
GASTEIGER

@<TRIPOS>ATOM
      1 C         -12.7173   -6.7129   18.3125 C.1     1  UNL1       -0.0399
      2 C         -13.8855   -7.6299   18.5224 C.1     1  UNL1       -0.0567
      3 C          -8.9567   -3.8201   15.9949 C.3     1  UNL1        0.0594
      4 C          -9.8204   -4.4661   17.0373 C.ar    1  UNL1        0.0893
      5 N         -10.9744   -5.3888   16.7782 N.ar    1  UNL1       -0.2344
      6 C         -11.5489   -5.7957   18.1027 C.ar    1  UNL1        0.1295
      7 C         -10.7501   -5.1246   19.1804 C.ar    1  UNL1        0.0641
      8 S          -9.6819   -4.3029   18.5220 S.2     1  UNL1       -0.0695
      9 C         -15.0538   -8.5471   18.7322 C.ar    1  UNL1        0.0612
     10 C         -16.2008   -8.1148   19.5968 C.ar    1  UNL1        0.0114
     11 C         -17.3691   -9.0319   19.8066 C.ar    1  UNL1        0.0213
     12 C         -17.3903  -10.3813   19.1518 C.ar    1  UNL1        0.0989
     13 N         -16.2433  -10.8136   18.2873 N.ar    1  UNL1       -0.2417
     14 C         -15.0751   -9.8965   18.0775 C.ar    1  UNL1        0.1071
@<TRIPOS>BOND
     1     3     4    1
     2     4     5   ar
     3     5     6   ar
     4     6     1    1
     5     1     2    3
     6     2     9    1
     7     9    10   ar
     8    10    11   ar
     9    11    12   ar
    10    12    13   ar
    11    13    14   ar
    12     6     7   ar
    13     7     8   ar
    14     8     4   ar
    15    14     9   ar
@<TRIPOS>MOLECULE
*****
 14 15 0 0 0
SMALL
GASTEIGER

@<TRIPOS>ATOM
      1 C         -14.9434   -7.5672   18.9006 C.1     1  UNL1       -0.0399
      2 C         -13.6295   -6.8436   18.9139 C.1     1  UNL1       -0.0567
      3 C         -19.1409  -10.3257   17.2718 C.3     1  UNL1        0.0594
      4 C         -18.1867   -9.5586   18.1385 C.ar    1  UNL1        0.0893
      5 N         -16.8799   -8.9660   17.7013 N.ar    1  UNL1       -0.2344
      6 C         -16.2573   -8.2907   18.8872 C.ar    1  UNL1        0.1295
      7 C         -17.1793   -8.4659   20.0573 C.ar    1  UNL1        0.0641
      8 S         -18.3717   -9.2495   19.5947 S.2     1  UNL1       -0.0695
      9 C         -12.3156   -6.1201   18.9272 C.ar    1  UNL1        0.0612
     10 C         -11.0322   -6.8949   18.8773 C.ar    1  UNL1        0.0114
     11 C          -9.7183   -6.1714   18.8907 C.ar    1  UNL1        0.0213
     12 C          -9.6878   -4.6730   18.9539 C.ar    1  UNL1        0.0989
     13 N         -10.9712   -3.8982   19.0038 N.ar    1  UNL1       -0.2417
     14 C         -12.2851   -4.6217   18.9905 C.ar    1  UNL1        0.1071
@<TRIPOS>BOND
     1     3     4    1
     2     4     5   ar
     3     5     6   ar
     4     6     1    1
     5     1     2    3
     6     2     9    1
     7     9    10   ar
     8    10    11   ar
     9    11    12   ar
    10    12    13   ar
    11    13    14   ar
    12     6     7   ar
    13     7     8   ar
    14     8     4   ar
    15    14     9   ar
@<TRIPOS>MOLECULE
*****
 14 15 0 0 0
SMALL
GASTEIGER

@<TRIPOS>ATOM
      1 C         -15.5522   -6.5224   19.3712 C.1     1  UNL1       -0.0399
      2 C         -14.0803   -6.2959   19.1920 C.1     1  UNL1       -0.0567
      3 C         -20.1726   -8.7196   20.6773 C.3     1  UNL1        0.0594
      4 C         -19.1479   -7.7590   20.1507 C.ar    1  UNL1        0.0893
      5 N         -17.6606   -7.9521   20.1809 N.ar    1  UNL1       -0.2344
      6 C         -17.0241   -6.7490   19.5503 C.ar    1  UNL1        0.1295
      7 C         -18.1179   -5.8124   19.1304 C.ar    1  UNL1        0.0641
      8 S         -19.4305   -6.4366   19.5015 S.2     1  UNL1       -0.0695
      9 C         -12.6083   -6.0693   19.0128 C.ar    1  UNL1        0.0612
     10 C         -12.0384   -4.6897   19.1607 C.ar    1  UNL1        0.0114
     11 C         -10.5665   -4.4632   18.9815 C.ar    1  UNL1        0.0213
     12 C          -9.6645   -5.6162   18.6545 C.ar    1  UNL1        0.0989
     13 N         -10.2344   -6.9958   18.5066 N.ar    1  UNL1       -0.2417
     14 C         -11.7063   -7.2223   18.6858 C.ar    1  UNL1        0.1071
@<TRIPOS>BOND
     1     3     4    1
     2     4     5   ar
     3     5     6   ar
     4     6     1    1
     5     1     2    3
     6     2     9    1
     7     9    10   ar
     8    10    11   ar
     9    11    12   ar
    10    12    13   ar
    11    13    14   ar
    12     6     7   ar
    13     7     8   ar
    14     8     4   ar
    15    14     9   ar
