@<TRIPOS>MOLECULE
*****
 33 37 0 0 0
SMALL
GASTEIGER

@<TRIPOS>ATOM
      1 N          -1.8989    3.9435   25.4508 N.3     1  UNL1       -0.2655
      2 C          -1.5130    4.2015   24.0245 C.3     1  UNL1        0.1132
      3 C          -0.5855    3.2591   23.3163 C.3     1  UNL1        0.1849
      4 N          -0.0438    2.0588   24.0345 N.pl3   1  UNL1       -0.1905
      5 C          -0.4297    1.8008   25.4608 C.3     1  UNL1        0.1849
      6 C          -1.3573    2.7432   26.1690 C.3     1  UNL1        0.1132
      7 C           0.8838    1.1164   23.3263 C.cat   1  UNL1        0.4230
      8 N           1.9659    0.2977   23.9656 N.2     1  UNL1       -0.0678
      9 C           2.6430   -0.4975   22.8889 C.2     1  UNL1        0.1894
     10 C           3.7781   -1.4772   22.9280 C.2     1  UNL1        0.0495
     11 C           4.2495   -2.1297   21.6622 C.2     1  UNL1        0.0640
     12 C           3.5858   -1.8025   20.3575 C.2     1  UNL1       -0.0267
     13 C           4.0572   -2.4550   19.0918 C.3     1  UNL1        0.0275
     14 C           2.4507   -0.8228   20.3184 C.3     1  UNL1        0.0899
     15 C           1.9792   -0.1702   21.5841 C.2     1  UNL1        0.1742
     16 N           0.8920    0.8271   21.8544 N.2     1  UNL1       -0.0716
     17 C           5.3847   -3.1095   21.7013 C.1     1  UNL1        0.0999
     18 N           6.5198   -4.0892   21.7404 N.1     1  UNL1       -0.1908
     19 C          -2.8265    4.8859   26.1590 C.3     1  UNL1        0.0971
     20 C          -4.1625    4.4029   26.6405 C.3     1  UNL1        0.1264
     21 C          -5.4770    3.5466   22.4229 C.ar    1  UNL1        0.1593
     22 C          -6.7350    4.1650   21.8892 C.ar    1  UNL1        0.1357
     23 N          -7.5549    5.0689   22.7614 N.ar    1  UNL1       -0.2392
     24 C          -7.1168    5.3543   24.1673 C.ar    1  UNL1        0.0975
     25 C          -7.9367    6.2582   25.0395 C.ar    1  UNL1        0.0255
     26 C          -7.4985    6.5437   26.4454 C.ar    1  UNL1        0.0623
     27 C          -6.2404    5.9252   26.9791 C.ar    1  UNL1        0.2611
     28 O          -5.8023    6.2107   28.3850 O.2     1  UNL1       -0.2670
     29 N          -5.4205    5.0213   26.1069 N.ar    1  UNL1       -0.2926
     30 C          -5.8587    4.7359   24.7010 C.ar    1  UNL1        0.0832
     31 C          -5.0388    3.8320   23.8287 C.ar    1  UNL1        0.0573
     32 C          -3.6058    3.2205   20.6502 C.3     1  UNL1        0.2525
     33 O          -4.6571    2.6427   21.5507 O.3     1  UNL1       -0.4698
@<TRIPOS>BOND
     1    32    33    1
     2    33    21    1
     3    21    22   ar
     4    22    23   ar
     5    23    24   ar
     6    24    25   ar
     7    25    26   ar
     8    26    27   ar
     9    27    28    2
    10    27    29   ar
    11    29    20    1
    12    20    19    1
    13    19     1    1
    14     1     2    1
    15     2     3    1
    16     3     4    1
    17     4     7    1
    18     7     8    2
    19     8     9    1
    20     9    10    2
    21    10    11    1
    22    11    17    1
    23    17    18    3
    24    11    12    2
    25    12    13    1
    26    12    14    1
    27    14    15    1
    28    15    16    2
    29     4     5    1
    30     5     6    1
    31    29    30   ar
    32    30    31   ar
    33    31    21   ar
    34    30    24   ar
    35     6     1    1
    36    16     7    1
    37    15     9    1
@<TRIPOS>MOLECULE
*****
 33 37 0 0 0
SMALL
GASTEIGER

@<TRIPOS>ATOM
      1 N           2.2800    1.6079   18.9440 N.3     1  UNL1       -0.2655
      2 C           1.3200    0.5792   19.4638 C.3     1  UNL1        0.1132
      3 C           0.1268    1.0049   20.2668 C.3     1  UNL1        0.1849
      4 N          -0.1065    2.4593   20.5500 N.pl3   1  UNL1       -0.1905
      5 C           0.8535    3.4880   20.0302 C.3     1  UNL1        0.1849
      6 C           2.0468    3.0623   19.2272 C.3     1  UNL1        0.1132
      7 C          -1.2998    2.8851   21.3530 C.cat   1  UNL1        0.4230
      8 N          -2.7143    2.9583   20.8593 N.2     1  UNL1       -0.0678
      9 C          -3.5767    3.4309   21.9919 C.2     1  UNL1        0.1894
     10 C          -5.0509    3.6902   22.0905 C.2     1  UNL1        0.0495
     11 C          -5.6435    4.1683   23.3829 C.2     1  UNL1        0.0640
     12 C          -4.7620    4.3871   24.5766 C.2     1  UNL1       -0.0267
     13 C          -5.3547    4.8652   25.8689 C.3     1  UNL1        0.0275
     14 C          -3.2879    4.1278   24.4781 C.3     1  UNL1        0.0899
     15 C          -2.6952    3.6497   23.1857 C.2     1  UNL1        0.1742
     16 N          -1.2880    3.3124   22.7909 N.2     1  UNL1       -0.0716
     17 C          -7.1176    4.4276   23.4814 C.1     1  UNL1        0.0999
     18 N          -8.5917    4.6870   23.5800 N.1     1  UNL1       -0.1908
     19 C           3.4734    1.1821   18.1409 C.3     1  UNL1        0.0971
     20 C           4.7983    0.9817   18.8151 C.3     1  UNL1        0.1264
     21 C           3.7864   -1.3354   22.5376 C.ar    1  UNL1        0.1593
     22 C           4.3284   -2.7209   22.7292 C.ar    1  UNL1        0.1357
     23 N           5.2077   -3.3340   21.6799 N.ar    1  UNL1       -0.2392
     24 C           5.5450   -2.5616   20.4391 C.ar    1  UNL1        0.0975
     25 C           6.4243   -3.1747   19.3899 C.ar    1  UNL1        0.0255
     26 C           6.7616   -2.4024   18.1490 C.ar    1  UNL1        0.0623
     27 C           6.2196   -1.0169   17.9574 C.ar    1  UNL1        0.2611
     28 O           6.5569   -0.2445   16.7166 O.2     1  UNL1       -0.2670
     29 N           5.3403   -0.4038   19.0067 N.ar    1  UNL1       -0.2926
     30 C           5.0030   -1.1762   20.2475 C.ar    1  UNL1        0.0832
     31 C           4.1237   -0.5631   21.2968 C.ar    1  UNL1        0.0573
     32 C           2.2165    0.5818   23.3183 C.3     1  UNL1        0.2525
     33 O           2.9071   -0.7223   23.5868 O.3     1  UNL1       -0.4698
@<TRIPOS>BOND
     1    32    33    1
     2    33    21    1
     3    21    22   ar
     4    22    23   ar
     5    23    24   ar
     6    24    25   ar
     7    25    26   ar
     8    26    27   ar
     9    27    28    2
    10    27    29   ar
    11    29    20    1
    12    20    19    1
    13    19     1    1
    14     1     2    1
    15     2     3    1
    16     3     4    1
    17     4     7    1
    18     7     8    2
    19     8     9    1
    20     9    10    2
    21    10    11    1
    22    11    17    1
    23    17    18    3
    24    11    12    2
    25    12    13    1
    26    12    14    1
    27    14    15    1
    28    15    16    2
    29     4     5    1
    30     5     6    1
    31    29    30   ar
    32    30    31   ar
    33    31    21   ar
    34    30    24   ar
    35     6     1    1
    36    16     7    1
    37    15     9    1
@<TRIPOS>MOLECULE
*****
 33 37 0 0 0
SMALL
GASTEIGER

@<TRIPOS>ATOM
      1 N           2.2336    1.5657   18.9015 N.3     1  UNL1       -0.2655
      2 C           1.9562    3.0288   19.0809 C.3     1  UNL1        0.1132
      3 C           0.7358    3.4744   19.8305 C.3     1  UNL1        0.1849
      4 N          -0.2073    2.4568   20.4006 N.pl3   1  UNL1       -0.1905
      5 C           0.0701    0.9937   20.2212 C.3     1  UNL1        0.1849
      6 C           1.2905    0.5481   19.4716 C.3     1  UNL1        0.1132
      7 C          -1.4278    2.9024   21.1503 C.cat   1  UNL1        0.4230
      8 N          -1.4512    3.4728   22.5374 N.2     1  UNL1       -0.0678
      9 C          -2.8770    3.7787   22.8888 C.2     1  UNL1        0.1894
     10 C          -3.5051    4.3552   24.1229 C.2     1  UNL1        0.0495
     11 C          -4.9910    4.5504   24.1871 C.2     1  UNL1        0.0640
     12 C          -5.8488    4.1691   23.0171 C.2     1  UNL1       -0.0267
     13 C          -7.3346    4.3643   23.0813 C.3     1  UNL1        0.0275
     14 C          -5.2207    3.5926   21.7830 C.3     1  UNL1        0.0899
     15 C          -3.7348    3.3974   21.7188 C.2     1  UNL1        0.1742
     16 N          -2.8391    2.8558   20.6443 N.2     1  UNL1       -0.0716
     17 C          -5.6191    5.1269   25.4212 C.1     1  UNL1        0.0999
     18 N          -6.2472    5.7034   26.6554 N.1     1  UNL1       -0.1908
     19 C           3.4541    1.1201   18.1518 C.3     1  UNL1        0.0971
     20 C           4.7582    0.9528   18.8738 C.3     1  UNL1        0.1264
     21 C           3.8094   -1.4129   22.5823 C.ar    1  UNL1        0.1593
     22 C           4.3934   -2.7819   22.7685 C.ar    1  UNL1        0.1357
     23 N           5.2937   -3.3624   21.7184 N.ar    1  UNL1       -0.2392
     24 C           5.6099   -2.5739   20.4823 C.ar    1  UNL1        0.0975
     25 C           6.5102   -3.1544   19.4322 C.ar    1  UNL1        0.0255
     26 C           6.8264   -2.3659   18.1961 C.ar    1  UNL1        0.0623
     27 C           6.2425   -0.9967   18.0099 C.ar    1  UNL1        0.2611
     28 O           6.5587   -0.2082   16.7737 O.2     1  UNL1       -0.2670
     29 N           5.3422   -0.4163   19.0599 N.ar    1  UNL1       -0.2926
     30 C           5.0259   -1.2049   20.2961 C.ar    1  UNL1        0.0832
     31 C           4.1257   -0.6244   21.3462 C.ar    1  UNL1        0.0573
     32 C           2.3647    0.5557   23.4696 C.3     1  UNL1        0.2525
     33 O           2.9092   -0.8324   23.6324 O.3     1  UNL1       -0.4698
@<TRIPOS>BOND
     1    32    33    1
     2    33    21    1
     3    21    22   ar
     4    22    23   ar
     5    23    24   ar
     6    24    25   ar
     7    25    26   ar
     8    26    27   ar
     9    27    28    2
    10    27    29   ar
    11    29    20    1
    12    20    19    1
    13    19     1    1
    14     1     2    1
    15     2     3    1
    16     3     4    1
    17     4     7    1
    18     7     8    2
    19     8     9    1
    20     9    10    2
    21    10    11    1
    22    11    17    1
    23    17    18    3
    24    11    12    2
    25    12    13    1
    26    12    14    1
    27    14    15    1
    28    15    16    2
    29     4     5    1
    30     5     6    1
    31    29    30   ar
    32    30    31   ar
    33    31    21   ar
    34    30    24   ar
    35     6     1    1
    36    16     7    1
    37    15     9    1
@<TRIPOS>MOLECULE
*****
 33 37 0 0 0
SMALL
GASTEIGER

@<TRIPOS>ATOM
      1 N           6.9545   -3.8215   29.9074 N.3     1  UNL1       -0.2655
      2 C           6.9147   -4.1894   31.3610 C.3     1  UNL1        0.1132
      3 C           6.3080   -3.2461   32.3570 C.3     1  UNL1        0.1849
      4 N           5.7411   -1.9349   31.8994 N.pl3   1  UNL1       -0.1905
      5 C           5.7810   -1.5670   30.4458 C.3     1  UNL1        0.1849
      6 C           6.3877   -2.5103   29.4498 C.3     1  UNL1        0.1132
      7 C           5.1344   -0.9915   32.8954 C.cat   1  UNL1        0.4230
      8 N           5.2702   -1.0768   34.3868 N.2     1  UNL1       -0.0678
      9 C           4.5051    0.0647   34.9880 C.2     1  UNL1        0.1894
     10 C           4.2840    0.4863   36.4105 C.2     1  UNL1        0.0495
     11 C           3.4542    1.6987   36.7130 C.2     1  UNL1        0.0640
     12 C           2.8455    2.4895   35.5932 C.2     1  UNL1       -0.0267
     13 C           2.0157    3.7018   35.8958 C.3     1  UNL1        0.0275
     14 C           3.0666    2.0679   34.1707 C.3     1  UNL1        0.0899
     15 C           3.8963    0.8556   33.8681 C.2     1  UNL1        0.1742
     16 N           4.2853    0.2027   32.5749 N.2     1  UNL1       -0.0716
     17 C           3.2331    2.1203   38.1355 C.1     1  UNL1        0.0999
     18 N           3.0120    2.5418   39.5580 N.1     1  UNL1       -0.1908
     19 C           7.5613   -4.7649   28.9114 C.3     1  UNL1        0.0971
     20 C           6.6894   -5.4557   27.9051 C.3     1  UNL1        0.1264
     21 C           6.3640   -3.3608   23.9358 C.ar    1  UNL1        0.1593
     22 C           6.9741   -3.9754   22.7112 C.ar    1  UNL1        0.1357
     23 N           7.6928   -5.2884   22.8096 N.ar    1  UNL1       -0.2392
     24 C           7.8012   -5.9867   24.1326 C.ar    1  UNL1        0.0975
     25 C           8.5199   -7.2997   24.2310 C.ar    1  UNL1        0.0255
     26 C           8.6284   -7.9980   25.5540 C.ar    1  UNL1        0.0623
     27 C           8.0182   -7.3833   26.7788 C.ar    1  UNL1        0.2611
     28 O           8.1267   -8.0817   28.1019 O.2     1  UNL1       -0.2670
     29 N           7.2996   -6.0704   26.6804 N.ar    1  UNL1       -0.2926
     30 C           7.1911   -5.3720   25.3573 C.ar    1  UNL1        0.0832
     31 C           6.4724   -4.0591   25.2589 C.ar    1  UNL1        0.0573
     32 C           4.2629   -1.9910   23.2581 C.3     1  UNL1        0.2525
     33 O           5.6453   -2.0478   23.8375 O.3     1  UNL1       -0.4698
@<TRIPOS>BOND
     1    32    33    1
     2    33    21    1
     3    21    22   ar
     4    22    23   ar
     5    23    24   ar
     6    24    25   ar
     7    25    26   ar
     8    26    27   ar
     9    27    28    2
    10    27    29   ar
    11    29    20    1
    12    20    19    1
    13    19     1    1
    14     1     2    1
    15     2     3    1
    16     3     4    1
    17     4     7    1
    18     7     8    2
    19     8     9    1
    20     9    10    2
    21    10    11    1
    22    11    17    1
    23    17    18    3
    24    11    12    2
    25    12    13    1
    26    12    14    1
    27    14    15    1
    28    15    16    2
    29     4     5    1
    30     5     6    1
    31    29    30   ar
    32    30    31   ar
    33    31    21   ar
    34    30    24   ar
    35     6     1    1
    36    16     7    1
    37    15     9    1
@<TRIPOS>MOLECULE
*****
 33 37 0 0 0
SMALL
GASTEIGER

@<TRIPOS>ATOM
      1 N           4.7021   -0.8991   29.8717 N.3     1  UNL1       -0.2655
      2 C           5.8219   -1.1057   28.8954 C.3     1  UNL1        0.1132
      3 C           5.5359   -1.1454   27.4234 C.3     1  UNL1        0.1849
      4 N           4.1300   -0.9786   26.9279 N.pl3   1  UNL1       -0.1905
      5 C           3.0102   -0.7720   27.9043 C.3     1  UNL1        0.1849
      6 C           3.2962   -0.7323   29.3762 C.3     1  UNL1        0.1132
      7 C           3.8439   -1.0183   25.4559 C.cat   1  UNL1        0.4230
      8 N           2.9030   -0.1143   24.7159 N.2     1  UNL1       -0.0678
      9 C           2.9261   -0.5063   23.2682 C.2     1  UNL1        0.1894
     10 C           2.2008    0.0324   22.0708 C.2     1  UNL1        0.0495
     11 C           2.4306   -0.5752   20.7187 C.2     1  UNL1        0.0640
     12 C           3.3857   -1.7214   20.5641 C.2     1  UNL1       -0.0267
     13 C           3.6155   -2.3289   19.2120 C.3     1  UNL1        0.0275
     14 C           4.1110   -2.2601   21.7615 C.3     1  UNL1        0.0899
     15 C           3.8813   -1.6526   23.1135 C.2     1  UNL1        0.1742
     16 N           4.4485   -1.9690   24.4656 N.2     1  UNL1       -0.0716
     17 C           1.7053   -0.0365   19.5214 C.1     1  UNL1        0.0999
     18 N           0.9800    0.5022   18.3240 N.1     1  UNL1       -0.1908
     19 C           4.9882   -0.8594   31.3437 C.3     1  UNL1        0.0971
     20 C           3.8588   -0.9184   32.3291 C.3     1  UNL1        0.1264
     21 C           1.0900    2.5588   31.6277 C.ar    1  UNL1        0.1593
     22 C           0.9484    3.6271   32.6711 C.ar    1  UNL1        0.1357
     23 N           1.7297    3.5363   33.9483 N.ar    1  UNL1       -0.2392
     24 C           2.6527    2.3772   34.1821 C.ar    1  UNL1        0.0975
     25 C           3.4340    2.2864   35.4593 C.ar    1  UNL1        0.0255
     26 C           4.3570    1.1274   35.6931 C.ar    1  UNL1        0.0623
     27 C           4.4986    0.0590   34.6497 C.ar    1  UNL1        0.2611
     28 O           5.4215   -1.1000   34.8835 O.2     1  UNL1       -0.2670
     29 N           3.7172    0.1498   33.3725 N.ar    1  UNL1       -0.2926
     30 C           2.7943    1.3090   33.1387 C.ar    1  UNL1        0.0832
     31 C           2.0129    1.3998   31.8615 C.ar    1  UNL1        0.0573
     32 C           0.2981    1.4943   29.3939 C.3     1  UNL1        0.2525
     33 O           0.3086    2.6496   30.3505 O.3     1  UNL1       -0.4698
@<TRIPOS>BOND
     1    32    33    1
     2    33    21    1
     3    21    22   ar
     4    22    23   ar
     5    23    24   ar
     6    24    25   ar
     7    25    26   ar
     8    26    27   ar
     9    27    28    2
    10    27    29   ar
    11    29    20    1
    12    20    19    1
    13    19     1    1
    14     1     2    1
    15     2     3    1
    16     3     4    1
    17     4     7    1
    18     7     8    2
    19     8     9    1
    20     9    10    2
    21    10    11    1
    22    11    17    1
    23    17    18    3
    24    11    12    2
    25    12    13    1
    26    12    14    1
    27    14    15    1
    28    15    16    2
    29     4     5    1
    30     5     6    1
    31    29    30   ar
    32    30    31   ar
    33    31    21   ar
    34    30    24   ar
    35     6     1    1
    36    16     7    1
    37    15     9    1
@<TRIPOS>MOLECULE
*****
 33 37 0 0 0
SMALL
GASTEIGER

@<TRIPOS>ATOM
      1 N           2.5091    1.4459   30.4221 N.3     1  UNL1       -0.2655
      2 C           2.7812    2.3769   29.2779 C.3     1  UNL1        0.1132
      3 C           2.9950    1.8277   27.8986 C.3     1  UNL1        0.1849
      4 N           2.9367    0.3474   27.6635 N.pl3   1  UNL1       -0.1905
      5 C           2.6646   -0.5836   28.8076 C.3     1  UNL1        0.1849
      6 C           2.4508   -0.0344   30.1870 C.3     1  UNL1        0.1132
      7 C           3.1504   -0.2019   26.2841 C.cat   1  UNL1        0.4230
      8 N           4.0344   -1.3587   25.9229 N.2     1  UNL1       -0.0678
      9 C           3.9480   -1.5626   24.4394 C.2     1  UNL1        0.1894
     10 C           4.6018   -2.5537   23.5227 C.2     1  UNL1        0.0495
     11 C           4.3182   -2.5140   22.0502 C.2     1  UNL1        0.0640
     12 C           3.3809   -1.4832   21.4945 C.2     1  UNL1       -0.0267
     13 C           3.0974   -1.4435   20.0221 C.3     1  UNL1        0.0275
     14 C           2.7271   -0.4921   22.4112 C.3     1  UNL1        0.0899
     15 C           3.0107   -0.5318   23.8836 C.2     1  UNL1        0.1742
     16 N           2.5178    0.3091   25.0237 N.2     1  UNL1       -0.0716
     17 C           4.9720   -3.5051   21.1336 C.1     1  UNL1        0.0999
     18 N           5.6257   -4.4962   20.2169 N.1     1  UNL1       -0.1908
     19 C           2.2954    1.9952   31.8015 C.3     1  UNL1        0.0971
     20 C           3.4599    2.5174   32.5896 C.3     1  UNL1        0.1264
     21 C           2.7276    2.0013   36.9995 C.ar    1  UNL1        0.1593
     22 C           3.5785    1.0567   37.7955 C.ar    1  UNL1        0.1357
     23 N           4.6735    0.2842   37.1216 N.ar    1  UNL1       -0.2392
     24 C           4.9176    0.4562   35.6517 C.ar    1  UNL1        0.0975
     25 C           6.0126   -0.3164   34.9778 C.ar    1  UNL1        0.0255
     26 C           6.2567   -0.1443   33.5078 C.ar    1  UNL1        0.0623
     27 C           5.4058    0.8003   32.7117 C.ar    1  UNL1        0.2611
     28 O           5.6499    0.9723   31.2418 O.2     1  UNL1       -0.2670
     29 N           4.3108    1.5728   33.3856 N.ar    1  UNL1       -0.2926
     30 C           4.0667    1.4008   34.8556 C.ar    1  UNL1        0.0832
     31 C           2.9717    2.1733   35.5296 C.ar    1  UNL1        0.0573
     32 C           1.1880    2.3948   39.0549 C.3     1  UNL1        0.2525
     33 O           1.6327    2.7739   37.6734 O.3     1  UNL1       -0.4698
@<TRIPOS>BOND
     1    32    33    1
     2    33    21    1
     3    21    22   ar
     4    22    23   ar
     5    23    24   ar
     6    24    25   ar
     7    25    26   ar
     8    26    27   ar
     9    27    28    2
    10    27    29   ar
    11    29    20    1
    12    20    19    1
    13    19     1    1
    14     1     2    1
    15     2     3    1
    16     3     4    1
    17     4     7    1
    18     7     8    2
    19     8     9    1
    20     9    10    2
    21    10    11    1
    22    11    17    1
    23    17    18    3
    24    11    12    2
    25    12    13    1
    26    12    14    1
    27    14    15    1
    28    15    16    2
    29     4     5    1
    30     5     6    1
    31    29    30   ar
    32    30    31   ar
    33    31    21   ar
    34    30    24   ar
    35     6     1    1
    36    16     7    1
    37    15     9    1
@<TRIPOS>MOLECULE
*****
 33 37 0 0 0
SMALL
GASTEIGER

@<TRIPOS>ATOM
      1 N           4.6218   -1.7505   24.1534 N.3     1  UNL1       -0.2655
      2 C           3.4663   -0.7964   24.0878 C.3     1  UNL1        0.1132
      3 C           2.9776   -0.1234   25.3361 C.3     1  UNL1        0.1849
      4 N           3.6445   -0.4045   26.6499 N.pl3   1  UNL1       -0.1905
      5 C           4.8000   -1.3586   26.7155 C.3     1  UNL1        0.1849
      6 C           5.2887   -2.0317   25.4673 C.3     1  UNL1        0.1132
      7 C           3.1558    0.2686   27.8982 C.cat   1  UNL1        0.4230
      8 N           3.6638    0.0243   29.2883 N.2     1  UNL1       -0.0678
      9 C           2.8953    0.9088   30.2248 C.2     1  UNL1        0.1894
     10 C           2.9636    1.0962   31.7115 C.2     1  UNL1        0.0495
     11 C           2.0488    2.0746   32.3869 C.2     1  UNL1        0.0640
     12 C           1.0659    2.8655   31.5756 C.2     1  UNL1       -0.0267
     13 C           0.1512    3.8438   32.2510 C.3     1  UNL1        0.0275
     14 C           0.9976    2.6781   30.0889 C.3     1  UNL1        0.0899
     15 C           1.9122    1.6998   29.4135 C.2     1  UNL1        0.1742
     16 N           2.0733    1.3041   27.9756 N.2     1  UNL1       -0.0716
     17 C           2.1171    2.2620   33.8735 C.1     1  UNL1        0.0999
     18 N           2.1854    2.4494   35.3602 N.1     1  UNL1       -0.1908
     19 C           5.1105   -2.4236   22.9051 C.3     1  UNL1        0.0971
     20 C           4.1351   -2.8253   21.8387 C.3     1  UNL1        0.1264
     21 C           1.1518    0.0529   20.0879 C.ar    1  UNL1        0.1593
     22 C           1.3266    0.5531   18.6846 C.ar    1  UNL1        0.1357
     23 N           2.4959    0.0938   17.8649 N.ar    1  UNL1       -0.2392
     24 C           3.4903   -0.8656   18.4485 C.ar    1  UNL1        0.0975
     25 C           4.6596   -1.3248   17.6288 C.ar    1  UNL1        0.0255
     26 C           5.6540   -2.2842   18.2123 C.ar    1  UNL1        0.0623
     27 C           5.4792   -2.7844   19.6157 C.ar    1  UNL1        0.2611
     28 O           6.4737   -3.7438   20.1993 O.2     1  UNL1       -0.2670
     29 N           4.3100   -2.3252   20.4354 N.ar    1  UNL1       -0.2926
     30 C           3.3155   -1.3657   19.8517 C.ar    1  UNL1        0.0832
     31 C           2.1462   -0.9065   20.6714 C.ar    1  UNL1        0.0573
     32 C           0.0127    1.8581   21.5690 C.3     1  UNL1        0.2525
     33 O          -0.0174    0.5122   20.9076 O.3     1  UNL1       -0.4698
@<TRIPOS>BOND
     1    32    33    1
     2    33    21    1
     3    21    22   ar
     4    22    23   ar
     5    23    24   ar
     6    24    25   ar
     7    25    26   ar
     8    26    27   ar
     9    27    28    2
    10    27    29   ar
    11    29    20    1
    12    20    19    1
    13    19     1    1
    14     1     2    1
    15     2     3    1
    16     3     4    1
    17     4     7    1
    18     7     8    2
    19     8     9    1
    20     9    10    2
    21    10    11    1
    22    11    17    1
    23    17    18    3
    24    11    12    2
    25    12    13    1
    26    12    14    1
    27    14    15    1
    28    15    16    2
    29     4     5    1
    30     5     6    1
    31    29    30   ar
    32    30    31   ar
    33    31    21   ar
    34    30    24   ar
    35     6     1    1
    36    16     7    1
    37    15     9    1
@<TRIPOS>MOLECULE
*****
 33 37 0 0 0
SMALL
GASTEIGER

@<TRIPOS>ATOM
      1 N           2.0400    1.4130   30.3720 N.3     1  UNL1       -0.2655
      2 C           2.1152   -0.0041   29.8860 C.3     1  UNL1        0.1132
      3 C           2.1656   -0.2906   28.4145 C.3     1  UNL1        0.1849
      4 N           2.1409    0.8400   27.4291 N.pl3   1  UNL1       -0.1905
      5 C           2.0657    2.2571   27.9151 C.3     1  UNL1        0.1849
      6 C           2.0153    2.5436   29.3866 C.3     1  UNL1        0.1132
      7 C           2.1913    0.5535   25.9575 C.cat   1  UNL1        0.4230
      8 N           1.3617    1.2203   24.9005 N.2     1  UNL1       -0.0678
      9 C           1.7378    0.6288   23.5744 C.2     1  UNL1        0.1894
     10 C           1.2505    0.8969   22.1813 C.2     1  UNL1        0.0495
     11 C           1.8252    0.1326   21.0256 C.2     1  UNL1        0.0640
     12 C           2.8873   -0.8997   21.2630 C.2     1  UNL1       -0.0267
     13 C           3.4620   -1.6639   20.1073 C.3     1  UNL1        0.0275
     14 C           3.3747   -1.1677   22.6560 C.3     1  UNL1        0.0899
     15 C           2.8000   -0.4035   23.8117 C.2     1  UNL1        0.1742
     16 N           3.0802   -0.4500   25.2846 N.2     1  UNL1       -0.0716
     17 C           1.3378    0.4006   19.6325 C.1     1  UNL1        0.0999
     18 N           0.8505    0.6687   18.2395 N.1     1  UNL1       -0.1908
     19 C           1.9896    1.6994   31.8436 C.3     1  UNL1        0.0971
     20 C           3.1929    2.2632   32.5396 C.3     1  UNL1        0.1264
     21 C           2.7804    1.9542   37.0100 C.ar    1  UNL1        0.1593
     22 C           3.6903    1.0491   37.7863 C.ar    1  UNL1        0.1357
     23 N           4.7378    0.2470   37.0726 N.ar    1  UNL1       -0.2392
     24 C           4.8753    0.3500   35.5825 C.ar    1  UNL1        0.0975
     25 C           5.9227   -0.4522   34.8687 C.ar    1  UNL1        0.0255
     26 C           6.0603   -0.3492   33.3786 C.ar    1  UNL1        0.0623
     27 C           5.1503    0.5559   32.6022 C.ar    1  UNL1        0.2611
     28 O           5.2878    0.6589   31.1121 O.2     1  UNL1       -0.2670
     29 N           4.1028    1.3581   33.3159 N.ar    1  UNL1       -0.2926
     30 C           3.9653    1.2550   34.8061 C.ar    1  UNL1        0.0832
     31 C           2.9179    2.0572   35.5199 C.ar    1  UNL1        0.0573
     32 C           1.3430    2.4004   39.1277 C.3     1  UNL1        0.2525
     33 O           1.7329    2.7563   37.7237 O.3     1  UNL1       -0.4698
@<TRIPOS>BOND
     1    32    33    1
     2    33    21    1
     3    21    22   ar
     4    22    23   ar
     5    23    24   ar
     6    24    25   ar
     7    25    26   ar
     8    26    27   ar
     9    27    28    2
    10    27    29   ar
    11    29    20    1
    12    20    19    1
    13    19     1    1
    14     1     2    1
    15     2     3    1
    16     3     4    1
    17     4     7    1
    18     7     8    2
    19     8     9    1
    20     9    10    2
    21    10    11    1
    22    11    17    1
    23    17    18    3
    24    11    12    2
    25    12    13    1
    26    12    14    1
    27    14    15    1
    28    15    16    2
    29     4     5    1
    30     5     6    1
    31    29    30   ar
    32    30    31   ar
    33    31    21   ar
    34    30    24   ar
    35     6     1    1
    36    16     7    1
    37    15     9    1
@<TRIPOS>MOLECULE
*****
 33 37 0 0 0
SMALL
GASTEIGER

@<TRIPOS>ATOM
      1 N           1.7804    1.6340   30.6372 N.3     1  UNL1       -0.2655
      2 C           0.9489    1.9738   29.4359 C.3     1  UNL1        0.1132
      3 C           1.3097    1.4148   28.0916 C.3     1  UNL1        0.1849
      4 N           2.5021    0.5161   27.9485 N.pl3   1  UNL1       -0.1905
      5 C           3.3336    0.1763   29.1498 C.3     1  UNL1        0.1849
      6 C           2.9728    0.7353   30.4942 C.3     1  UNL1        0.1132
      7 C           2.8630   -0.0430   26.6041 C.cat   1  UNL1        0.4230
      8 N           3.8350   -1.1554   26.3438 N.2     1  UNL1       -0.0678
      9 C           3.8879   -1.3876   24.8629 C.2     1  UNL1        0.1894
     10 C           4.6700   -2.3562   24.0261 C.2     1  UNL1        0.0495
     11 C           4.5129   -2.3558   22.5343 C.2     1  UNL1        0.0640
     12 C           3.5736   -1.3870   21.8794 C.2     1  UNL1       -0.0267
     13 C           3.4164   -1.3867   20.3877 C.3     1  UNL1        0.0275
     14 C           2.7914   -0.4184   22.7161 C.3     1  UNL1        0.0899
     15 C           2.9485   -0.4187   24.2078 C.2     1  UNL1        0.1742
     16 N           2.3151    0.4123   25.2840 N.2     1  UNL1       -0.0716
     17 C           5.2950   -3.3244   21.6976 C.1     1  UNL1        0.0999
     18 N           6.0772   -4.2929   20.8608 N.1     1  UNL1       -0.1908
     19 C           1.4196    2.1931   31.9816 C.3     1  UNL1        0.0971
     20 C           2.3954    3.0611   32.7194 C.3     1  UNL1        0.1264
     21 C           4.6307   -0.1223   34.9820 C.ar    1  UNL1        0.1593
     22 C           4.6391   -0.1105   36.4819 C.ar    1  UNL1        0.1357
     23 N           3.9024    0.9624   37.2276 N.ar    1  UNL1       -0.2392
     24 C           3.1573    2.0235   36.4734 C.ar    1  UNL1        0.0975
     25 C           2.4205    3.0964   37.2192 C.ar    1  UNL1        0.0255
     26 C           1.6754    4.1575   36.4650 C.ar    1  UNL1        0.0623
     27 C           1.6670    4.1458   34.9650 C.ar    1  UNL1        0.2611
     28 O           0.9219    5.2069   34.2109 O.2     1  UNL1       -0.2670
     29 N           2.4037    3.0729   34.2193 N.ar    1  UNL1       -0.2926
     30 C           3.1489    2.0117   34.9735 C.ar    1  UNL1        0.0832
     31 C           3.8856    0.9388   34.2278 C.ar    1  UNL1        0.0573
     32 C           4.6071   -2.2022   33.4253 C.3     1  UNL1        0.2525
     33 O           5.3675   -1.1951   34.2362 O.3     1  UNL1       -0.4698
@<TRIPOS>BOND
     1    32    33    1
     2    33    21    1
     3    21    22   ar
     4    22    23   ar
     5    23    24   ar
     6    24    25   ar
     7    25    26   ar
     8    26    27   ar
     9    27    28    2
    10    27    29   ar
    11    29    20    1
    12    20    19    1
    13    19     1    1
    14     1     2    1
    15     2     3    1
    16     3     4    1
    17     4     7    1
    18     7     8    2
    19     8     9    1
    20     9    10    2
    21    10    11    1
    22    11    17    1
    23    17    18    3
    24    11    12    2
    25    12    13    1
    26    12    14    1
    27    14    15    1
    28    15    16    2
    29     4     5    1
    30     5     6    1
    31    29    30   ar
    32    30    31   ar
    33    31    21   ar
    34    30    24   ar
    35     6     1    1
    36    16     7    1
    37    15     9    1
