@<TRIPOS>MOLECULE
*****
 30 32 0 0 0
SMALL
GASTEIGER

@<TRIPOS>ATOM
      1 C          -5.7116  -17.5986   22.9353 C.ar    1  UNL1        0.0942
      2 C          -5.9520  -16.4756   23.9003 C.ar    1  UNL1        0.1078
      3 N          -7.3513  -16.1300   24.3153 N.ar    1  UNL1       -0.2119
      4 C          -8.5104  -16.9073   23.7653 C.ar    1  UNL1        0.2206
      5 N          -8.2700  -18.0302   22.8003 N.ar    1  UNL1       -0.2094
      6 C          -6.8705  -18.3759   22.3853 C.ar    1  UNL1        0.1613
      7 O          -3.2895  -16.8595   22.3544 O.2     1  UNL1       -0.2700
      8 C          -4.3122  -17.9442   22.5204 C.2     1  UNL1        0.2488
      9 N          -3.9354  -19.3747   22.2714 N.am    1  UNL1       -0.3008
     10 H          -4.6066  -20.0866   22.3804 H       1  UNL1        0.1497
     11 C          -2.5360  -19.7204   21.8564 C.3     1  UNL1        0.0896
     12 C          -1.8962  -19.0027   20.7050 C.3     1  UNL1        0.0196
     13 C          -2.6582  -18.8040   19.4284 C.3     1  UNL1        0.0017
     14 C          -2.0184  -18.0864   18.2770 C.3     1  UNL1        0.0001
     15 C          -0.6166  -17.5674   18.4024 C.3     1  UNL1        0.0000
     16 C           0.1453  -17.7660   19.6791 C.3     1  UNL1        0.0001
     17 C          -0.4945  -18.4837   20.8304 C.3     1  UNL1        0.0017
     18 C          -6.6301  -19.4988   21.4203 C.3     1  UNL1        0.4351
     19 F          -6.3897  -20.6218   20.4554 F       1  UNL1       -0.1644
     20 F          -6.4435  -18.5060   20.3115 F       1  UNL1       -0.1644
     21 F          -6.8167  -20.4916   22.5292 F       1  UNL1       -0.1644
     22 N          -9.9098  -16.5616   24.1802 N.pl3   1  UNL1       -0.2825
     23 H         -10.0745  -16.1453   25.0570 H       1  UNL1        0.1551
     24 C         -11.0581  -16.8503   23.2593 C.ar    1  UNL1        0.0513
     25 C         -12.1525  -17.7795   23.6938 C.ar    1  UNL1        0.0147
     26 C         -13.3009  -18.0682   22.7729 C.ar    1  UNL1        0.0021
     27 C         -13.3547  -17.4277   21.4176 C.ar    1  UNL1        0.0115
     28 C         -12.2603  -16.4986   20.9832 C.ar    1  UNL1        0.0589
     29 CL        -12.3141  -15.8580   19.6278 Cl      1  UNL1       -0.0822
     30 C         -11.1119  -16.2099   21.9041 C.ar    1  UNL1        0.0261
@<TRIPOS>BOND
     1     7     8    2
     2     8     9   am
     3     9    11    1
     4    11    12    1
     5    12    13    1
     6    13    14    1
     7    14    15    1
     8    15    16    1
     9    16    17    1
    10     8     1    1
    11     1     2   ar
    12     2     3   ar
    13     3     4   ar
    14     4    22    1
    15    22    24    1
    16    24    25   ar
    17    25    26   ar
    18    26    27   ar
    19    27    28   ar
    20    28    29    1
    21    28    30   ar
    22     4     5   ar
    23     5     6   ar
    24     6    18    1
    25    18    19    1
    26    18    20    1
    27    18    21    1
    28    17    12    1
    29     6     1   ar
    30    30    24   ar
    31     9    10    1
    32    22    23    1
@<TRIPOS>MOLECULE
*****
 30 32 0 0 0
SMALL
GASTEIGER

@<TRIPOS>ATOM
      1 C           6.1926   -2.4602   19.3150 C.ar    1  UNL1        0.0942
      2 C           7.6021   -2.0395   19.6086 C.ar    1  UNL1        0.1078
      3 N           8.5149   -2.9546   20.3698 N.ar    1  UNL1       -0.2119
      4 C           8.0181   -4.2905   20.8375 C.ar    1  UNL1        0.2206
      5 N           6.6085   -4.7112   20.5439 N.ar    1  UNL1       -0.2094
      6 C           5.6958   -3.7961   19.7826 C.ar    1  UNL1        0.1613
      7 O           5.0478   -1.7662   17.0884 O.2     1  UNL1       -0.2700
      8 C           5.2799   -1.5451   18.5538 C.2     1  UNL1        0.2488
      9 N           4.5991   -0.4090   19.2579 N.am    1  UNL1       -0.3008
     10 H           4.7514   -0.2639   20.2197 H       1  UNL1        0.1497
     11 C           3.6864    0.5061   18.4967 C.3     1  UNL1        0.0896
     12 C           2.3750    0.9238   19.0933 C.3     1  UNL1        0.0196
     13 C           1.8732    2.3235   18.8961 C.3     1  UNL1        0.0017
     14 C           0.5619    2.7411   19.4927 C.3     1  UNL1        0.0001
     15 C          -0.2477    1.7590   20.2864 C.3     1  UNL1        0.0000
     16 C           0.2541    0.3593   20.4836 C.3     1  UNL1        0.0001
     17 C           1.5654   -0.0583   19.8870 C.3     1  UNL1        0.0017
     18 C           4.2863   -4.2168   19.4890 C.3     1  UNL1        0.4351
     19 F           2.8767   -4.6375   19.1954 F       1  UNL1       -0.1644
     20 F           4.7626   -4.9709   18.2830 F       1  UNL1       -0.1644
     21 F           3.8100   -3.4627   20.6950 F       1  UNL1       -0.1644
     22 N           8.9308   -5.2056   21.5987 N.pl3   1  UNL1       -0.2825
     23 H           9.7966   -5.4705   21.2121 H       1  UNL1        0.1551
     24 C           8.5245   -5.7170   22.9490 C.ar    1  UNL1        0.0513
     25 C           8.8028   -7.1418   23.3262 C.ar    1  UNL1        0.0147
     26 C           8.3964   -7.6533   24.6765 C.ar    1  UNL1        0.0021
     27 C           7.7118   -6.7399   25.6496 C.ar    1  UNL1        0.0115
     28 C           7.4334   -5.3150   25.2724 C.ar    1  UNL1        0.0589
     29 CL          6.7487   -4.4016   26.2454 Cl      1  UNL1       -0.0822
     30 C           7.8398   -4.8036   23.9221 C.ar    1  UNL1        0.0261
@<TRIPOS>BOND
     1     7     8    2
     2     8     9   am
     3     9    11    1
     4    11    12    1
     5    12    13    1
     6    13    14    1
     7    14    15    1
     8    15    16    1
     9    16    17    1
    10     8     1    1
    11     1     2   ar
    12     2     3   ar
    13     3     4   ar
    14     4    22    1
    15    22    24    1
    16    24    25   ar
    17    25    26   ar
    18    26    27   ar
    19    27    28   ar
    20    28    29    1
    21    28    30   ar
    22     4     5   ar
    23     5     6   ar
    24     6    18    1
    25    18    19    1
    26    18    20    1
    27    18    21    1
    28    17    12    1
    29     6     1   ar
    30    30    24   ar
    31     9    10    1
    32    22    23    1
@<TRIPOS>MOLECULE
*****
 30 32 0 0 0
SMALL
GASTEIGER

@<TRIPOS>ATOM
      1 C           7.1013   -3.1755   20.8279 C.ar    1  UNL1        0.0942
      2 C           8.4515   -3.6611   20.3908 C.ar    1  UNL1        0.1078
      3 N           9.1765   -4.6930   21.2030 N.ar    1  UNL1       -0.2119
      4 C           8.5512   -5.2393   22.4523 C.ar    1  UNL1        0.2206
      5 N           7.2010   -4.7536   22.8893 N.ar    1  UNL1       -0.2094
      6 C           6.4760   -3.7217   22.0771 C.ar    1  UNL1        0.1613
      7 O           6.5992   -0.6849   20.2849 O.2     1  UNL1       -0.2700
      8 C           6.3763   -2.1436   20.0157 C.2     1  UNL1        0.2488
      9 N           5.4285   -2.5705   18.9342 N.am    1  UNL1       -0.3008
     10 H           5.2822   -3.5279   18.7575 H       1  UNL1        0.1497
     11 C           4.7035   -1.5386   18.1221 C.3     1  UNL1        0.0896
     12 C           3.4297   -0.9373   18.6378 C.3     1  UNL1        0.0196
     13 C           2.7910    0.2068   17.9078 C.3     1  UNL1        0.0017
     14 C           1.5173    0.8080   18.4235 C.3     1  UNL1        0.0001
     15 C           0.8822    0.2651   19.6693 C.3     1  UNL1        0.0000
     16 C           1.5209   -0.8791   20.3993 C.3     1  UNL1        0.0001
     17 C           2.7946   -1.4803   19.8835 C.3     1  UNL1        0.0017
     18 C           5.1258   -3.2361   22.5141 C.3     1  UNL1        0.4351
     19 F           3.7755   -2.7505   22.9512 F       1  UNL1       -0.1644
     20 F           4.4744   -4.3140   21.6994 F       1  UNL1       -0.1644
     21 F           5.7772   -2.1581   23.3288 F       1  UNL1       -0.1644
     22 N           9.2761   -6.2711   23.2644 N.pl3   1  UNL1       -0.2825
     23 H          10.0176   -6.7805   22.8645 H       1  UNL1        0.1551
     24 C           8.8713   -6.5269   24.6860 C.ar    1  UNL1        0.0513
     25 C           7.9832   -7.6900   25.0152 C.ar    1  UNL1        0.0147
     26 C           7.5784   -7.9458   26.4367 C.ar    1  UNL1        0.0021
     27 C           8.0617   -7.0385   27.5290 C.ar    1  UNL1        0.0115
     28 C           8.9498   -5.8754   27.1998 C.ar    1  UNL1        0.0589
     29 CL          9.4332   -4.9681   28.2921 Cl      1  UNL1       -0.0822
     30 C           9.3546   -5.6196   25.7783 C.ar    1  UNL1        0.0261
@<TRIPOS>BOND
     1     7     8    2
     2     8     9   am
     3     9    11    1
     4    11    12    1
     5    12    13    1
     6    13    14    1
     7    14    15    1
     8    15    16    1
     9    16    17    1
    10     8     1    1
    11     1     2   ar
    12     2     3   ar
    13     3     4   ar
    14     4    22    1
    15    22    24    1
    16    24    25   ar
    17    25    26   ar
    18    26    27   ar
    19    27    28   ar
    20    28    29    1
    21    28    30   ar
    22     4     5   ar
    23     5     6   ar
    24     6    18    1
    25    18    19    1
    26    18    20    1
    27    18    21    1
    28    17    12    1
    29     6     1   ar
    30    30    24   ar
    31     9    10    1
    32    22    23    1
@<TRIPOS>MOLECULE
*****
 30 32 0 0 0
SMALL
GASTEIGER

@<TRIPOS>ATOM
      1 C          -8.9562  -19.5237   20.8743 C.ar    1  UNL1        0.0942
      2 C          -8.4638  -19.7576   19.4768 C.ar    1  UNL1        0.1078
      3 N          -7.0161  -20.0653   19.2334 N.ar    1  UNL1       -0.2119
      4 C          -6.0606  -20.1392   20.3874 C.ar    1  UNL1        0.2206
      5 N          -6.5530  -19.9054   21.7848 N.ar    1  UNL1       -0.2094
      6 C          -8.0008  -19.5976   22.0283 C.ar    1  UNL1        0.1613
      7 O         -11.4070  -20.3294   21.1814 O.2     1  UNL1       -0.2700
      8 C         -10.4039  -19.2159   21.1178 C.2     1  UNL1        0.2488
      9 N         -10.8486  -17.7947   21.2976 N.am    1  UNL1       -0.3008
     10 H         -10.1903  -17.0639   21.2559 H       1  UNL1        0.1497
     11 C         -12.2963  -17.4869   21.5411 C.3     1  UNL1        0.0896
     12 C         -12.9354  -17.8680   22.8436 C.3     1  UNL1        0.0196
     13 C         -14.4301  -17.8875   22.9683 C.3     1  UNL1        0.0017
     14 C         -15.0691  -18.2686   24.2708 C.3     1  UNL1        0.0001
     15 C         -14.2134  -18.6302   25.4485 C.3     1  UNL1        0.0000
     16 C         -12.7187  -18.6107   25.3238 C.3     1  UNL1        0.0001
     17 C         -12.0798  -18.2297   24.0214 C.3     1  UNL1        0.0017
     18 C          -8.4932  -19.3638   23.4257 C.3     1  UNL1        0.4351
     19 F          -8.9855  -19.1299   24.8232 F       1  UNL1       -0.1644
     20 F          -8.1999  -17.8996   23.2840 F       1  UNL1       -0.1644
     21 F          -8.7864  -20.8280   23.5674 F       1  UNL1       -0.1644
     22 N          -4.6129  -20.4470   20.1439 N.pl3   1  UNL1       -0.2825
     23 H          -4.3237  -21.3782   20.0080 H       1  UNL1        0.1551
     24 C          -3.6058  -19.3360   20.1076 C.ar    1  UNL1        0.0513
     25 C          -2.7816  -19.1108   18.8747 C.ar    1  UNL1        0.0147
     26 C          -1.7745  -17.9998   18.8383 C.ar    1  UNL1        0.0021
     27 C          -1.5915  -17.1140   20.0349 C.ar    1  UNL1        0.0115
     28 C          -2.4156  -17.3392   21.2677 C.ar    1  UNL1        0.0589
     29 CL         -2.2326  -16.4533   22.4644 Cl      1  UNL1       -0.0822
     30 C          -3.4228  -18.4502   21.3041 C.ar    1  UNL1        0.0261
@<TRIPOS>BOND
     1     7     8    2
     2     8     9   am
     3     9    11    1
     4    11    12    1
     5    12    13    1
     6    13    14    1
     7    14    15    1
     8    15    16    1
     9    16    17    1
    10     8     1    1
    11     1     2   ar
    12     2     3   ar
    13     3     4   ar
    14     4    22    1
    15    22    24    1
    16    24    25   ar
    17    25    26   ar
    18    26    27   ar
    19    27    28   ar
    20    28    29    1
    21    28    30   ar
    22     4     5   ar
    23     5     6   ar
    24     6    18    1
    25    18    19    1
    26    18    20    1
    27    18    21    1
    28    17    12    1
    29     6     1   ar
    30    30    24   ar
    31     9    10    1
    32    22    23    1
@<TRIPOS>MOLECULE
*****
 30 32 0 0 0
SMALL
GASTEIGER

@<TRIPOS>ATOM
      1 C         -13.5132   -0.7254   18.5132 C.ar    1  UNL1        0.0942
      2 C         -13.3198    0.7368   18.2404 C.ar    1  UNL1        0.1078
      3 N         -14.3675    1.7236   18.6627 N.ar    1  UNL1       -0.2119
      4 C         -15.6088    1.2481   19.3579 C.ar    1  UNL1        0.2206
      5 N         -15.8022   -0.2141   19.6307 N.ar    1  UNL1       -0.2094
      6 C         -14.7544   -1.2009   19.2083 C.ar    1  UNL1        0.1613
      7 O         -12.4699   -2.2592   16.6941 O.2     1  UNL1       -0.2700
      8 C         -12.4654   -1.7122   18.0908 C.2     1  UNL1        0.2488
      9 N         -11.4132   -2.1520   19.0652 N.am    1  UNL1       -0.3008
     10 H         -11.4102   -1.7930   19.9819 H       1  UNL1        0.1497
     11 C         -10.3654   -3.1388   18.6428 C.3     1  UNL1        0.0896
     12 C         -10.6701   -4.6075   18.6546 C.3     1  UNL1        0.0196
     13 C         -12.0361   -5.0870   19.0473 C.3     1  UNL1        0.0017
     14 C         -12.3408   -6.5556   19.0591 C.3     1  UNL1        0.0001
     15 C         -11.2795   -7.5448   18.6781 C.3     1  UNL1        0.0000
     16 C          -9.9135   -7.0654   18.2854 C.3     1  UNL1        0.0001
     17 C          -9.6089   -5.5967   18.2736 C.3     1  UNL1        0.0017
     18 C         -14.9478   -2.6631   19.4811 C.3     1  UNL1        0.4351
     19 F         -15.1413   -4.1254   19.7539 F       1  UNL1       -0.1644
     20 F         -14.2487   -2.5097   20.7993 F       1  UNL1       -0.1644
     21 F         -15.6470   -2.8166   18.1629 F       1  UNL1       -0.1644
     22 N         -16.6566    2.2349   19.7803 N.pl3   1  UNL1       -0.2825
     23 H         -17.3364    2.5373   19.1356 H       1  UNL1        0.1551
     24 C         -16.6686    2.7610   21.1850 C.ar    1  UNL1        0.0513
     25 C         -17.4614    2.0539   22.2439 C.ar    1  UNL1        0.0147
     26 C         -17.4735    2.5800   23.6486 C.ar    1  UNL1        0.0021
     27 C         -16.6927    3.8131   23.9943 C.ar    1  UNL1        0.0115
     28 C         -15.8998    4.5202   22.9354 C.ar    1  UNL1        0.0589
     29 CL        -15.1189    5.7535   23.2811 Cl      1  UNL1       -0.0822
     30 C         -15.8878    3.9942   21.5307 C.ar    1  UNL1        0.0261
@<TRIPOS>BOND
     1     7     8    2
     2     8     9   am
     3     9    11    1
     4    11    12    1
     5    12    13    1
     6    13    14    1
     7    14    15    1
     8    15    16    1
     9    16    17    1
    10     8     1    1
    11     1     2   ar
    12     2     3   ar
    13     3     4   ar
    14     4    22    1
    15    22    24    1
    16    24    25   ar
    17    25    26   ar
    18    26    27   ar
    19    27    28   ar
    20    28    29    1
    21    28    30   ar
    22     4     5   ar
    23     5     6   ar
    24     6    18    1
    25    18    19    1
    26    18    20    1
    27    18    21    1
    28    17    12    1
    29     6     1   ar
    30    30    24   ar
    31     9    10    1
    32    22    23    1
@<TRIPOS>MOLECULE
*****
 30 32 0 0 0
SMALL
GASTEIGER

@<TRIPOS>ATOM
      1 C          -8.0343  -19.4445   21.1417 C.ar    1  UNL1        0.0942
      2 C          -7.1247  -19.1306   22.2924 C.ar    1  UNL1        0.1078
      3 N          -5.6635  -19.4577   22.2043 N.ar    1  UNL1       -0.2119
      4 C          -5.1118  -20.0987   20.9654 C.ar    1  UNL1        0.2206
      5 N          -6.0213  -20.4126   19.8147 N.ar    1  UNL1       -0.2094
      6 C          -7.4826  -20.0855   19.9028 C.ar    1  UNL1        0.1613
      7 O         -10.5183  -20.2008   21.0571 O.2     1  UNL1       -0.2700
      8 C          -9.4955  -19.1173   21.2298 C.2     1  UNL1        0.2488
      9 N          -9.9339  -17.7067   21.4907 N.am    1  UNL1       -0.3008
     10 H          -9.2625  -16.9956   21.6040 H       1  UNL1        0.1497
     11 C         -11.3951  -17.3796   21.5788 C.3     1  UNL1        0.0896
     12 C         -12.1830  -17.7860   22.7888 C.3     1  UNL1        0.0196
     13 C         -11.4832  -18.3822   23.9740 C.3     1  UNL1        0.0017
     14 C         -12.2712  -18.7886   25.1839 C.3     1  UNL1        0.0001
     15 C         -13.7589  -18.5987   25.2087 C.3     1  UNL1        0.0000
     16 C         -14.4587  -18.0025   24.0235 C.3     1  UNL1        0.0001
     17 C         -13.6708  -17.5961   22.8135 C.3     1  UNL1        0.0017
     18 C          -8.3922  -20.3993   18.7521 C.3     1  UNL1        0.4351
     19 F          -9.3018  -20.7132   17.6014 F       1  UNL1       -0.1644
     20 F          -7.9784  -21.8396   18.8179 F       1  UNL1       -0.1644
     21 F          -8.8060  -18.9590   18.6863 F       1  UNL1       -0.1644
     22 N          -3.6506  -20.4258   20.8773 N.pl3   1  UNL1       -0.2825
     23 H          -3.3337  -21.3292   21.1068 H       1  UNL1        0.1551
     24 C          -2.6721  -19.3765   20.4395 C.ar    1  UNL1        0.0513
     25 C          -1.7076  -18.7914   21.4280 C.ar    1  UNL1        0.0147
     26 C          -0.7292  -17.7421   20.9902 C.ar    1  UNL1        0.0021
     27 C          -0.7153  -17.2779   19.5640 C.ar    1  UNL1        0.0115
     28 C          -1.6799  -17.8630   18.5755 C.ar    1  UNL1        0.0589
     29 CL         -1.6661  -17.3988   17.1491 Cl      1  UNL1       -0.0822
     30 C          -2.6583  -18.9123   19.0132 C.ar    1  UNL1        0.0261
@<TRIPOS>BOND
     1     7     8    2
     2     8     9   am
     3     9    11    1
     4    11    12    1
     5    12    13    1
     6    13    14    1
     7    14    15    1
     8    15    16    1
     9    16    17    1
    10     8     1    1
    11     1     2   ar
    12     2     3   ar
    13     3     4   ar
    14     4    22    1
    15    22    24    1
    16    24    25   ar
    17    25    26   ar
    18    26    27   ar
    19    27    28   ar
    20    28    29    1
    21    28    30   ar
    22     4     5   ar
    23     5     6   ar
    24     6    18    1
    25    18    19    1
    26    18    20    1
    27    18    21    1
    28    17    12    1
    29     6     1   ar
    30    30    24   ar
    31     9    10    1
    32    22    23    1
@<TRIPOS>MOLECULE
*****
 30 32 0 0 0
SMALL
GASTEIGER

@<TRIPOS>ATOM
      1 C          -7.0201  -16.9541   23.0382 C.ar    1  UNL1        0.0942
      2 C          -5.9432  -16.0805   23.6102 C.ar    1  UNL1        0.1078
      3 N          -4.5033  -16.4777   23.4728 N.ar    1  UNL1       -0.2119
      4 C          -4.1402  -17.7485   22.7634 C.ar    1  UNL1        0.2206
      5 N          -5.2171  -18.6222   22.1915 N.ar    1  UNL1       -0.2094
      6 C          -6.6570  -18.2249   22.3289 C.ar    1  UNL1        0.1613
      7 O          -8.9440  -15.9177   24.4433 O.2     1  UNL1       -0.2700
      8 C          -8.4599  -16.5569   23.1756 C.2     1  UNL1        0.2488
      9 N          -9.4159  -16.7989   22.0453 N.am    1  UNL1       -0.3008
     10 H          -9.0982  -17.2185   21.2132 H       1  UNL1        0.1497
     11 C         -10.8558  -16.4017   22.1827 C.3     1  UNL1        0.0896
     12 C         -11.7705  -17.1923   23.0706 C.3     1  UNL1        0.0196
     13 C         -11.2028  -18.2035   24.0220 C.3     1  UNL1        0.0017
     14 C         -12.1175  -18.9940   24.9099 C.3     1  UNL1        0.0001
     15 C         -13.5998  -18.7734   24.8464 C.3     1  UNL1        0.0000
     16 C         -14.1675  -17.7622   23.8949 C.3     1  UNL1        0.0001
     17 C         -13.2528  -16.9717   23.0071 C.3     1  UNL1        0.0017
     18 C          -7.7339  -19.0985   21.7569 C.3     1  UNL1        0.4351
     19 F          -8.8108  -19.9721   21.1850 F       1  UNL1       -0.1644
     20 F          -7.4033  -18.6044   20.3798 F       1  UNL1       -0.1644
     21 F          -8.0645  -19.5926   23.1341 F       1  UNL1       -0.1644
     22 N          -2.7003  -18.1457   22.6260 N.pl3   1  UNL1       -0.2825
     23 H          -2.2123  -18.5041   23.4023 H       1  UNL1        0.1551
     24 C          -2.0040  -17.9969   21.3058 C.ar    1  UNL1        0.0513
     25 C          -0.5347  -18.2788   21.1969 C.ar    1  UNL1        0.0147
     26 C           0.1616  -18.1301   19.8767 C.ar    1  UNL1        0.0021
     27 C          -0.6112  -17.6994   18.6654 C.ar    1  UNL1        0.0115
     28 C          -2.0804  -17.4174   18.7744 C.ar    1  UNL1        0.0589
     29 CL         -2.8533  -16.9867   17.5631 Cl      1  UNL1       -0.0822
     30 C          -2.7768  -17.5662   20.0945 C.ar    1  UNL1        0.0261
@<TRIPOS>BOND
     1     7     8    2
     2     8     9   am
     3     9    11    1
     4    11    12    1
     5    12    13    1
     6    13    14    1
     7    14    15    1
     8    15    16    1
     9    16    17    1
    10     8     1    1
    11     1     2   ar
    12     2     3   ar
    13     3     4   ar
    14     4    22    1
    15    22    24    1
    16    24    25   ar
    17    25    26   ar
    18    26    27   ar
    19    27    28   ar
    20    28    29    1
    21    28    30   ar
    22     4     5   ar
    23     5     6   ar
    24     6    18    1
    25    18    19    1
    26    18    20    1
    27    18    21    1
    28    17    12    1
    29     6     1   ar
    30    30    24   ar
    31     9    10    1
    32    22    23    1
@<TRIPOS>MOLECULE
*****
 30 32 0 0 0
SMALL
GASTEIGER

@<TRIPOS>ATOM
      1 C         -15.5464   -3.6587   19.2103 C.ar    1  UNL1        0.0942
      2 C         -17.0441   -3.7425   19.2104 C.ar    1  UNL1        0.1078
      3 N         -17.8611   -2.5657   19.6550 N.ar    1  UNL1       -0.2119
      4 C         -17.1804   -1.3051   20.0995 C.ar    1  UNL1        0.2206
      5 N         -15.6827   -1.2213   20.0994 N.ar    1  UNL1       -0.2094
      6 C         -14.8657   -2.3982   19.6548 C.ar    1  UNL1        0.1613
      7 O         -14.6179   -6.0461   19.6444 O.2     1  UNL1       -0.2700
      8 C         -14.7295   -4.8355   18.7657 C.2     1  UNL1        0.2488
      9 N         -14.0240   -4.8018   17.4423 N.am    1  UNL1       -0.3008
     10 H         -14.0972   -4.0072   16.8656 H       1  UNL1        0.1497
     11 C         -13.2070   -5.9785   16.9977 C.3     1  UNL1        0.0896
     12 C         -11.8929   -6.2720   17.6588 C.3     1  UNL1        0.0196
     13 C         -11.2622   -7.6244   17.5066 C.3     1  UNL1        0.0017
     14 C          -9.9481   -7.9178   18.1677 C.3     1  UNL1        0.0001
     15 C          -9.2647   -6.8588   18.9810 C.3     1  UNL1        0.0000
     16 C          -9.8954   -5.5064   19.1332 C.3     1  UNL1        0.0001
     17 C         -11.2095   -5.2130   18.4722 C.3     1  UNL1        0.0017
     18 C         -13.3681   -2.3144   19.6547 C.3     1  UNL1        0.4351
     19 F         -11.8704   -2.2306   19.6546 F       1  UNL1       -0.1644
     20 F         -13.4028   -1.6961   18.2885 F       1  UNL1       -0.1644
     21 F         -13.3334   -2.9328   21.0209 F       1  UNL1       -0.1644
     22 N         -17.9973   -0.1283   20.5441 N.pl3   1  UNL1       -0.2825
     23 H         -18.9667   -0.2271   20.6851 H       1  UNL1        0.1551
     24 C         -17.3374    1.1990   20.7740 C.ar    1  UNL1        0.0513
     25 C         -17.3917    1.8388   22.1295 C.ar    1  UNL1        0.0147
     26 C         -16.7318    3.1661   22.3594 C.ar    1  UNL1        0.0021
     27 C         -16.0177    3.8536   21.2336 C.ar    1  UNL1        0.0115
     28 C         -15.9634    3.2137   19.8780 C.ar    1  UNL1        0.0589
     29 CL        -15.2493    3.9012   18.7522 Cl      1  UNL1       -0.0822
     30 C         -16.6233    1.8864   19.6482 C.ar    1  UNL1        0.0261
@<TRIPOS>BOND
     1     7     8    2
     2     8     9   am
     3     9    11    1
     4    11    12    1
     5    12    13    1
     6    13    14    1
     7    14    15    1
     8    15    16    1
     9    16    17    1
    10     8     1    1
    11     1     2   ar
    12     2     3   ar
    13     3     4   ar
    14     4    22    1
    15    22    24    1
    16    24    25   ar
    17    25    26   ar
    18    26    27   ar
    19    27    28   ar
    20    28    29    1
    21    28    30   ar
    22     4     5   ar
    23     5     6   ar
    24     6    18    1
    25    18    19    1
    26    18    20    1
    27    18    21    1
    28    17    12    1
    29     6     1   ar
    30    30    24   ar
    31     9    10    1
    32    22    23    1
@<TRIPOS>MOLECULE
*****
 30 32 0 0 0
SMALL
GASTEIGER

@<TRIPOS>ATOM
      1 C           0.2068    2.2776   28.4497 C.ar    1  UNL1        0.0942
      2 C           0.8707    3.5136   28.9803 C.ar    1  UNL1        0.1078
      3 N           1.1397    3.6485   30.4498 N.ar    1  UNL1       -0.2119
      4 C           0.7448    2.5473   31.3888 C.ar    1  UNL1        0.2206
      5 N           0.0809    1.3113   30.8582 N.ar    1  UNL1       -0.2094
      6 C          -0.1881    1.1764   29.3886 C.ar    1  UNL1        0.1613
      7 O          -1.4125    2.4941   26.4296 O.2     1  UNL1       -0.2700
      8 C          -0.0622    2.1427   26.9803 C.2     1  UNL1        0.2488
      9 N           1.0191    1.6563   26.0614 N.am    1  UNL1       -0.3008
     10 H           1.9053    1.4256   26.4227 H       1  UNL1        0.1497
     11 C           0.7501    1.5214   24.5919 C.3     1  UNL1        0.0896
     12 C           1.6248    0.6434   23.7467 C.3     1  UNL1        0.0196
     13 C           1.4294    0.5983   22.2602 C.3     1  UNL1        0.0017
     14 C           2.3041   -0.2796   21.4152 C.3     1  UNL1        0.0001
     15 C           3.3741   -1.1124   22.0567 C.3     1  UNL1        0.0000
     16 C           3.5695   -1.0673   23.5432 C.3     1  UNL1        0.0001
     17 C           2.6948   -0.1894   24.3882 C.3     1  UNL1        0.0017
     18 C          -0.8520   -0.0596   28.8580 C.3     1  UNL1        0.4351
     19 F          -1.5159   -1.2956   28.3274 F       1  UNL1       -0.1644
     20 F           0.4925   -0.6863   28.6356 F       1  UNL1       -0.1644
     21 F          -2.1965    0.5671   29.0805 F       1  UNL1       -0.1644
     22 N           1.0138    2.6822   32.8582 N.pl3   1  UNL1       -0.2825
     23 H           0.4202    3.2322   33.4189 H       1  UNL1        0.1551
     24 C           2.1874    1.9791   33.4735 C.ar    1  UNL1        0.0513
     25 C           2.6055    2.3049   34.8767 C.ar    1  UNL1        0.0147
     26 C           3.7790    1.6018   35.4920 C.ar    1  UNL1        0.0021
     27 C           4.5344    0.5730   34.7041 C.ar    1  UNL1        0.0115
     28 C           4.1163    0.2472   33.3009 C.ar    1  UNL1        0.0589
     29 CL          4.8717   -0.7816   32.5129 Cl      1  UNL1       -0.0822
     30 C           2.9427    0.9503   32.6856 C.ar    1  UNL1        0.0261
@<TRIPOS>BOND
     1     7     8    2
     2     8     9   am
     3     9    11    1
     4    11    12    1
     5    12    13    1
     6    13    14    1
     7    14    15    1
     8    15    16    1
     9    16    17    1
    10     8     1    1
    11     1     2   ar
    12     2     3   ar
    13     3     4   ar
    14     4    22    1
    15    22    24    1
    16    24    25   ar
    17    25    26   ar
    18    26    27   ar
    19    27    28   ar
    20    28    29    1
    21    28    30   ar
    22     4     5   ar
    23     5     6   ar
    24     6    18    1
    25    18    19    1
    26    18    20    1
    27    18    21    1
    28    17    12    1
    29     6     1   ar
    30    30    24   ar
    31     9    10    1
    32    22    23    1
