@<TRIPOS>MOLECULE
*****
 34 38 0 0 0
SMALL
GASTEIGER

@<TRIPOS>ATOM
      1 C           8.5310   -7.6059   24.4497 C.3     1  UNL1        0.1287
      2 P           8.0695   -6.6583   25.5168 P.3     1  UNL1        0.3439
      3 O           7.6485   -5.9685   24.2531 O.2     1  UNL1       -0.2577
      4 O           8.6958   -7.7699   26.3057 O.3     1  UNL1       -0.2941
      5 C           8.8279   -7.9012   27.7939 C.3     1  UNL1        0.1514
      6 C           8.3664   -6.9536   28.8612 C.3     1  UNL1        0.0352
      7 C           7.6587   -5.6405   28.7036 C.3     1  UNL1        0.0357
      8 C           8.0359   -6.2439   30.0240 C.3     1  UNL1        0.0028
      9 C           7.7055   -5.5256   31.2987 C.3     1  UNL1        0.0021
     10 C           6.9978   -4.2037   31.2529 C.3     1  UNL1        0.0268
     11 C           6.6206   -3.6003   29.9325 C.3     1  UNL1        0.1420
     12 C           5.9130   -2.2786   29.8867 C.ar    1  UNL1        0.0616
     13 C           5.5825   -1.5601   31.1614 C.ar    1  UNL1        0.1407
     14 F           5.8035   -1.8607   32.6143 F       1  UNL1       -0.2043
     15 C           4.8749   -0.2384   31.1156 C.ar    1  UNL1        0.0319
     16 C           4.4977    0.3650   29.7952 C.ar    1  UNL1        0.0351
     17 C           4.8281   -0.3533   28.5205 C.ar    1  UNL1        0.1737
     18 F           4.4509    0.2502   27.2001 F       1  UNL1       -0.2010
     19 C           5.5358   -1.6751   28.5663 C.ar    1  UNL1        0.1654
     20 O           5.8662   -2.3934   27.2916 O.3     1  UNL1       -0.4733
     21 C           6.5739   -3.7152   27.3373 C.3     1  UNL1        0.2075
     22 C           6.9511   -4.3187   28.6578 C.3     1  UNL1        0.0709
     23 C           7.2378   -4.9507   27.4398 C.3     1  UNL1        0.1515
     24 O           7.4206   -5.4036   26.0217 O.3     1  UNL1       -0.2941
     25 S           6.2901   -2.8819   31.2072 S.O2    1  UNL1        0.0093
     26 O           5.6864   -3.1594   31.6475 O.2     1  UNL1       -0.1684
     27 O           7.2883   -1.7636   31.2627 O.2     1  UNL1       -0.1684
     28 C           5.9597   -2.1636   32.4818 C.ar    1  UNL1        0.1059
     29 C           4.6163   -2.3515   33.1220 C.ar    1  UNL1        0.0192
     30 C           4.2858   -1.6331   34.3967 C.ar    1  UNL1        0.0127
     31 C           5.2988   -0.7268   35.0311 C.ar    1  UNL1        0.0578
     32 CL          4.9684   -0.0083   36.3057 Cl      1  UNL1       -0.0822
     33 C           6.6422   -0.5388   34.3908 C.ar    1  UNL1        0.0127
     34 C           6.9727   -1.2572   33.1161 C.ar    1  UNL1        0.0192
@<TRIPOS>BOND
     1     1     2    1
     2     2     3    2
     3     2     4    1
     4     4     5    1
     5     5     6    1
     6     7     6    1
     7     7     8    1
     8     8     9    1
     9     9    10    1
    10    10    11    1
    11    11    25    1
    12    25    26    2
    13    25    27    2
    14    25    28    1
    15    28    29   ar
    16    29    30   ar
    17    30    31   ar
    18    31    32    1
    19    31    33   ar
    20    33    34   ar
    21    11    12    1
    22    12    13   ar
    23    13    14    1
    24    13    15   ar
    25    15    16   ar
    26    16    17   ar
    27    17    18    1
    28    17    19   ar
    29    19    20    1
    30    20    21    1
    31    22    21    1
    32     7    23    1
    33    23    24    1
    34    24     2    1
    35    22     7    1
    36    22    11    1
    37    34    28   ar
    38    19    12   ar
@<TRIPOS>MOLECULE
*****
 34 38 0 0 0
SMALL
GASTEIGER

@<TRIPOS>ATOM
      1 C           8.0349   -5.2020   27.9248 C.3     1  UNL1        0.1287
      2 P           7.3027   -4.5952   26.7648 P.3     1  UNL1        0.3439
      3 O           7.9008   -5.8356   26.1701 O.2     1  UNL1       -0.2577
      4 O           7.0305   -3.6248   27.8759 O.3     1  UNL1       -0.2941
      5 C           6.2251   -2.3601   27.8365 C.3     1  UNL1        0.1514
      6 C           5.4929   -1.7532   26.6765 C.3     1  UNL1        0.0352
      7 C           5.3853   -2.2614   25.2693 C.3     1  UNL1        0.0357
      8 C           4.7430   -0.9991   25.7633 C.3     1  UNL1        0.0028
      9 C           3.9299   -0.1551   24.8270 C.3     1  UNL1        0.0021
     10 C           3.7590   -0.5736   23.3966 C.3     1  UNL1        0.0268
     11 C           4.4014   -1.8359   22.9027 C.3     1  UNL1        0.1420
     12 C           4.2305   -2.2543   21.4724 C.ar    1  UNL1        0.0616
     13 C           3.4174   -1.4104   20.5360 C.ar    1  UNL1        0.1407
     14 F           2.6567   -0.1261   20.6848 F       1  UNL1       -0.2043
     15 C           3.2465   -1.8288   19.1057 C.ar    1  UNL1        0.0319
     16 C           3.8889   -3.0911   18.6118 C.ar    1  UNL1        0.0351
     17 C           4.7020   -3.9349   19.5481 C.ar    1  UNL1        0.1737
     18 F           5.3443   -5.1973   19.0541 F       1  UNL1       -0.2010
     19 C           4.8728   -3.5165   20.9784 C.ar    1  UNL1        0.1654
     20 O           5.6860   -4.3605   21.9147 O.3     1  UNL1       -0.4733
     21 C           5.8568   -3.9421   23.3449 C.3     1  UNL1        0.2075
     22 C           5.2145   -2.6797   23.8390 C.3     1  UNL1        0.0709
     23 C           5.9834   -3.5018   24.6746 C.3     1  UNL1        0.1515
     24 O           6.8367   -4.5404   25.3401 O.3     1  UNL1       -0.2941
     25 S           3.5882   -0.9920   21.9663 S.O2    1  UNL1        0.0093
     26 O           2.7983   -1.0989   21.9562 O.2     1  UNL1       -0.1684
     27 O           4.6054   -0.1311   21.2776 O.2     1  UNL1       -0.1684
     28 C           2.7751   -0.1481   21.0300 C.ar    1  UNL1        0.1059
     29 C           1.3159   -0.4363   20.8359 C.ar    1  UNL1        0.0192
     30 C           0.5028    0.4076   19.8996 C.ar    1  UNL1        0.0127
     31 C           1.1489    1.5396   19.1573 C.ar    1  UNL1        0.0578
     32 CL          0.3358    2.3836   18.2210 Cl      1  UNL1       -0.0822
     33 C           2.6081    1.8279   19.3514 C.ar    1  UNL1        0.0127
     34 C           3.4212    0.9840   20.2878 C.ar    1  UNL1        0.0192
@<TRIPOS>BOND
     1     1     2    1
     2     2     3    2
     3     2     4    1
     4     4     5    1
     5     5     6    1
     6     7     6    1
     7     7     8    1
     8     8     9    1
     9     9    10    1
    10    10    11    1
    11    11    25    1
    12    25    26    2
    13    25    27    2
    14    25    28    1
    15    28    29   ar
    16    29    30   ar
    17    30    31   ar
    18    31    32    1
    19    31    33   ar
    20    33    34   ar
    21    11    12    1
    22    12    13   ar
    23    13    14    1
    24    13    15   ar
    25    15    16   ar
    26    16    17   ar
    27    17    18    1
    28    17    19   ar
    29    19    20    1
    30    20    21    1
    31    22    21    1
    32     7    23    1
    33    23    24    1
    34    24     2    1
    35    22     7    1
    36    22    11    1
    37    34    28   ar
    38    19    12   ar
@<TRIPOS>MOLECULE
*****
 34 38 0 0 0
SMALL
GASTEIGER

@<TRIPOS>ATOM
      1 C           3.6171    3.7945   39.2116 C.3     1  UNL1        0.1287
      2 P           3.3253    3.3721   37.8022 P.3     1  UNL1        0.3439
      3 O           4.2714    2.3107   38.2797 O.2     1  UNL1       -0.2577
      4 O           2.5089    4.6217   37.9520 O.3     1  UNL1       -0.2941
      5 C           1.6203    5.2848   36.9419 C.3     1  UNL1        0.1514
      6 C           1.3285    4.8625   35.5324 C.3     1  UNL1        0.0352
      7 C           1.8532    3.6725   34.7851 C.3     1  UNL1        0.0357
      8 C           0.9035    4.6805   34.2091 C.3     1  UNL1        0.0028
      9 C           0.4178    4.5325   32.7976 C.3     1  UNL1        0.0021
     10 C           0.8819    3.3763   31.9621 C.3     1  UNL1        0.0268
     11 C           1.8317    2.3683   32.5382 C.3     1  UNL1        0.1420
     12 C           2.2958    1.2122   31.7028 C.ar    1  UNL1        0.0616
     13 C           1.8102    1.0641   30.2912 C.ar    1  UNL1        0.1407
     14 F           0.8856    1.8600   29.4185 F       1  UNL1       -0.2043
     15 C           2.2743   -0.0921   29.4558 C.ar    1  UNL1        0.0319
     16 C           3.2241   -1.1000   30.0319 C.ar    1  UNL1        0.0351
     17 C           3.7097   -0.9520   31.4433 C.ar    1  UNL1        0.1737
     18 F           4.6595   -1.9600   32.0193 F       1  UNL1       -0.2010
     19 C           3.2456    0.2041   32.2787 C.ar    1  UNL1        0.1654
     20 O           3.7313    0.3522   33.6902 O.3     1  UNL1       -0.4733
     21 C           3.2671    1.5083   34.5257 C.3     1  UNL1        0.2075
     22 C           2.3173    2.5164   33.9496 C.3     1  UNL1        0.0709
     23 C           2.7994    2.6110   35.2626 C.3     1  UNL1        0.1515
     24 O           3.4545    2.4773   36.6052 O.3     1  UNL1       -0.2941
     25 S           1.3461    2.2202   31.1267 S.O2    1  UNL1        0.0093
     26 O           1.8360    2.4393   30.5373 O.2     1  UNL1       -0.1684
     27 O          -0.0353    1.6546   31.2757 O.2     1  UNL1       -0.1684
     28 C           0.8604    2.0720   29.7153 C.ar    1  UNL1        0.1059
     29 C           1.5415    2.8170   28.6057 C.ar    1  UNL1        0.0192
     30 C           1.0559    2.6689   27.1942 C.ar    1  UNL1        0.0127
     31 C          -0.1109    1.7758   26.8923 C.ar    1  UNL1        0.0578
     32 CL         -0.5966    1.6276   25.4809 Cl      1  UNL1       -0.0822
     33 C          -0.7919    1.0308   28.0019 C.ar    1  UNL1        0.0127
     34 C          -0.3063    1.1789   29.4134 C.ar    1  UNL1        0.0192
@<TRIPOS>BOND
     1     1     2    1
     2     2     3    2
     3     2     4    1
     4     4     5    1
     5     5     6    1
     6     7     6    1
     7     7     8    1
     8     8     9    1
     9     9    10    1
    10    10    11    1
    11    11    25    1
    12    25    26    2
    13    25    27    2
    14    25    28    1
    15    28    29   ar
    16    29    30   ar
    17    30    31   ar
    18    31    32    1
    19    31    33   ar
    20    33    34   ar
    21    11    12    1
    22    12    13   ar
    23    13    14    1
    24    13    15   ar
    25    15    16   ar
    26    16    17   ar
    27    17    18    1
    28    17    19   ar
    29    19    20    1
    30    20    21    1
    31    22    21    1
    32     7    23    1
    33    23    24    1
    34    24     2    1
    35    22     7    1
    36    22    11    1
    37    34    28   ar
    38    19    12   ar
@<TRIPOS>MOLECULE
*****
 34 38 0 0 0
SMALL
GASTEIGER

@<TRIPOS>ATOM
      1 C           4.6979   -4.0371   18.7048 C.3     1  UNL1        0.1287
      2 P           4.7331   -3.5914   20.1366 P.3     1  UNL1        0.3439
      3 O           5.7452   -4.6980   20.1065 O.2     1  UNL1       -0.2577
      4 O           3.7052   -2.6830   19.5295 O.3     1  UNL1       -0.2941
      5 C           2.9093   -1.5973   20.1908 C.3     1  UNL1        0.1514
      6 C           2.9445   -1.1516   21.6227 C.3     1  UNL1        0.0352
      7 C           3.7843   -1.6817   22.7468 C.3     1  UNL1        0.0357
      8 C           2.7950   -0.5629   22.8860 C.3     1  UNL1        0.0028
      9 C           2.5965    0.1016   24.2161 C.3     1  UNL1        0.0021
     10 C           3.3874   -0.3528   25.4070 C.3     1  UNL1        0.0268
     11 C           4.3767   -1.4717   25.2676 C.3     1  UNL1        0.1420
     12 C           5.1675   -1.9260   26.4585 C.ar    1  UNL1        0.0616
     13 C           4.9691   -1.2616   27.7886 C.ar    1  UNL1        0.1407
     14 F           4.0919   -0.1466   28.2759 F       1  UNL1       -0.2043
     15 C           5.7599   -1.7160   28.9795 C.ar    1  UNL1        0.0319
     16 C           6.7492   -2.8348   28.8401 C.ar    1  UNL1        0.0351
     17 C           6.9477   -3.4993   27.5101 C.ar    1  UNL1        0.1737
     18 F           7.9371   -4.6181   27.3708 F       1  UNL1       -0.2010
     19 C           6.1569   -3.0449   26.3193 C.ar    1  UNL1        0.1654
     20 O           6.3554   -3.7093   24.9892 O.3     1  UNL1       -0.4733
     21 C           5.5646   -3.2549   23.7983 C.3     1  UNL1        0.2075
     22 C           4.5752   -2.1361   23.9376 C.3     1  UNL1        0.0709
     23 C           4.7965   -2.7884   22.7166 C.3     1  UNL1        0.1515
     24 O           5.2187   -3.6382   21.5551 O.3     1  UNL1       -0.2941
     25 S           4.1782   -0.8072   26.5978 S.O2    1  UNL1        0.0093
     26 O           4.5057   -0.0892   26.7101 O.2     1  UNL1       -0.1684
     27 O           3.3506   -1.7886   27.3738 O.2     1  UNL1       -0.1684
     28 C           3.9798   -0.1429   27.9279 C.ar    1  UNL1        0.1059
     29 C           2.8960   -0.6184   28.8495 C.ar    1  UNL1        0.0192
     30 C           2.6974    0.0460   30.1796 C.ar    1  UNL1        0.0127
     31 C           3.5827    1.1859   30.5882 C.ar    1  UNL1        0.0578
     32 CL          3.3843    1.8503   31.9183 Cl      1  UNL1       -0.0822
     33 C           4.6665    1.6614   29.6665 C.ar    1  UNL1        0.0127
     34 C           4.8650    0.9971   28.3364 C.ar    1  UNL1        0.0192
@<TRIPOS>BOND
     1     1     2    1
     2     2     3    2
     3     2     4    1
     4     4     5    1
     5     5     6    1
     6     7     6    1
     7     7     8    1
     8     8     9    1
     9     9    10    1
    10    10    11    1
    11    11    25    1
    12    25    26    2
    13    25    27    2
    14    25    28    1
    15    28    29   ar
    16    29    30   ar
    17    30    31   ar
    18    31    32    1
    19    31    33   ar
    20    33    34   ar
    21    11    12    1
    22    12    13   ar
    23    13    14    1
    24    13    15   ar
    25    15    16   ar
    26    16    17   ar
    27    17    18    1
    28    17    19   ar
    29    19    20    1
    30    20    21    1
    31    22    21    1
    32     7    23    1
    33    23    24    1
    34    24     2    1
    35    22     7    1
    36    22    11    1
    37    34    28   ar
    38    19    12   ar
@<TRIPOS>MOLECULE
*****
 34 38 0 0 0
SMALL
GASTEIGER

@<TRIPOS>ATOM
      1 C          -9.5955   -7.5705   18.4349 C.3     1  UNL1        0.1287
      2 P         -10.7433   -6.6204   18.6066 P.3     1  UNL1        0.3439
      3 O         -11.3958   -7.9626   18.7569 O.2     1  UNL1       -0.2577
      4 O          -9.5800   -5.7009   18.3799 O.3     1  UNL1       -0.2941
      5 C          -9.5677   -4.2017   18.3358 C.3     1  UNL1        0.1514
      6 C         -10.7155   -3.2514   18.5075 C.3     1  UNL1        0.0352
      7 C         -12.1593   -3.5659   18.7657 C.3     1  UNL1        0.0357
      8 C         -11.6077   -2.1775   18.6316 C.3     1  UNL1        0.0028
      9 C         -12.5196   -0.9929   18.7559 C.3     1  UNL1        0.0021
     10 C         -13.9831   -1.1969   19.0145 C.3     1  UNL1        0.0268
     11 C         -14.5345   -2.5854   19.1486 C.3     1  UNL1        0.1420
     12 C         -15.9979   -2.7894   19.4072 C.ar    1  UNL1        0.0616
     13 C         -16.9099   -1.6048   19.5316 C.ar    1  UNL1        0.1407
     14 F         -16.7066   -0.1206   19.4549 F       1  UNL1       -0.2043
     15 C         -18.3733   -1.8088   19.7901 C.ar    1  UNL1        0.0319
     16 C         -18.9247   -3.1973   19.9243 C.ar    1  UNL1        0.0351
     17 C         -18.0129   -4.3817   19.7999 C.ar    1  UNL1        0.1737
     18 F         -18.5644   -5.7702   19.9340 F       1  UNL1       -0.2010
     19 C         -16.5495   -4.1778   19.5413 C.ar    1  UNL1        0.1654
     20 O         -15.6376   -5.3623   19.4170 O.3     1  UNL1       -0.4733
     21 C         -14.1742   -5.1583   19.1584 C.3     1  UNL1        0.2075
     22 C         -13.6227   -3.7698   19.0243 C.3     1  UNL1        0.0709
     23 C         -12.8117   -4.9082   18.9160 C.3     1  UNL1        0.1515
     24 O         -12.1816   -6.2675   18.8452 O.3     1  UNL1       -0.2941
     25 S         -15.4465   -1.4009   19.2730 S.O2    1  UNL1        0.0093
     26 O         -15.5244   -1.0622   19.9904 O.2     1  UNL1       -0.1684
     27 O         -15.9765   -1.2035   17.8837 O.2     1  UNL1       -0.1684
     28 C         -16.3584   -0.2165   19.3974 C.ar    1  UNL1        0.1059
     29 C         -16.6232    0.3881   20.7444 C.ar    1  UNL1        0.0192
     30 C         -17.5352    1.5725   20.8688 C.ar    1  UNL1        0.0127
     31 C         -18.1822    2.1525   19.6461 C.ar    1  UNL1        0.0578
     32 CL        -19.0942    3.3369   19.7704 Cl      1  UNL1       -0.0822
     33 C         -17.9174    1.5480   18.2991 C.ar    1  UNL1        0.0127
     34 C         -17.0055    0.3635   18.1747 C.ar    1  UNL1        0.0192
@<TRIPOS>BOND
     1     1     2    1
     2     2     3    2
     3     2     4    1
     4     4     5    1
     5     5     6    1
     6     7     6    1
     7     7     8    1
     8     8     9    1
     9     9    10    1
    10    10    11    1
    11    11    25    1
    12    25    26    2
    13    25    27    2
    14    25    28    1
    15    28    29   ar
    16    29    30   ar
    17    30    31   ar
    18    31    32    1
    19    31    33   ar
    20    33    34   ar
    21    11    12    1
    22    12    13   ar
    23    13    14    1
    24    13    15   ar
    25    15    16   ar
    26    16    17   ar
    27    17    18    1
    28    17    19   ar
    29    19    20    1
    30    20    21    1
    31    22    21    1
    32     7    23    1
    33    23    24    1
    34    24     2    1
    35    22     7    1
    36    22    11    1
    37    34    28   ar
    38    19    12   ar
@<TRIPOS>MOLECULE
*****
 34 38 0 0 0
SMALL
GASTEIGER

@<TRIPOS>ATOM
      1 C          -0.1743    1.0277   26.8988 C.3     1  UNL1        0.1287
      2 P           0.2392    1.4406   28.2802 P.3     1  UNL1        0.3439
      3 O          -0.7376    2.5102   27.8905 O.2     1  UNL1       -0.2577
      4 O           1.0320    0.1872   28.0552 O.3     1  UNL1       -0.2941
      5 C           1.9993   -0.4866   28.9825 C.3     1  UNL1        0.1514
      6 C           2.4129   -0.0737   30.3640 C.3     1  UNL1        0.0352
      7 C           1.9612    1.1152   31.1593 C.3     1  UNL1        0.0357
      8 C           2.9503    0.0985   31.6471 C.3     1  UNL1        0.0028
      9 C           3.5555    0.2360   33.0128 C.3     1  UNL1        0.0021
     10 C           3.1715    1.3902   33.8905 C.3     1  UNL1        0.0268
     11 C           2.1824    2.4069   33.4026 C.3     1  UNL1        0.1420
     12 C           1.7984    3.5610   34.2803 C.ar    1  UNL1        0.0616
     13 C           2.4036    3.6986   35.6460 C.ar    1  UNL1        0.1407
     14 F           3.3942    2.8926   36.4328 F       1  UNL1       -0.2043
     15 C           2.0196    4.8528   36.5237 C.ar    1  UNL1        0.0319
     16 C           1.0305    5.8694   36.0358 C.ar    1  UNL1        0.0351
     17 C           0.4254    5.7319   34.6702 C.ar    1  UNL1        0.1737
     18 F          -0.5638    6.7486   34.1823 F       1  UNL1       -0.2010
     19 C           0.8093    4.5777   33.7925 C.ar    1  UNL1        0.1654
     20 O           0.2042    4.4402   32.4269 O.3     1  UNL1       -0.4733
     21 C           0.5881    3.2861   31.5491 C.3     1  UNL1        0.2075
     22 C           1.5773    2.2694   32.0370 C.3     1  UNL1        0.0709
     23 C           0.9844    2.1847   30.7695 C.3     1  UNL1        0.1515
     24 O           0.2181    2.3296   29.4883 O.3     1  UNL1       -0.2941
     25 S           2.7875    2.5444   34.7683 S.O2    1  UNL1        0.0093
     26 O           2.3767    2.2614   35.3900 O.2     1  UNL1       -0.1684
     27 O           4.0959    3.2340   34.5177 O.2     1  UNL1       -0.1684
     28 C           3.3926    2.6820   36.1338 C.ar    1  UNL1        0.1059
     29 C           2.7625    1.9907   37.3065 C.ar    1  UNL1        0.0192
     30 C           3.3677    2.1282   38.6722 C.ar    1  UNL1        0.0127
     31 C           4.6029    2.9571   38.8651 C.ar    1  UNL1        0.0578
     32 CL          5.2081    3.0947   40.2307 Cl      1  UNL1       -0.0822
     33 C           5.2330    3.6483   37.6924 C.ar    1  UNL1        0.0127
     34 C           4.6279    3.5108   36.3268 C.ar    1  UNL1        0.0192
@<TRIPOS>BOND
     1     1     2    1
     2     2     3    2
     3     2     4    1
     4     4     5    1
     5     5     6    1
     6     7     6    1
     7     7     8    1
     8     8     9    1
     9     9    10    1
    10    10    11    1
    11    11    25    1
    12    25    26    2
    13    25    27    2
    14    25    28    1
    15    28    29   ar
    16    29    30   ar
    17    30    31   ar
    18    31    32    1
    19    31    33   ar
    20    33    34   ar
    21    11    12    1
    22    12    13   ar
    23    13    14    1
    24    13    15   ar
    25    15    16   ar
    26    16    17   ar
    27    17    18    1
    28    17    19   ar
    29    19    20    1
    30    20    21    1
    31    22    21    1
    32     7    23    1
    33    23    24    1
    34    24     2    1
    35    22     7    1
    36    22    11    1
    37    34    28   ar
    38    19    12   ar
@<TRIPOS>MOLECULE
*****
 34 38 0 0 0
SMALL
GASTEIGER

@<TRIPOS>ATOM
      1 C           2.8084   -1.0530   19.6483 C.3     1  UNL1        0.1287
      2 P           3.6046   -1.6967   20.7444 P.3     1  UNL1        0.3439
      3 O           4.0014   -2.4890   19.5342 O.2     1  UNL1       -0.2577
      4 O           2.8534   -0.6178   21.4669 O.3     1  UNL1       -0.2941
      5 C           2.8896   -0.2690   22.9253 C.3     1  UNL1        0.1514
      6 C           3.6858   -0.9127   24.0215 C.3     1  UNL1        0.0352
      7 C           4.6426   -2.0643   23.9300 C.3     1  UNL1        0.0357
      8 C           4.3146   -1.3371   25.2002 C.3     1  UNL1        0.0028
      9 C           4.9599   -1.7511   26.4895 C.3     1  UNL1        0.0021
     10 C           5.9331   -2.8925   26.5085 C.3     1  UNL1        0.0268
     11 C           6.2610   -3.6197   25.2382 C.3     1  UNL1        0.1420
     12 C           7.2342   -4.7609   25.2572 C.ar    1  UNL1        0.0616
     13 C           7.8795   -5.1750   26.5465 C.ar    1  UNL1        0.1407
     14 F           7.7874   -4.6867   27.9618 F       1  UNL1       -0.2043
     15 C           8.8527   -6.3163   26.5655 C.ar    1  UNL1        0.0319
     16 C           9.1805   -7.0435   25.2952 C.ar    1  UNL1        0.0351
     17 C           8.5353   -6.6295   24.0060 C.ar    1  UNL1        0.1737
     18 F           8.8632   -7.3567   22.7357 F       1  UNL1       -0.2010
     19 C           7.5621   -5.4882   23.9870 C.ar    1  UNL1        0.1654
     20 O           6.9168   -5.0742   22.6977 O.3     1  UNL1       -0.4733
     21 C           5.9437   -3.9329   22.6787 C.3     1  UNL1        0.2075
     22 C           5.6157   -3.2056   23.9490 C.3     1  UNL1        0.0709
     23 C           5.0394   -2.8566   22.7197 C.3     1  UNL1        0.1515
     24 O           4.5775   -2.6931   21.3021 O.3     1  UNL1       -0.2941
     25 S           6.9063   -4.0338   26.5275 S.O2    1  UNL1        0.0093
     26 O           6.5837   -4.6421   26.9291 O.2     1  UNL1       -0.1684
     27 O           8.0627   -3.0896   26.6741 O.2     1  UNL1       -0.1684
     28 C           7.5516   -4.4478   27.8167 C.ar    1  UNL1        0.1059
     29 C           8.8901   -3.8888   28.1989 C.ar    1  UNL1        0.0192
     30 C           9.5354   -4.3028   29.4881 C.ar    1  UNL1        0.0127
     31 C           8.8423   -5.2759   30.3952 C.ar    1  UNL1        0.0578
     32 CL          9.4876   -5.6900   31.6844 Cl      1  UNL1       -0.0822
     33 C           7.5038   -5.8349   30.0130 C.ar    1  UNL1        0.0127
     34 C           6.8585   -5.4209   28.7237 C.ar    1  UNL1        0.0192
@<TRIPOS>BOND
     1     1     2    1
     2     2     3    2
     3     2     4    1
     4     4     5    1
     5     5     6    1
     6     7     6    1
     7     7     8    1
     8     8     9    1
     9     9    10    1
    10    10    11    1
    11    11    25    1
    12    25    26    2
    13    25    27    2
    14    25    28    1
    15    28    29   ar
    16    29    30   ar
    17    30    31   ar
    18    31    32    1
    19    31    33   ar
    20    33    34   ar
    21    11    12    1
    22    12    13   ar
    23    13    14    1
    24    13    15   ar
    25    15    16   ar
    26    16    17   ar
    27    17    18    1
    28    17    19   ar
    29    19    20    1
    30    20    21    1
    31    22    21    1
    32     7    23    1
    33    23    24    1
    34    24     2    1
    35    22     7    1
    36    22    11    1
    37    34    28   ar
    38    19    12   ar
@<TRIPOS>MOLECULE
*****
 34 38 0 0 0
SMALL
GASTEIGER

@<TRIPOS>ATOM
      1 C          -6.2135    5.4610   26.1990 C.3     1  UNL1        0.1287
      2 P          -5.2528    5.0451   25.1248 P.3     1  UNL1        0.3439
      3 O          -6.3307    5.7483   24.3545 O.2     1  UNL1       -0.2577
      4 O          -4.6024    4.5269   26.3733 O.3     1  UNL1       -0.2941
      5 C          -3.3104    3.7778   26.5130 C.3     1  UNL1        0.1514
      6 C          -2.3496    3.3619   25.4388 C.3     1  UNL1        0.0352
      7 C          -2.4435    3.5923   23.9596 C.3     1  UNL1        0.0357
      8 C          -1.3134    2.8711   24.6323 C.3     1  UNL1        0.0028
      9 C          -0.1794    2.3262   23.8155 C.3     1  UNL1        0.0021
     10 C          -0.1757    2.5025   22.3258 C.3     1  UNL1        0.0268
     11 C          -1.3059    3.2237   21.6532 C.3     1  UNL1        0.1420
     12 C          -1.3021    3.4000   20.1636 C.ar    1  UNL1        0.0616
     13 C          -0.1681    2.8551   19.3466 C.ar    1  UNL1        0.1407
     14 F           1.0874    2.1038   19.6772 F       1  UNL1       -0.2043
     15 C          -0.1644    3.0314   17.8570 C.ar    1  UNL1        0.0319
     16 C          -1.2946    3.7526   17.1844 C.ar    1  UNL1        0.0351
     17 C          -2.4285    4.2974   18.0012 C.ar    1  UNL1        0.1737
     18 F          -3.5587    5.0187   17.3285 F       1  UNL1       -0.2010
     19 C          -2.4322    4.1212   19.4908 C.ar    1  UNL1        0.1654
     20 O          -3.5662    4.6661   20.3076 O.3     1  UNL1       -0.4733
     21 C          -3.5700    4.4898   21.7972 C.3     1  UNL1        0.2075
     22 C          -2.4398    3.7686   22.4700 C.3     1  UNL1        0.0709
     23 C          -3.5215    4.2956   23.1893 C.3     1  UNL1        0.1515
     24 O          -4.7716    4.9421   23.7078 O.3     1  UNL1       -0.2941
     25 S          -0.1719    2.6788   20.8362 S.O2    1  UNL1        0.0093
     26 O           0.4454    3.1598   20.6848 O.2     1  UNL1       -0.1684
     27 O          -0.5890    1.2708   20.5300 O.2     1  UNL1       -0.1684
     28 C           0.9619    2.1339   20.0193 C.ar    1  UNL1        0.1059
     29 C           0.8855    0.7424   19.4641 C.ar    1  UNL1        0.0192
     30 C           2.0194    0.1975   18.6472 C.ar    1  UNL1        0.0127
     31 C           3.2297    1.0439   18.3855 C.ar    1  UNL1        0.0578
     32 CL          4.3637    0.4991   17.5686 Cl      1  UNL1       -0.0822
     33 C           3.3062    2.4353   18.9407 C.ar    1  UNL1        0.0127
     34 C           2.1723    2.9803   19.7576 C.ar    1  UNL1        0.0192
@<TRIPOS>BOND
     1     1     2    1
     2     2     3    2
     3     2     4    1
     4     4     5    1
     5     5     6    1
     6     7     6    1
     7     7     8    1
     8     8     9    1
     9     9    10    1
    10    10    11    1
    11    11    25    1
    12    25    26    2
    13    25    27    2
    14    25    28    1
    15    28    29   ar
    16    29    30   ar
    17    30    31   ar
    18    31    32    1
    19    31    33   ar
    20    33    34   ar
    21    11    12    1
    22    12    13   ar
    23    13    14    1
    24    13    15   ar
    25    15    16   ar
    26    16    17   ar
    27    17    18    1
    28    17    19   ar
    29    19    20    1
    30    20    21    1
    31    22    21    1
    32     7    23    1
    33    23    24    1
    34    24     2    1
    35    22     7    1
    36    22    11    1
    37    34    28   ar
    38    19    12   ar
@<TRIPOS>MOLECULE
*****
 34 38 0 0 0
SMALL
GASTEIGER

@<TRIPOS>ATOM
      1 C           8.6941   -5.9108   30.2912 C.3     1  UNL1        0.1287
      2 P           8.0567   -5.2914   29.0830 P.3     1  UNL1        0.3439
      3 O           7.4009   -4.5614   30.2174 O.2     1  UNL1       -0.2577
      4 O           8.9962   -6.2970   28.4861 O.3     1  UNL1       -0.2941
      5 C           9.2383   -6.6066   27.0386 C.3     1  UNL1        0.1514
      6 C           8.6009   -5.9872   25.8303 C.3     1  UNL1        0.0352
      7 C           7.5639   -4.9051   25.7711 C.3     1  UNL1        0.0357
      8 C           8.1578   -5.5730   24.5666 C.3     1  UNL1        0.0028
      9 C           7.7185   -5.1672   23.1909 C.3     1  UNL1        0.0021
     10 C           6.6851   -4.0933   23.0200 C.3     1  UNL1        0.0268
     11 C           6.0913   -3.4254   24.2246 C.3     1  UNL1        0.1420
     12 C           5.0580   -2.3516   24.0537 C.ar    1  UNL1        0.0616
     13 C           4.6186   -1.9457   22.6780 C.ar    1  UNL1        0.1407
     14 F           4.9891   -2.3871   21.2931 F       1  UNL1       -0.2043
     15 C           3.5853   -0.8718   22.5071 C.ar    1  UNL1        0.0319
     16 C           2.9914   -0.2039   23.7117 C.ar    1  UNL1        0.0351
     17 C           3.4308   -0.6098   25.0873 C.ar    1  UNL1        0.1737
     18 F           2.8369    0.0582   26.2919 F       1  UNL1       -0.2010
     19 C           4.4641   -1.6836   25.2582 C.ar    1  UNL1        0.1654
     20 O           4.9034   -2.0894   26.6338 O.3     1  UNL1       -0.4733
     21 C           5.9367   -3.1633   26.8048 C.3     1  UNL1        0.2075
     22 C           6.5306   -3.8312   25.6002 C.3     1  UNL1        0.0709
     23 C           6.9081   -4.1751   26.9057 C.3     1  UNL1        0.1515
     24 O           7.1274   -4.3470   28.3795 O.3     1  UNL1       -0.2941
     25 S           5.6518   -3.0195   22.8490 S.O2    1  UNL1        0.0093
     26 O           6.1520   -2.5799   22.4107 O.2     1  UNL1       -0.1684
     27 O           4.2844   -3.6209   22.7127 O.2     1  UNL1       -0.1684
     28 C           5.2124   -2.6136   21.4735 C.ar    1  UNL1        0.1059
     29 C           4.1365   -3.3876   20.7710 C.ar    1  UNL1        0.0192
     30 C           3.6970   -2.9817   19.3954 C.ar    1  UNL1        0.0127
     31 C           4.3334   -1.8019   18.7223 C.ar    1  UNL1        0.0578
     32 CL          3.8941   -1.3960   17.3468 Cl      1  UNL1       -0.0822
     33 C           5.4093   -1.0280   19.4249 C.ar    1  UNL1        0.0127
     34 C           5.8488   -1.4338   20.8004 C.ar    1  UNL1        0.0192
@<TRIPOS>BOND
     1     1     2    1
     2     2     3    2
     3     2     4    1
     4     4     5    1
     5     5     6    1
     6     7     6    1
     7     7     8    1
     8     8     9    1
     9     9    10    1
    10    10    11    1
    11    11    25    1
    12    25    26    2
    13    25    27    2
    14    25    28    1
    15    28    29   ar
    16    29    30   ar
    17    30    31   ar
    18    31    32    1
    19    31    33   ar
    20    33    34   ar
    21    11    12    1
    22    12    13   ar
    23    13    14    1
    24    13    15   ar
    25    15    16   ar
    26    16    17   ar
    27    17    18    1
    28    17    19   ar
    29    19    20    1
    30    20    21    1
    31    22    21    1
    32     7    23    1
    33    23    24    1
    34    24     2    1
    35    22     7    1
    36    22    11    1
    37    34    28   ar
    38    19    12   ar
