@<TRIPOS>MOLECULE
*****
 37 41 0 0 0
SMALL
GASTEIGER

@<TRIPOS>ATOM
      1 C          -8.9672  -20.4374   18.3580 C.3     1  UNL1        0.0312
      2 C          -8.1663  -19.9026   19.5079 C.2     1  UNL1        0.0121
      3 C          -6.6739  -19.7982   19.3982 C.2     1  UNL1       -0.0081
      4 C          -5.8730  -19.2634   20.5481 C.2     1  UNL1       -0.0194
      5 C          -6.5643  -18.8328   21.8078 C.2     1  UNL1        0.0425
      6 C          -8.0566  -18.9371   21.9175 C.2     1  UNL1        0.2231
      7 N          -9.0081  -18.5927   23.0247 N.2     1  UNL1       -0.0378
      8 C         -10.3972  -18.9147   22.5591 C.2     1  UNL1        0.3605
      9 N         -10.3042  -19.4582   21.1641 N.2     1  UNL1       -0.0547
     10 C          -8.8576  -19.4720   20.7675 C.3     1  UNL1        0.2975
     11 C         -11.6579  -18.7264   23.3497 C.3     1  UNL1        0.2246
     12 C         -12.8384  -18.0417   22.7271 C.2     1  UNL1        0.0436
     13 C         -14.0992  -17.8534   23.5177 C.2     1  UNL1        0.0288
     14 C         -14.1795  -18.3498   24.9309 C.2     1  UNL1        0.0896
     15 N         -12.9990  -19.0344   25.5536 N.am    1  UNL1       -0.1770
     16 C         -11.7382  -19.2227   24.7629 C.2     1  UNL1        0.2627
     17 O         -10.5578  -19.9074   25.3855 O.2     1  UNL1       -0.2719
     18 N         -12.7582  -17.5454   21.3139 N.pl3   1  UNL1       -0.3335
     19 H         -13.0266  -18.1319   20.5702 H       1  UNL1        0.1466
     20 C         -12.2691  -16.1553   21.0338 C.3     1  UNL1        0.1136
     21 C         -10.8399  -15.9284   20.6390 C.3     1  UNL1        0.1486
     22 N          -9.7995  -15.6901   21.6930 N.ar    1  UNL1       -0.2468
     23 C         -10.0324  -15.6774   23.1747 C.ar    1  UNL1        0.1081
     24 C          -8.7204  -15.4020   23.8478 C.ar    1  UNL1        0.0972
     25 CL         -8.4922  -15.3018   25.3269 Cl      1  UNL1       -0.0789
     26 C          -7.6767  -15.2445   22.7820 C.ar    1  UNL1        0.1330
     27 N          -8.3437  -15.4225   21.4502 N.ar    1  UNL1       -0.1667
     28 C          -4.3806  -19.1590   20.4384 C.3     1  UNL1        0.0252
     29 C          -3.7569  -18.6092   19.1898 C.3     1  UNL1        0.0217
     30 C          -2.2646  -18.5049   19.0801 C.3     1  UNL1        0.0724
     31 N          -1.3959  -18.9504   20.2189 N.3     1  UNL1       -0.2726
     32 C          -2.0195  -19.5002   21.4674 C.3     1  UNL1        0.0724
     33 C          -3.5119  -19.6045   21.5772 C.3     1  UNL1        0.0217
     34 C           0.0964  -18.8461   20.1093 C.3     1  UNL1        0.0750
     35 C           0.7600  -17.5018   20.1600 C.3     1  UNL1        0.0554
     36 C          -0.0730  -16.2558   20.2200 C.3     1  UNL1        0.1947
     37 F          -1.1187  -16.1033   21.2845 F       1  UNL1       -0.2343
@<TRIPOS>BOND
     1     1     2    1
     2     2     3    2
     3     3     4    1
     4     4    28    1
     5    28    29    1
     6    29    30    1
     7    30    31    1
     8    31    34    1
     9    34    35    1
    10    35    36    1
    11    36    37    1
    12    31    32    1
    13    32    33    1
    14     4     5    2
    15     5     6    1
    16     6     7    2
    17     7     8    1
    18     8    11    1
    19    11    12    1
    20    12    18    1
    21    18    20    1
    22    20    21    1
    23    21    22    1
    24    22    23   ar
    25    23    24   ar
    26    24    25    1
    27    24    26   ar
    28    26    27   ar
    29    12    13    2
    30    13    14    1
    31    14    15    2
    32    15    16    1
    33    16    17    2
    34     8     9    2
    35     9    10    1
    36    10     2    1
    37    33    28    1
    38    10     6    1
    39    16    11    1
    40    27    22   ar
    41    18    19    1
@<TRIPOS>MOLECULE
*****
 37 41 0 0 0
SMALL
GASTEIGER

@<TRIPOS>ATOM
      1 C          -8.9044  -20.7007   18.2379 C.3     1  UNL1        0.0312
      2 C          -8.1459  -20.0354   19.3479 C.2     1  UNL1        0.0121
      3 C          -6.6526  -19.9171   19.2701 C.2     1  UNL1       -0.0081
      4 C          -5.8942  -19.2519   20.3800 C.2     1  UNL1       -0.0194
      5 C          -6.6289  -18.7049   21.5679 C.2     1  UNL1        0.0425
      6 C          -8.1222  -18.8231   21.6457 C.2     1  UNL1        0.2231
      7 N          -9.1112  -18.3821   22.6837 N.2     1  UNL1       -0.0378
      8 C         -10.4810  -18.7749   22.2151 C.2     1  UNL1        0.3605
      9 N         -10.3385  -19.4586   20.8876 N.2     1  UNL1       -0.0547
     10 C          -8.8807  -19.4884   20.5357 C.3     1  UNL1        0.2975
     11 C         -11.7674  -18.5273   22.9458 C.3     1  UNL1        0.2246
     12 C         -11.9264  -18.9923   24.3630 C.2     1  UNL1        0.0436
     13 C         -13.2128  -18.7448   25.0937 C.2     1  UNL1        0.0288
     14 C         -14.3402  -18.0323   24.4072 C.2     1  UNL1        0.0896
     15 N         -14.1812  -17.5673   22.9900 N.am    1  UNL1       -0.1770
     16 C         -12.8948  -17.8148   22.2593 C.2     1  UNL1        0.2627
     17 O         -12.7357  -17.3498   20.8421 O.2     1  UNL1       -0.2719
     18 N         -10.7991  -19.7048   25.0496 N.pl3   1  UNL1       -0.3335
     19 H         -10.7429  -20.6871   25.0135 H       1  UNL1        0.1466
     20 C          -9.7572  -18.9209   25.7912 C.3     1  UNL1        0.1136
     21 C          -9.7780  -17.4216   25.7523 C.3     1  UNL1        0.1486
     22 N          -8.5288  -16.6463   26.0496 N.ar    1  UNL1       -0.2468
     23 C          -7.4962  -16.2203   25.0485 C.ar    1  UNL1        0.1081
     24 C          -6.4221  -15.4716   25.7805 C.ar    1  UNL1        0.0972
     25 CL         -5.1947  -14.8659   25.1667 Cl      1  UNL1       -0.0789
     26 C          -6.7907  -15.4349   27.2339 C.ar    1  UNL1        0.1330
     27 N          -8.0928  -16.1609   27.4004 N.ar    1  UNL1       -0.1667
     28 C          -4.4008  -19.1336   20.3022 C.3     1  UNL1        0.0252
     29 C          -3.5511  -19.5946   21.4492 C.3     1  UNL1        0.0217
     30 C          -2.0578  -19.4763   21.3714 C.3     1  UNL1        0.0724
     31 N          -1.4142  -18.8971   20.1466 N.3     1  UNL1       -0.2726
     32 C          -2.2638  -18.4362   18.9996 C.3     1  UNL1        0.0724
     33 C          -3.7571  -18.5544   19.0774 C.3     1  UNL1        0.0217
     34 C           0.0791  -18.7788   20.0687 C.3     1  UNL1        0.0750
     35 C           0.7293  -17.4290   20.1409 C.3     1  UNL1        0.0554
     36 C          -0.1125  -16.1990   20.3094 C.3     1  UNL1        0.1947
     37 F          -1.2198  -16.1808   21.3212 F       1  UNL1       -0.2343
@<TRIPOS>BOND
     1     1     2    1
     2     2     3    2
     3     3     4    1
     4     4    28    1
     5    28    29    1
     6    29    30    1
     7    30    31    1
     8    31    34    1
     9    34    35    1
    10    35    36    1
    11    36    37    1
    12    31    32    1
    13    32    33    1
    14     4     5    2
    15     5     6    1
    16     6     7    2
    17     7     8    1
    18     8    11    1
    19    11    12    1
    20    12    18    1
    21    18    20    1
    22    20    21    1
    23    21    22    1
    24    22    23   ar
    25    23    24   ar
    26    24    25    1
    27    24    26   ar
    28    26    27   ar
    29    12    13    2
    30    13    14    1
    31    14    15    2
    32    15    16    1
    33    16    17    2
    34     8     9    2
    35     9    10    1
    36    10     2    1
    37    33    28    1
    38    10     6    1
    39    16    11    1
    40    27    22   ar
    41    18    19    1
@<TRIPOS>MOLECULE
*****
 37 41 0 0 0
SMALL
GASTEIGER

@<TRIPOS>ATOM
      1 C           4.1167   -4.6476   19.1689 C.3     1  UNL1        0.0312
      2 C           3.9460   -3.4616   20.0713 C.2     1  UNL1        0.0121
      3 C           3.0609   -2.3242   19.6557 C.2     1  UNL1       -0.0081
      4 C           2.8901   -1.1383   20.5580 C.2     1  UNL1       -0.0194
      5 C           3.6046   -1.0896   21.8761 C.2     1  UNL1        0.0425
      6 C           4.4897   -2.2271   22.2917 C.2     1  UNL1        0.2231
      7 N           5.3152   -2.4584   23.5226 N.2     1  UNL1       -0.0378
      8 C           5.9962   -3.7874   23.3809 C.2     1  UNL1        0.3605
      9 N           5.5915   -4.3774   22.0625 N.2     1  UNL1       -0.0547
     10 C           4.6604   -3.4130   21.3893 C.3     1  UNL1        0.2975
     11 C           6.9197   -4.4161   24.3818 C.3     1  UNL1        0.2246
     12 C           6.7953   -4.0721   25.8365 C.2     1  UNL1        0.0436
     13 C           7.7189   -4.7009   26.8374 C.2     1  UNL1        0.0288
     14 C           8.7668   -5.6735   26.3837 C.2     1  UNL1        0.0896
     15 N           8.8912   -6.0174   24.9289 N.am    1  UNL1       -0.1770
     16 C           7.9676   -5.3887   23.9280 C.2     1  UNL1        0.2627
     17 O           8.0920   -5.7326   22.4733 O.2     1  UNL1       -0.2719
     18 N           5.7475   -3.0995   26.2904 N.pl3   1  UNL1       -0.3335
     19 H           4.9487   -2.9426   25.7367 H       1  UNL1        0.1466
     20 C           5.9165   -2.3661   27.5878 C.3     1  UNL1        0.1136
     21 C           5.3418   -0.9903   27.7520 C.3     1  UNL1        0.1486
     22 N           4.0779   -0.7941   28.5356 N.ar    1  UNL1       -0.2468
     23 C           2.7030   -0.6199   27.9619 C.ar    1  UNL1        0.1081
     24 C           1.7423   -0.4558   29.1023 C.ar    1  UNL1        0.0972
     25 CL          0.2606   -0.2542   28.9848 Cl      1  UNL1       -0.0789
     26 C           2.5235   -0.5286   30.3806 C.ar    1  UNL1        0.1330
     27 N           3.9671   -0.7377   30.0305 N.ar    1  UNL1       -0.1667
     28 C           2.0049   -0.0008   20.1423 C.3     1  UNL1        0.0252
     29 C           0.7443    0.2853   20.9032 C.3     1  UNL1        0.0217
     30 C          -0.1409    1.4227   20.4875 C.3     1  UNL1        0.0724
     31 N           0.2346    2.2740   19.3110 N.3     1  UNL1       -0.2726
     32 C           1.4953    1.9880   18.5501 C.3     1  UNL1        0.0724
     33 C           2.3804    0.8506   18.9658 C.3     1  UNL1        0.0217
     34 C          -0.6505    3.4115   18.8953 C.3     1  UNL1        0.0750
     35 C          -1.6216    4.0025   19.8739 C.3     1  UNL1        0.0554
     36 C          -3.0698    3.6157   19.8201 C.3     1  UNL1        0.1947
     37 F          -3.7956    3.6070   18.5073 F       1  UNL1       -0.2343
@<TRIPOS>BOND
     1     1     2    1
     2     2     3    2
     3     3     4    1
     4     4    28    1
     5    28    29    1
     6    29    30    1
     7    30    31    1
     8    31    34    1
     9    34    35    1
    10    35    36    1
    11    36    37    1
    12    31    32    1
    13    32    33    1
    14     4     5    2
    15     5     6    1
    16     6     7    2
    17     7     8    1
    18     8    11    1
    19    11    12    1
    20    12    18    1
    21    18    20    1
    22    20    21    1
    23    21    22    1
    24    22    23   ar
    25    23    24   ar
    26    24    25    1
    27    24    26   ar
    28    26    27   ar
    29    12    13    2
    30    13    14    1
    31    14    15    2
    32    15    16    1
    33    16    17    2
    34     8     9    2
    35     9    10    1
    36    10     2    1
    37    33    28    1
    38    10     6    1
    39    16    11    1
    40    27    22   ar
    41    18    19    1
@<TRIPOS>MOLECULE
*****
 37 41 0 0 0
SMALL
GASTEIGER

@<TRIPOS>ATOM
      1 C           8.4875   -6.7033   23.2887 C.3     1  UNL1        0.0312
      2 C           7.7730   -5.5500   23.9284 C.2     1  UNL1        0.0121
      3 C           7.6801   -5.4611   25.4229 C.2     1  UNL1       -0.0081
      4 C           6.9656   -4.3078   26.0626 C.2     1  UNL1       -0.0194
      5 C           6.3439   -3.2433   25.2079 C.2     1  UNL1        0.0425
      6 C           6.4368   -3.3322   23.7135 C.2     1  UNL1        0.2231
      7 N           5.9257   -2.4401   22.6213 N.2     1  UNL1       -0.0378
      8 C           6.3243   -3.0421   21.3065 C.2     1  UNL1        0.3605
      9 N           7.0818   -4.3062   21.5861 N.2     1  UNL1       -0.0547
     10 C           7.1514   -4.4855   23.0737 C.3     1  UNL1        0.2975
     11 C           6.0191   -2.4789   19.9502 C.3     1  UNL1        0.2246
     12 C           4.6182   -2.0669   19.6071 C.2     1  UNL1        0.0436
     13 C           4.3130   -1.5037   18.2507 C.2     1  UNL1        0.0288
     14 C           5.4087   -1.3524   17.2375 C.2     1  UNL1        0.0896
     15 N           6.8096   -1.7644   17.5806 N.am    1  UNL1       -0.1770
     16 C           7.1147   -2.3277   18.9369 C.2     1  UNL1        0.2627
     17 O           8.5156   -2.7397   19.2800 O.2     1  UNL1       -0.2719
     18 N           3.5225   -2.2181   20.6202 N.pl3   1  UNL1       -0.3335
     19 H           3.3236   -3.1036   21.0017 H       1  UNL1        0.1466
     20 C           2.7298   -1.0201   21.0522 C.3     1  UNL1        0.1136
     21 C           1.3551   -0.7908   20.4979 C.3     1  UNL1        0.1486
     22 N           0.9427    0.5832   20.0596 N.ar    1  UNL1       -0.2468
     23 C           1.6913    1.4660   19.1056 C.ar    1  UNL1        0.1081
     24 C           0.9206    2.7441   18.9548 C.ar    1  UNL1        0.0972
     25 CL          1.3069    3.9104   18.0943 Cl      1  UNL1       -0.0789
     26 C          -0.3043    2.6511   19.8155 C.ar    1  UNL1        0.1330
     27 N          -0.2907    1.3155   20.4984 N.ar    1  UNL1       -0.1667
     28 C           6.8726   -4.2189   27.5572 C.3     1  UNL1        0.0252
     29 C           6.8392   -5.4711   28.3824 C.3     1  UNL1        0.0217
     30 C           6.7463   -5.3823   29.8768 C.3     1  UNL1        0.0724
     31 N           6.6868   -4.0412   30.5461 N.3     1  UNL1       -0.2726
     32 C           6.7202   -2.7890   29.7210 C.3     1  UNL1        0.0724
     33 C           6.8132   -2.8779   28.2265 C.3     1  UNL1        0.0217
     34 C           6.5939   -3.9523   32.0406 C.3     1  UNL1        0.0750
     35 C           6.0111   -2.7291   32.6843 C.3     1  UNL1        0.0554
     36 C           4.5392   -2.6580   32.9645 C.3     1  UNL1        0.1947
     37 F           4.0524   -2.1889   34.3035 F       1  UNL1       -0.2343
@<TRIPOS>BOND
     1     1     2    1
     2     2     3    2
     3     3     4    1
     4     4    28    1
     5    28    29    1
     6    29    30    1
     7    30    31    1
     8    31    34    1
     9    34    35    1
    10    35    36    1
    11    36    37    1
    12    31    32    1
    13    32    33    1
    14     4     5    2
    15     5     6    1
    16     6     7    2
    17     7     8    1
    18     8    11    1
    19    11    12    1
    20    12    18    1
    21    18    20    1
    22    20    21    1
    23    21    22    1
    24    22    23   ar
    25    23    24   ar
    26    24    25    1
    27    24    26   ar
    28    26    27   ar
    29    12    13    2
    30    13    14    1
    31    14    15    2
    32    15    16    1
    33    16    17    2
    34     8     9    2
    35     9    10    1
    36    10     2    1
    37    33    28    1
    38    10     6    1
    39    16    11    1
    40    27    22   ar
    41    18    19    1
@<TRIPOS>MOLECULE
*****
 37 41 0 0 0
SMALL
GASTEIGER

@<TRIPOS>ATOM
      1 C          -1.5350   -0.5028   29.1379 C.3     1  UNL1        0.0312
      2 C          -0.7389    0.6341   28.5689 C.2     1  UNL1        0.0121
      3 C          -0.5919    0.7771   27.0830 C.2     1  UNL1       -0.0081
      4 C           0.2042    1.9139   26.5141 C.2     1  UNL1       -0.0194
      5 C           0.8533    2.9079   27.4310 C.2     1  UNL1        0.0425
      6 C           0.7063    2.7649   28.9169 C.2     1  UNL1        0.2231
      7 N           1.2280    3.5835   30.0605 N.2     1  UNL1       -0.0378
      8 C           0.7543    2.9525   31.3362 C.2     1  UNL1        0.3605
      9 N          -0.0601    1.7439   30.9811 N.2     1  UNL1       -0.0547
     10 C          -0.0898    1.6280   29.4859 C.3     1  UNL1        0.2975
     11 C           1.0442    3.4438   32.7235 C.3     1  UNL1        0.2246
     12 C           1.9654    2.6672   33.6170 C.2     1  UNL1        0.0436
     13 C           2.2552    3.1585   35.0043 C.2     1  UNL1        0.0288
     14 C           1.6239    4.4264   35.4981 C.2     1  UNL1        0.0896
     15 N           0.7028    5.2030   34.6047 N.am    1  UNL1       -0.1770
     16 C           0.4129    4.7117   33.2173 C.2     1  UNL1        0.2627
     17 O          -0.5082    5.4883   32.3239 O.2     1  UNL1       -0.2719
     18 N           2.5967    1.3993   33.1232 N.pl3   1  UNL1       -0.3335
     19 H           2.3699    0.5395   33.5458 H       1  UNL1        0.1466
     20 C           3.5736    1.4413   31.9858 C.3     1  UNL1        0.1136
     21 C           3.8215    0.2111   31.1641 C.3     1  UNL1        0.1486
     22 N           4.3392   -1.0357   31.8179 N.ar    1  UNL1       -0.2468
     23 C           5.5073   -1.8545   31.3542 C.ar    1  UNL1        0.1081
     24 C           5.6697   -3.0075   32.3000 C.ar    1  UNL1        0.0972
     25 CL          6.7162   -4.0786   32.2128 Cl      1  UNL1       -0.0789
     26 C           4.6020   -2.9013   33.3481 C.ar    1  UNL1        0.1330
     27 N           3.7796   -1.6826   33.0502 N.ar    1  UNL1       -0.1667
     28 C           0.3512    2.0568   25.0281 C.3     1  UNL1        0.0252
     29 C          -0.4998    3.0409   24.2815 C.3     1  UNL1        0.0217
     30 C          -0.3528    3.1839   22.7956 C.3     1  UNL1        0.0724
     31 N           0.6452    2.3428   22.0563 N.3     1  UNL1       -0.2726
     32 C           1.4962    1.3587   22.8029 C.3     1  UNL1        0.0724
     33 C           1.3492    1.2158   24.2888 C.3     1  UNL1        0.0217
     34 C           0.7922    2.4857   20.5704 C.3     1  UNL1        0.0750
     35 C           0.2896    1.4050   19.6596 C.3     1  UNL1        0.0554
     36 C           1.1615    0.2267   19.3412 C.3     1  UNL1        0.1947
     37 F           0.9769   -1.0647   20.0817 F       1  UNL1       -0.2343
@<TRIPOS>BOND
     1     1     2    1
     2     2     3    2
     3     3     4    1
     4     4    28    1
     5    28    29    1
     6    29    30    1
     7    30    31    1
     8    31    34    1
     9    34    35    1
    10    35    36    1
    11    36    37    1
    12    31    32    1
    13    32    33    1
    14     4     5    2
    15     5     6    1
    16     6     7    2
    17     7     8    1
    18     8    11    1
    19    11    12    1
    20    12    18    1
    21    18    20    1
    22    20    21    1
    23    21    22    1
    24    22    23   ar
    25    23    24   ar
    26    24    25    1
    27    24    26   ar
    28    26    27   ar
    29    12    13    2
    30    13    14    1
    31    14    15    2
    32    15    16    1
    33    16    17    2
    34     8     9    2
    35     9    10    1
    36    10     2    1
    37    33    28    1
    38    10     6    1
    39    16    11    1
    40    27    22   ar
    41    18    19    1
@<TRIPOS>MOLECULE
*****
 37 41 0 0 0
SMALL
GASTEIGER

@<TRIPOS>ATOM
      1 C           7.6944   -6.3608   29.2151 C.3     1  UNL1        0.0312
      2 C           7.1934   -5.1551   28.4765 C.2     1  UNL1        0.0121
      3 C           7.1338   -5.1649   26.9778 C.2     1  UNL1       -0.0081
      4 C           6.6329   -3.9594   26.2392 C.2     1  UNL1       -0.0194
      5 C           6.1914   -2.7439   26.9994 C.2     1  UNL1        0.0425
      6 C           6.2510   -2.7341   28.4982 C.2     1  UNL1        0.2231
      7 N           5.8865   -1.6887   29.5103 N.2     1  UNL1       -0.0378
      8 C           6.1623   -2.2483   30.8744 C.2     1  UNL1        0.3605
      9 N           6.6972   -3.6395   30.7054 N.2     1  UNL1       -0.0547
     10 C           6.7520   -3.9397   29.2367 C.3     1  UNL1        0.2975
     11 C           5.9418   -1.5409   32.1786 C.3     1  UNL1        0.2246
     12 C           4.5572   -1.1317   32.5852 C.2     1  UNL1        0.0436
     13 C           4.3368   -0.4243   33.8895 C.2     1  UNL1        0.0288
     14 C           5.5010   -0.1262   34.7872 C.2     1  UNL1        0.0896
     15 N           6.8856   -0.5354   34.3806 N.am    1  UNL1       -0.1770
     16 C           7.1060   -1.2428   33.0763 C.2     1  UNL1        0.2627
     17 O           8.4906   -1.6521   32.6697 O.2     1  UNL1       -0.2719
     18 N           3.3930   -1.4297   31.6876 N.pl3   1  UNL1       -0.3335
     19 H           3.0503   -2.3498   31.6151 H       1  UNL1        0.1466
     20 C           2.7508   -0.3260   30.9006 C.3     1  UNL1        0.1136
     21 C           2.4348   -0.5264   29.4480 C.3     1  UNL1        0.1486
     22 N           1.1543    0.0081   28.8784 N.ar    1  UNL1       -0.2468
     23 C           1.0310    0.9451   27.7135 C.ar    1  UNL1        0.1081
     24 C          -0.4273    1.2157   27.4888 C.ar    1  UNL1        0.0972
     25 CL         -1.0061    2.1006   26.4249 Cl      1  UNL1       -0.0789
     26 C          -1.2051    0.4460   28.5147 C.ar    1  UNL1        0.1330
     27 N          -0.2276   -0.3004   29.3735 N.ar    1  UNL1       -0.1667
     28 C           6.5733   -3.9692   24.7404 C.3     1  UNL1        0.0252
     29 C           5.4367   -3.2952   24.0305 C.3     1  UNL1        0.0217
     30 C           5.3771   -3.3050   22.5318 C.3     1  UNL1        0.0724
     31 N           6.4541   -3.9888   21.7428 N.3     1  UNL1       -0.2726
     32 C           7.5907   -4.6628   22.4526 C.3     1  UNL1        0.0724
     33 C           7.6503   -4.6530   23.9514 C.3     1  UNL1        0.0217
     34 C           6.3946   -3.9986   20.2441 C.3     1  UNL1        0.0750
     35 C           5.1331   -3.5934   19.5409 C.3     1  UNL1        0.0554
     36 C           4.3042   -4.6242   18.8336 C.3     1  UNL1        0.1947
     37 F           3.7463   -5.7896   19.5955 F       1  UNL1       -0.2343
@<TRIPOS>BOND
     1     1     2    1
     2     2     3    2
     3     3     4    1
     4     4    28    1
     5    28    29    1
     6    29    30    1
     7    30    31    1
     8    31    34    1
     9    34    35    1
    10    35    36    1
    11    36    37    1
    12    31    32    1
    13    32    33    1
    14     4     5    2
    15     5     6    1
    16     6     7    2
    17     7     8    1
    18     8    11    1
    19    11    12    1
    20    12    18    1
    21    18    20    1
    22    20    21    1
    23    21    22    1
    24    22    23   ar
    25    23    24   ar
    26    24    25    1
    27    24    26   ar
    28    26    27   ar
    29    12    13    2
    30    13    14    1
    31    14    15    2
    32    15    16    1
    33    16    17    2
    34     8     9    2
    35     9    10    1
    36    10     2    1
    37    33    28    1
    38    10     6    1
    39    16    11    1
    40    27    22   ar
    41    18    19    1
@<TRIPOS>MOLECULE
*****
 37 41 0 0 0
SMALL
GASTEIGER

@<TRIPOS>ATOM
      1 C          -1.7001   -0.3095   29.1652 C.3     1  UNL1        0.0312
      2 C          -0.6702    0.6434   28.6347 C.2     1  UNL1        0.0121
      3 C          -0.3962    0.7077   27.1613 C.2     1  UNL1       -0.0081
      4 C           0.6336    1.6604   26.6309 C.2     1  UNL1       -0.0194
      5 C           1.3896    2.5490   27.5737 C.2     1  UNL1        0.0425
      6 C           1.1157    2.4847   29.0471 C.2     1  UNL1        0.2231
      7 N           1.6987    3.2318   30.2099 N.2     1  UNL1       -0.0378
      8 C           1.0290    2.7406   31.4590 C.2     1  UNL1        0.3605
      9 N           0.0322    1.6900   31.0683 N.2     1  UNL1       -0.0547
     10 C           0.0858    1.5319   29.5776 C.3     1  UNL1        0.2975
     11 C           1.3073    3.2165   32.8541 C.3     1  UNL1        0.2246
     12 C           2.1221    2.3701   33.7866 C.2     1  UNL1        0.0436
     13 C           2.4004    2.8461   35.1817 C.2     1  UNL1        0.0288
     14 C           1.8638    4.1683   35.6441 C.2     1  UNL1        0.0896
     15 N           1.0490    5.0146   34.7115 N.am    1  UNL1       -0.1770
     16 C           0.7708    4.5387   33.3165 C.2     1  UNL1        0.2627
     17 O          -0.0440    5.3850   32.3839 O.2     1  UNL1       -0.2719
     18 N           2.6587    1.0479   33.3243 N.pl3   1  UNL1       -0.3335
     19 H           2.0392    0.3150   33.1043 H       1  UNL1        0.1466
     20 C           4.1390    0.8422   33.1972 C.3     1  UNL1        0.1136
     21 C           4.6721   -0.4406   32.6312 C.3     1  UNL1        0.1486
     22 N           4.6218   -0.6859   31.1522 N.ar    1  UNL1       -0.2468
     23 C           3.4315   -0.4766   30.2638 C.ar    1  UNL1        0.1081
     24 C           3.8271   -0.8449   28.8645 C.ar    1  UNL1        0.0972
     25 CL          2.9431   -0.7866   27.6541 Cl      1  UNL1       -0.0789
     26 C           5.2618   -1.2817   28.8881 C.ar    1  UNL1        0.1330
     27 N           5.7531   -1.1834   30.3021 N.ar    1  UNL1       -0.1667
     28 C           0.9076    1.7247   25.1574 C.3     1  UNL1        0.0252
     29 C           2.1657    1.1262   24.6017 C.3     1  UNL1        0.0217
     30 C           2.4396    1.1905   23.1283 C.3     1  UNL1        0.0724
     31 N           1.4555    1.8533   22.2107 N.3     1  UNL1       -0.2726
     32 C           0.1973    2.4519   22.7665 C.3     1  UNL1        0.0724
     33 C          -0.0766    2.3876   24.2398 C.3     1  UNL1        0.0217
     34 C           1.7293    1.9177   20.7374 C.3     1  UNL1        0.0750
     35 C           1.0301    0.9755   19.8027 C.3     1  UNL1        0.0554
     36 C           0.8797   -0.4711   20.1696 C.3     1  UNL1        0.1947
     37 F           2.0215   -1.2058   20.8071 F       1  UNL1       -0.2343
@<TRIPOS>BOND
     1     1     2    1
     2     2     3    2
     3     3     4    1
     4     4    28    1
     5    28    29    1
     6    29    30    1
     7    30    31    1
     8    31    34    1
     9    34    35    1
    10    35    36    1
    11    36    37    1
    12    31    32    1
    13    32    33    1
    14     4     5    2
    15     5     6    1
    16     6     7    2
    17     7     8    1
    18     8    11    1
    19    11    12    1
    20    12    18    1
    21    18    20    1
    22    20    21    1
    23    21    22    1
    24    22    23   ar
    25    23    24   ar
    26    24    25    1
    27    24    26   ar
    28    26    27   ar
    29    12    13    2
    30    13    14    1
    31    14    15    2
    32    15    16    1
    33    16    17    2
    34     8     9    2
    35     9    10    1
    36    10     2    1
    37    33    28    1
    38    10     6    1
    39    16    11    1
    40    27    22   ar
    41    18    19    1
@<TRIPOS>MOLECULE
*****
 37 41 0 0 0
SMALL
GASTEIGER

@<TRIPOS>ATOM
      1 C          -1.5082   -0.7294   29.0980 C.3     1  UNL1        0.0312
      2 C          -0.8359    0.4928   28.5464 C.2     1  UNL1        0.0121
      3 C          -0.8542    0.7570   27.0699 C.2     1  UNL1       -0.0081
      4 C          -0.1819    1.9791   26.5183 C.2     1  UNL1       -0.0194
      5 C           0.5087    2.9372   27.4431 C.2     1  UNL1        0.0425
      6 C           0.5269    2.6731   28.9195 C.2     1  UNL1        0.2231
      7 N           1.1239    3.4318   30.0676 N.2     1  UNL1       -0.0378
      8 C           0.8206    2.6785   31.3287 C.2     1  UNL1        0.3605
      9 N           0.0362    1.4542   30.9602 N.2     1  UNL1       -0.0547
     10 C          -0.1453    1.4509   29.4712 C.3     1  UNL1        0.2975
     11 C           1.2298    3.0791   32.7151 C.3     1  UNL1        0.2246
     12 C           2.1342    2.1904   33.5164 C.2     1  UNL1        0.0436
     13 C           2.5434    2.5911   34.9028 C.2     1  UNL1        0.0288
     14 C           2.0483    3.8805   35.4879 C.2     1  UNL1        0.0896
     15 N           1.1439    4.7692   34.6865 N.am    1  UNL1       -0.1770
     16 C           0.7347    4.3685   33.3001 C.2     1  UNL1        0.2627
     17 O          -0.1697    5.2573   32.4988 O.2     1  UNL1       -0.2719
     18 N           2.6294    0.9010   32.9315 N.pl3   1  UNL1       -0.3335
     19 H           1.9875    0.2112   32.6464 H       1  UNL1        0.1466
     20 C           4.1027    0.6626   32.7809 C.3     1  UNL1        0.1136
     21 C           4.5954   -0.4934   31.9618 C.3     1  UNL1        0.1486
     22 N           4.1308   -0.6611   30.5455 N.ar    1  UNL1       -0.2468
     23 C           4.9943   -1.0107   29.3699 C.ar    1  UNL1        0.1081
     24 C           4.1182   -1.0743   28.1539 C.ar    1  UNL1        0.0972
     25 CL          4.5681   -1.3923   26.7587 Cl      1  UNL1       -0.0789
     26 C           2.7133   -0.7641   28.5780 C.ar    1  UNL1        0.1330
     27 N           2.7210   -0.5088   30.0562 N.ar    1  UNL1       -0.1667
     28 C          -0.2002    2.2432   25.0418 C.3     1  UNL1        0.0252
     29 C          -1.0666    3.3342   24.4857 C.3     1  UNL1        0.0217
     30 C          -1.0849    3.5984   23.0093 C.3     1  UNL1        0.0724
     31 N          -0.2368    2.7715   22.0889 N.3     1  UNL1       -0.2726
     32 C           0.6295    1.6806   22.6450 C.3     1  UNL1        0.0724
     33 C           0.6478    1.4164   24.1214 C.3     1  UNL1        0.0217
     34 C          -0.2551    3.0356   20.6125 C.3     1  UNL1        0.0750
     35 C          -1.0795    4.1614   20.0621 C.3     1  UNL1        0.0554
     36 C          -2.5345    3.9500   19.7650 C.3     1  UNL1        0.1947
     37 F          -3.2574    2.7753   20.3545 F       1  UNL1       -0.2343
@<TRIPOS>BOND
     1     1     2    1
     2     2     3    2
     3     3     4    1
     4     4    28    1
     5    28    29    1
     6    29    30    1
     7    30    31    1
     8    31    34    1
     9    34    35    1
    10    35    36    1
    11    36    37    1
    12    31    32    1
    13    32    33    1
    14     4     5    2
    15     5     6    1
    16     6     7    2
    17     7     8    1
    18     8    11    1
    19    11    12    1
    20    12    18    1
    21    18    20    1
    22    20    21    1
    23    21    22    1
    24    22    23   ar
    25    23    24   ar
    26    24    25    1
    27    24    26   ar
    28    26    27   ar
    29    12    13    2
    30    13    14    1
    31    14    15    2
    32    15    16    1
    33    16    17    2
    34     8     9    2
    35     9    10    1
    36    10     2    1
    37    33    28    1
    38    10     6    1
    39    16    11    1
    40    27    22   ar
    41    18    19    1
@<TRIPOS>MOLECULE
*****
 37 41 0 0 0
SMALL
GASTEIGER

@<TRIPOS>ATOM
      1 C           3.7579   -4.3210   19.3251 C.3     1  UNL1        0.0312
      2 C           4.1674   -3.5044   20.5149 C.2     1  UNL1        0.0121
      3 C           5.0176   -4.1168   21.5882 C.2     1  UNL1       -0.0081
      4 C           5.4270   -3.3002   22.7779 C.2     1  UNL1       -0.0194
      5 C           4.9862   -1.8712   22.8944 C.2     1  UNL1        0.0425
      6 C           4.1360   -1.2588   21.8211 C.2     1  UNL1        0.2231
      7 N           3.5536    0.1145   21.6634 N.2     1  UNL1       -0.0378
      8 C           2.7842    0.1466   20.3761 C.2     1  UNL1        0.3605
      9 N           2.8911   -1.2068   19.7383 N.2     1  UNL1       -0.0547
     10 C           3.7265   -2.0754   20.6313 C.3     1  UNL1        0.2975
     11 C           2.0388    1.3253   19.8236 C.3     1  UNL1        0.2246
     12 C           2.7921    2.4722   19.2177 C.2     1  UNL1        0.0436
     13 C           2.0466    3.6508   18.6653 C.2     1  UNL1        0.0288
     14 C           0.5479    3.6825   18.7187 C.2     1  UNL1        0.0896
     15 N          -0.2054    2.5356   19.3246 N.am    1  UNL1       -0.1770
     16 C           0.5401    1.3570   19.8771 C.2     1  UNL1        0.2627
     17 O          -0.2132    0.2101   20.4830 O.2     1  UNL1       -0.2719
     18 N           4.2908    2.4405   19.1642 N.pl3   1  UNL1       -0.3335
     19 H           4.8160    2.6064   19.9802 H       1  UNL1        0.1466
     20 C           4.9892    2.1562   17.8676 C.3     1  UNL1        0.1136
     21 C           5.0064    0.7618   17.3150 C.3     1  UNL1        0.1486
     22 N           5.8223   -0.3017   17.9881 N.ar    1  UNL1       -0.2468
     23 C           6.5601   -0.1575   19.2861 C.ar    1  UNL1        0.1081
     24 C           7.2375   -1.4628   19.5817 C.ar    1  UNL1        0.0972
     25 CL          8.0853   -1.7643   20.7819 Cl      1  UNL1       -0.0789
     26 C           6.9184   -2.4137   18.4664 C.ar    1  UNL1        0.1330
     27 N           6.0437   -1.6961   17.4815 N.ar    1  UNL1       -0.1667
     28 C           6.2773   -3.9127   23.8513 C.3     1  UNL1        0.0252
     29 C           7.2456   -5.0058   23.5086 C.3     1  UNL1        0.0217
     30 C           8.0959   -5.6182   24.5819 C.3     1  UNL1        0.0724
     31 N           7.9778   -5.1375   25.9979 N.3     1  UNL1       -0.2726
     32 C           7.0094   -4.0444   26.3406 C.3     1  UNL1        0.0724
     33 C           6.1592   -3.4320   25.2673 C.3     1  UNL1        0.0217
     34 C           8.8280   -5.7499   27.0713 C.3     1  UNL1        0.0750
     35 C           8.3143   -6.9178   27.8600 C.3     1  UNL1        0.0554
     36 C           8.0527   -8.2274   27.1769 C.3     1  UNL1        0.1947
     37 F           8.2551   -9.5146   27.9201 F       1  UNL1       -0.2343
@<TRIPOS>BOND
     1     1     2    1
     2     2     3    2
     3     3     4    1
     4     4    28    1
     5    28    29    1
     6    29    30    1
     7    30    31    1
     8    31    34    1
     9    34    35    1
    10    35    36    1
    11    36    37    1
    12    31    32    1
    13    32    33    1
    14     4     5    2
    15     5     6    1
    16     6     7    2
    17     7     8    1
    18     8    11    1
    19    11    12    1
    20    12    18    1
    21    18    20    1
    22    20    21    1
    23    21    22    1
    24    22    23   ar
    25    23    24   ar
    26    24    25    1
    27    24    26   ar
    28    26    27   ar
    29    12    13    2
    30    13    14    1
    31    14    15    2
    32    15    16    1
    33    16    17    2
    34     8     9    2
    35     9    10    1
    36    10     2    1
    37    33    28    1
    38    10     6    1
    39    16    11    1
    40    27    22   ar
    41    18    19    1
