@<TRIPOS>MOLECULE
*****
 29 31 0 0 0
SMALL
GASTEIGER

@<TRIPOS>ATOM
      1 C           0.1687    1.9641   19.8776 C.ar    1  UNL1        0.2297
      2 C           1.4383    1.9177   19.0800 C.ar    1  UNL1        0.0581
      3 C           2.2845    0.6792   19.0886 C.ar    1  UNL1        0.0063
      4 C           1.8612   -0.5129   19.8946 C.ar    1  UNL1        0.0191
      5 C           0.5917   -0.4665   20.6922 C.ar    1  UNL1        0.1020
      6 N          -0.2545    0.7719   20.6837 N.ar    1  UNL1       -0.2098
      7 C           2.7075   -1.7514   19.9032 C.2     1  UNL1       -0.0014
      8 C           4.0182   -1.7692   19.1739 C.2     1  UNL1       -0.0069
      9 C           4.8643   -3.0077   19.1825 C.3     1  UNL1        0.0939
     10 C           4.2708   -4.3245   18.7775 C.3     1  UNL1        0.0262
     11 N           6.3041   -2.9295   19.5959 N.am    1  UNL1       -0.3022
     12 C           7.3293   -2.3872   18.6446 C.2     1  UNL1        0.2232
     13 C           8.7690   -2.3090   19.0580 C.3     1  UNL1        0.0946
     14 O           6.9146   -1.9232   17.2798 O.2     1  UNL1       -0.2751
     15 H           6.5763   -3.2341   20.4917 H       1  UNL1        0.1497
     16 O          -0.6775    3.2025   19.8691 O.3     1  UNL1       -0.4352
     17 C          -4.4380    3.8452   24.9879 C.ar    1  UNL1        0.2582
     18 N          -5.2212    3.6458   23.7243 N.ar    1  UNL1       -0.2053
     19 C          -4.2471    3.5070   22.5921 C.ar    1  UNL1        0.0920
     20 C          -4.4426    3.2918   21.1206 C.ar    1  UNL1        0.0229
     21 C          -3.2527    3.1903   20.2129 C.ar    1  UNL1        0.0400
     22 C          -1.8674    3.3040   20.7767 C.ar    1  UNL1        0.1582
     23 C          -1.6720    3.5192   22.2484 C.ar    1  UNL1        0.0997
     24 CL         -0.2866    3.6329   22.8122 Cl      1  UNL1       -0.0785
     25 C          -2.8618    3.6207   23.1560 C.ar    1  UNL1        0.0650
     26 S          -2.9798    3.8297   24.6367 S.2     1  UNL1       -0.0277
     27 O          -5.0121    4.0281   26.3616 O.3     1  UNL1       -0.4557
     28 C          -6.6232    6.0605   26.5146 C.3     1  UNL1        0.0512
     29 C          -5.3208    5.4057   26.8682 C.3     1  UNL1        0.2078
@<TRIPOS>BOND
     1    28    29    1
     2    29    27    1
     3    27    17    1
     4    17    18   ar
     5    18    19   ar
     6    19    20   ar
     7    20    21   ar
     8    21    22   ar
     9    22    16    1
    10    16     1    1
    11     1     2   ar
    12     2     3   ar
    13     3     4   ar
    14     4     7    1
    15     7     8    2
    16     8     9    1
    17     9    10    1
    18     9    11    1
    19    11    12   am
    20    12    13    1
    21    12    14    2
    22     4     5   ar
    23     5     6   ar
    24    22    23   ar
    25    23    24    1
    26    23    25   ar
    27    25    26   ar
    28    26    17   ar
    29    25    19   ar
    30     6     1   ar
    31    11    15    1
@<TRIPOS>MOLECULE
*****
 29 31 0 0 0
SMALL
GASTEIGER

@<TRIPOS>ATOM
      1 C           0.2937    1.9818   19.8077 C.ar    1  UNL1        0.2297
      2 C           1.7426    2.1225   19.4460 C.ar    1  UNL1        0.0581
      3 C           2.6717    0.9553   19.6032 C.ar    1  UNL1        0.0063
      4 C           2.1518   -0.3525   20.1221 C.ar    1  UNL1        0.0191
      5 C           0.7029   -0.4932   20.4838 C.ar    1  UNL1        0.1020
      6 N          -0.2262    0.6739   20.3266 N.ar    1  UNL1       -0.2098
      7 C           3.0808   -1.5197   20.2794 C.2     1  UNL1       -0.0014
      8 C           3.7554   -2.1087   19.0761 C.2     1  UNL1       -0.0069
      9 C           4.6844   -3.2758   19.2333 C.3     1  UNL1        0.0939
     10 C           4.1973   -4.6658   18.9489 C.3     1  UNL1        0.0262
     11 N           6.1005   -3.0531   19.6751 N.am    1  UNL1       -0.3022
     12 C           7.1127   -2.5170   18.7065 C.2     1  UNL1        0.2232
     13 C           8.5288   -2.2943   19.1482 C.3     1  UNL1        0.0946
     14 O           6.7089   -2.2038   17.2963 O.2     1  UNL1       -0.2751
     15 H           6.3655   -3.2587   20.6006 H       1  UNL1        0.1497
     16 O          -0.6353    3.1489   19.6505 O.3     1  UNL1       -0.4352
     17 C          -6.2856    4.2920   22.3935 C.ar    1  UNL1        0.2582
     18 N          -5.1912    4.0928   23.3998 N.ar    1  UNL1       -0.2053
     19 C          -3.9165    3.8331   22.6531 C.ar    1  UNL1        0.0920
     20 C          -2.5163    3.5663   23.1201 C.ar    1  UNL1        0.0229
     21 C          -1.4225    3.3383   22.1192 C.ar    1  UNL1        0.0400
     22 C          -1.7290    3.3769   20.6514 C.ar    1  UNL1        0.1582
     23 C          -3.1293    3.6437   20.1844 C.ar    1  UNL1        0.0997
     24 CL         -3.4359    3.6824   18.7166 Cl      1  UNL1       -0.0785
     25 C          -4.2230    3.8718   21.1853 C.ar    1  UNL1        0.0650
     26 S          -5.6872    4.1554   21.0249 S.2     1  UNL1       -0.0277
     27 O          -7.7255    4.5777   22.7018 O.3     1  UNL1       -0.4557
     28 C          -8.9760    6.0008   24.4797 C.3     1  UNL1        0.0512
     29 C          -8.1600    4.7943   24.1210 C.3     1  UNL1        0.2078
@<TRIPOS>BOND
     1    28    29    1
     2    29    27    1
     3    27    17    1
     4    17    18   ar
     5    18    19   ar
     6    19    20   ar
     7    20    21   ar
     8    21    22   ar
     9    22    16    1
    10    16     1    1
    11     1     2   ar
    12     2     3   ar
    13     3     4   ar
    14     4     7    1
    15     7     8    2
    16     8     9    1
    17     9    10    1
    18     9    11    1
    19    11    12   am
    20    12    13    1
    21    12    14    2
    22     4     5   ar
    23     5     6   ar
    24    22    23   ar
    25    23    24    1
    26    23    25   ar
    27    25    26   ar
    28    26    17   ar
    29    25    19   ar
    30     6     1   ar
    31    11    15    1
@<TRIPOS>MOLECULE
*****
 29 31 0 0 0
SMALL
GASTEIGER

@<TRIPOS>ATOM
      1 C           0.1135    1.6695   21.4557 C.ar    1  UNL1        0.2297
      2 C           1.3668    1.7033   22.2792 C.ar    1  UNL1        0.0581
      3 C           2.4000    0.6280   22.1170 C.ar    1  UNL1        0.0063
      4 C           2.1800   -0.4810   21.1314 C.ar    1  UNL1        0.0191
      5 C           0.9268   -0.5148   20.3078 C.ar    1  UNL1        0.1020
      6 N          -0.1065    0.5604   20.4699 N.ar    1  UNL1       -0.2098
      7 C           3.2132   -1.5563   20.9692 C.2     1  UNL1       -0.0014
      8 C           3.5829   -2.0407   19.5985 C.2     1  UNL1       -0.0069
      9 C           4.6161   -3.1159   19.4364 C.3     1  UNL1        0.0939
     10 C           4.2179   -4.4671   18.9206 C.3     1  UNL1        0.0262
     11 N           6.0475   -2.8401   19.7900 N.am    1  UNL1       -0.3022
     12 C           7.0100   -2.3959   18.7286 C.2     1  UNL1        0.2232
     13 C           8.4414   -2.1200   19.0822 C.3     1  UNL1        0.0946
     14 O           6.5411   -2.2275   17.3138 O.2     1  UNL1       -0.2751
     15 H           6.3552   -2.9505   20.7186 H       1  UNL1        0.1497
     16 O          -0.9197    2.7447   21.6178 O.3     1  UNL1       -0.4352
     17 C          -5.5660    4.6763   17.6888 C.ar    1  UNL1        0.2582
     18 N          -4.2175    4.6943   17.0322 N.ar    1  UNL1       -0.2053
     19 C          -3.2066    4.2259   18.0365 C.ar    1  UNL1        0.0920
     20 C          -1.7206    4.0397   17.9529 C.ar    1  UNL1        0.0229
     21 C          -0.9582    3.5459   19.1467 C.ar    1  UNL1        0.0400
     22 C          -1.6820    3.2384   20.4241 C.ar    1  UNL1        0.1582
     23 C          -3.1681    3.4247   20.5076 C.ar    1  UNL1        0.0997
     24 CL         -3.8918    3.1171   21.7850 Cl      1  UNL1       -0.0785
     25 C          -3.9303    3.9184   19.3138 C.ar    1  UNL1        0.0650
     26 S          -5.3885    4.1968   19.0989 S.2     1  UNL1       -0.0277
     27 O          -6.8641    5.0689   17.0478 O.3     1  UNL1       -0.4557
     28 C          -7.5865    7.5622   16.9403 C.3     1  UNL1        0.0512
     29 C          -6.9668    6.3601   16.2914 C.3     1  UNL1        0.2078
@<TRIPOS>BOND
     1    28    29    1
     2    29    27    1
     3    27    17    1
     4    17    18   ar
     5    18    19   ar
     6    19    20   ar
     7    20    21   ar
     8    21    22   ar
     9    22    16    1
    10    16     1    1
    11     1     2   ar
    12     2     3   ar
    13     3     4   ar
    14     4     7    1
    15     7     8    2
    16     8     9    1
    17     9    10    1
    18     9    11    1
    19    11    12   am
    20    12    13    1
    21    12    14    2
    22     4     5   ar
    23     5     6   ar
    24    22    23   ar
    25    23    24    1
    26    23    25   ar
    27    25    26   ar
    28    26    17   ar
    29    25    19   ar
    30     6     1   ar
    31    11    15    1
@<TRIPOS>MOLECULE
*****
 29 31 0 0 0
SMALL
GASTEIGER

@<TRIPOS>ATOM
      1 C           1.4478    2.9030   18.5209 C.ar    1  UNL1        0.2297
      2 C           0.9425    1.5029   18.3351 C.ar    1  UNL1        0.0581
      3 C           1.8574    0.3379   18.5710 C.ar    1  UNL1        0.0063
      4 C           3.2776    0.5728   18.9927 C.ar    1  UNL1        0.0191
      5 C           3.7829    1.9729   19.1785 C.ar    1  UNL1        0.1020
      6 N           2.8681    3.1379   18.9426 N.ar    1  UNL1       -0.2098
      7 C           4.1925   -0.5923   19.2285 C.2     1  UNL1       -0.0014
      8 C           3.7248   -1.9857   18.9293 C.2     1  UNL1       -0.0069
      9 C           4.6397   -3.1507   19.1652 C.3     1  UNL1        0.0939
     10 C           4.1575   -4.5474   18.9068 C.3     1  UNL1        0.0262
     11 N           6.0369   -2.9191   19.6595 N.am    1  UNL1       -0.3022
     12 C           7.1046   -2.4692   18.7067 C.2     1  UNL1        0.2232
     13 C           8.5017   -2.2376   19.2009 C.3     1  UNL1        0.0946
     14 O           6.7751   -2.2510   17.2597 O.2     1  UNL1       -0.2751
     15 H           6.2532   -3.0623   20.6092 H       1  UNL1        0.1497
     16 O           0.5330    4.0680   18.2851 O.3     1  UNL1       -0.4352
     17 C          -4.9229    3.6229   21.5702 C.ar    1  UNL1        0.2582
     18 N          -5.1504    3.6787   20.0886 N.ar    1  UNL1       -0.2053
     19 C          -3.8127    3.7817   19.4178 C.ar    1  UNL1        0.0920
     20 C          -3.4184    3.8693   17.9732 C.ar    1  UNL1        0.0229
     21 C          -1.9698    3.9648   17.5956 C.ar    1  UNL1        0.0400
     22 C          -0.9155    3.9726   18.6626 C.ar    1  UNL1        0.1582
     23 C          -1.3099    3.8849   20.1072 C.ar    1  UNL1        0.0997
     24 CL         -0.2557    3.8928   21.1742 Cl      1  UNL1       -0.0785
     25 C          -2.7584    3.7895   20.4848 C.ar    1  UNL1        0.0650
     26 S          -3.4446    3.6914   21.8150 S.2     1  UNL1       -0.0277
     27 O          -5.9869    3.5172   22.6222 O.3     1  UNL1       -0.4557
     28 C          -8.1064    4.4781   23.7773 C.3     1  UNL1        0.0512
     29 C          -7.1051    4.5162   22.6611 C.3     1  UNL1        0.2078
@<TRIPOS>BOND
     1    28    29    1
     2    29    27    1
     3    27    17    1
     4    17    18   ar
     5    18    19   ar
     6    19    20   ar
     7    20    21   ar
     8    21    22   ar
     9    22    16    1
    10    16     1    1
    11     1     2   ar
    12     2     3   ar
    13     3     4   ar
    14     4     7    1
    15     7     8    2
    16     8     9    1
    17     9    10    1
    18     9    11    1
    19    11    12   am
    20    12    13    1
    21    12    14    2
    22     4     5   ar
    23     5     6   ar
    24    22    23   ar
    25    23    24    1
    26    23    25   ar
    27    25    26   ar
    28    26    17   ar
    29    25    19   ar
    30     6     1   ar
    31    11    15    1
@<TRIPOS>MOLECULE
*****
 29 31 0 0 0
SMALL
GASTEIGER

@<TRIPOS>ATOM
      1 C           8.7034   -4.3665   24.6724 C.ar    1  UNL1        0.2297
      2 C           7.2197   -4.1797   24.7902 C.ar    1  UNL1        0.0581
      3 C           6.3908   -3.9642   23.5587 C.ar    1  UNL1        0.0063
      4 C           7.0456   -3.9354   22.2095 C.ar    1  UNL1        0.0191
      5 C           8.5292   -4.1222   22.0917 C.ar    1  UNL1        0.1020
      6 N           9.3581   -4.3377   23.3231 N.ar    1  UNL1       -0.2098
      7 C           6.2167   -3.7199   20.9780 C.2     1  UNL1       -0.0014
      8 C           4.7198   -3.7117   21.0734 C.2     1  UNL1       -0.0069
      9 C           3.8909   -3.4961   19.8419 C.3     1  UNL1        0.0939
     10 C           3.5069   -4.6640   18.9824 C.3     1  UNL1        0.0262
     11 N           3.4461   -2.1128   19.4699 N.am    1  UNL1       -0.3022
     12 C           4.0604   -1.4193   18.2901 C.2     1  UNL1        0.2232
     13 C           3.6155   -0.0359   17.9181 C.3     1  UNL1        0.0946
     14 O           5.1194   -2.1092   17.4824 O.2     1  UNL1       -0.2751
     15 H           2.7510   -1.6600   20.0000 H       1  UNL1        0.1497
     16 O           9.5323   -4.5820   25.9038 O.3     1  UNL1       -0.4352
     17 C           6.6006   -3.9739   31.5423 C.ar    1  UNL1        0.2582
     18 N           6.8418   -5.4080   31.1749 N.ar    1  UNL1       -0.2053
     19 C           7.5303   -5.4358   29.8425 C.ar    1  UNL1        0.0920
     20 C           8.0132   -6.5682   28.9856 C.ar    1  UNL1        0.0229
     21 C           8.6805   -6.2837   27.6727 C.ar    1  UNL1        0.0400
     22 C           8.8650   -4.8666   27.2167 C.ar    1  UNL1        0.1582
     23 C           8.3821   -3.7341   28.0737 C.ar    1  UNL1        0.0997
     24 CL          8.5665   -2.3170   27.6177 Cl      1  UNL1       -0.0785
     25 C           7.7148   -4.0187   29.3865 C.ar    1  UNL1        0.0650
     26 S           7.1402   -3.1152   30.4371 S.2     1  UNL1       -0.0277
     27 O           5.9366   -3.4843   32.7951 O.3     1  UNL1       -0.4557
     28 C           4.2878   -1.8620   33.9780 C.3     1  UNL1        0.0512
     29 C           4.8884   -2.4141   32.7192 C.3     1  UNL1        0.2078
@<TRIPOS>BOND
     1    28    29    1
     2    29    27    1
     3    27    17    1
     4    17    18   ar
     5    18    19   ar
     6    19    20   ar
     7    20    21   ar
     8    21    22   ar
     9    22    16    1
    10    16     1    1
    11     1     2   ar
    12     2     3   ar
    13     3     4   ar
    14     4     7    1
    15     7     8    2
    16     8     9    1
    17     9    10    1
    18     9    11    1
    19    11    12   am
    20    12    13    1
    21    12    14    2
    22     4     5   ar
    23     5     6   ar
    24    22    23   ar
    25    23    24    1
    26    23    25   ar
    27    25    26   ar
    28    26    17   ar
    29    25    19   ar
    30     6     1   ar
    31    11    15    1
@<TRIPOS>MOLECULE
*****
 29 31 0 0 0
SMALL
GASTEIGER

@<TRIPOS>ATOM
      1 C           7.1819   -2.5787   25.6893 C.ar    1  UNL1        0.2297
      2 C           7.1949   -3.9644   25.1153 C.ar    1  UNL1        0.0581
      3 C           6.3493   -4.2888   23.9195 C.ar    1  UNL1        0.0063
      4 C           5.4907   -3.2276   23.2979 C.ar    1  UNL1        0.0191
      5 C           5.4777   -1.8418   23.8719 C.ar    1  UNL1        0.1020
      6 N           6.3232   -1.5174   25.0676 N.ar    1  UNL1       -0.2098
      7 C           4.6451   -3.5520   22.1021 C.2     1  UNL1       -0.0014
      8 C           5.2619   -3.5896   20.7353 C.2     1  UNL1       -0.0069
      9 C           4.4163   -3.9140   19.5396 C.3     1  UNL1        0.0939
     10 C           3.4735   -5.0800   19.5818 C.3     1  UNL1        0.0262
     11 N           4.5134   -3.0724   18.3017 N.am    1  UNL1       -0.3022
     12 C           3.8303   -1.7381   18.2465 C.2     1  UNL1        0.2232
     13 C           3.9273   -0.8965   17.0086 C.3     1  UNL1        0.0946
     14 O           3.0501   -1.2454   19.4291 O.2     1  UNL1       -0.2751
     15 H           5.0254   -3.3958   17.5256 H       1  UNL1        0.1497
     16 O           8.0274   -2.2542   26.8850 O.3     1  UNL1       -0.4352
     17 C           5.2722   -2.4121   32.6419 C.ar    1  UNL1        0.2582
     18 N           6.0863   -3.6408   32.3636 N.ar    1  UNL1       -0.2053
     19 C           6.6846   -3.5005   30.9952 C.ar    1  UNL1        0.0920
     20 C           7.5765   -4.4006   30.1926 C.ar    1  UNL1        0.0229
     21 C           8.0241   -3.9852   28.8225 C.ar    1  UNL1        0.0400
     22 C           7.5798   -2.6696   28.2551 C.ar    1  UNL1        0.1582
     23 C           6.6878   -1.7695   29.0578 C.ar    1  UNL1        0.0997
     24 CL          6.2435   -0.4540   28.4903 Cl      1  UNL1       -0.0785
     25 C           6.2402   -2.1850   30.4278 C.ar    1  UNL1        0.0650
     26 S           5.3674   -1.5123   31.4455 S.2     1  UNL1       -0.0277
     27 O           4.4988   -2.1323   33.8963 O.3     1  UNL1       -0.4557
     28 C           4.9035   -0.4606   35.8435 C.3     1  UNL1        0.0512
     29 C           4.4383   -0.7374   34.4446 C.3     1  UNL1        0.2078
@<TRIPOS>BOND
     1    28    29    1
     2    29    27    1
     3    27    17    1
     4    17    18   ar
     5    18    19   ar
     6    19    20   ar
     7    20    21   ar
     8    21    22   ar
     9    22    16    1
    10    16     1    1
    11     1     2   ar
    12     2     3   ar
    13     3     4   ar
    14     4     7    1
    15     7     8    2
    16     8     9    1
    17     9    10    1
    18     9    11    1
    19    11    12   am
    20    12    13    1
    21    12    14    2
    22     4     5   ar
    23     5     6   ar
    24    22    23   ar
    25    23    24    1
    26    23    25   ar
    27    25    26   ar
    28    26    17   ar
    29    25    19   ar
    30     6     1   ar
    31    11    15    1
@<TRIPOS>MOLECULE
*****
 29 31 0 0 0
SMALL
GASTEIGER

@<TRIPOS>ATOM
      1 C           1.1177    1.4997   24.3611 C.ar    1  UNL1        0.2297
      2 C           2.2222    0.4901   24.2580 C.ar    1  UNL1        0.0581
      3 C           2.5068   -0.1788   22.9459 C.ar    1  UNL1        0.0063
      4 C           1.6869    0.1619   21.7369 C.ar    1  UNL1        0.0191
      5 C           0.5823    1.1715   21.8400 C.ar    1  UNL1        0.1020
      6 N           0.2977    1.8404   23.1521 N.ar    1  UNL1       -0.2098
      7 C           1.9714   -0.5070   20.4248 C.2     1  UNL1       -0.0014
      8 C           3.3890   -0.7134   19.9800 C.2     1  UNL1       -0.0069
      9 C           3.6735   -1.3822   18.6679 C.3     1  UNL1        0.0939
     10 C           4.0390   -0.5576   17.4694 C.3     1  UNL1        0.0262
     11 N           3.5926   -2.8757   18.5543 N.am    1  UNL1       -0.3022
     12 C           4.7941   -3.7179   18.8665 C.2     1  UNL1        0.2232
     13 C           4.7131   -5.2114   18.7529 C.3     1  UNL1        0.0946
     14 O           6.0764   -3.0665   19.2923 O.2     1  UNL1       -0.2751
     15 H           2.7510   -3.3033   18.2749 H       1  UNL1        0.1497
     16 O           0.8331    2.1686   25.6732 O.3     1  UNL1       -0.4352
     17 C           3.6277   -0.0460   30.9687 C.ar    1  UNL1        0.2582
     18 N           2.2336   -0.5716   30.7951 N.ar    1  UNL1       -0.2053
     19 C           1.6740    0.0074   29.5296 C.ar    1  UNL1        0.0920
     20 C           0.3454   -0.1557   28.8527 C.ar    1  UNL1        0.0229
     21 C           0.0651    0.5647   27.5672 C.ar    1  UNL1        0.0400
     22 C           1.1134    1.4482   26.9586 C.ar    1  UNL1        0.1582
     23 C           2.4420    1.6113   27.6355 C.ar    1  UNL1        0.0997
     24 CL          3.4903    2.4949   27.0269 Cl      1  UNL1       -0.0785
     25 C           2.7223    0.8909   28.9209 C.ar    1  UNL1        0.0650
     26 S           3.9297    0.8579   29.8104 S.2     1  UNL1       -0.0277
     27 O           4.5566   -0.3677   32.1017 O.3     1  UNL1       -0.4557
     28 C           4.4632   -2.6716   33.2989 C.3     1  UNL1        0.0512
     29 C           4.0832   -1.2217   33.2403 C.3     1  UNL1        0.2078
@<TRIPOS>BOND
     1    28    29    1
     2    29    27    1
     3    27    17    1
     4    17    18   ar
     5    18    19   ar
     6    19    20   ar
     7    20    21   ar
     8    21    22   ar
     9    22    16    1
    10    16     1    1
    11     1     2   ar
    12     2     3   ar
    13     3     4   ar
    14     4     7    1
    15     7     8    2
    16     8     9    1
    17     9    10    1
    18     9    11    1
    19    11    12   am
    20    12    13    1
    21    12    14    2
    22     4     5   ar
    23     5     6   ar
    24    22    23   ar
    25    23    24    1
    26    23    25   ar
    27    25    26   ar
    28    26    17   ar
    29    25    19   ar
    30     6     1   ar
    31    11    15    1
@<TRIPOS>MOLECULE
*****
 29 31 0 0 0
SMALL
GASTEIGER

@<TRIPOS>ATOM
      1 C           1.0017    2.1575   20.9075 C.ar    1  UNL1        0.2297
      2 C           0.4043    0.7938   21.0905 C.ar    1  UNL1        0.0581
      3 C           1.1196   -0.4152   20.5644 C.ar    1  UNL1        0.0063
      4 C           2.4323   -0.2604   19.8553 C.ar    1  UNL1        0.0191
      5 C           3.0298    1.1032   19.6723 C.ar    1  UNL1        0.1020
      6 N           2.3145    2.3122   20.1984 N.ar    1  UNL1       -0.2098
      7 C           3.1477   -1.4694   19.3292 C.2     1  UNL1       -0.0014
      8 C           3.7321   -2.4691   20.2827 C.2     1  UNL1       -0.0069
      9 C           4.4474   -3.6780   19.7566 C.3     1  UNL1        0.0939
     10 C           3.6655   -4.8826   19.3231 C.3     1  UNL1        0.0262
     11 N           5.9445   -3.6824   19.6639 N.am    1  UNL1       -0.3022
     12 C           6.7701   -3.9948   20.8767 C.2     1  UNL1        0.2232
     13 C           8.2672   -3.9992   20.7840 C.3     1  UNL1        0.0946
     14 O           6.0986   -4.3026   22.1822 O.2     1  UNL1       -0.2751
     15 H           6.3852   -3.4804   18.8071 H       1  UNL1        0.1497
     16 O           0.2864    3.3664   21.4336 O.3     1  UNL1       -0.4352
     17 C          -5.9770    3.9219   22.5371 C.ar    1  UNL1        0.2582
     18 N          -5.6565    3.8720   21.0726 N.ar    1  UNL1       -0.2053
     19 C          -4.1692    3.7419   20.9276 C.ar    1  UNL1        0.0920
     20 C          -3.2828    3.6473   19.7213 C.ar    1  UNL1        0.0229
     21 C          -1.7975    3.5221   19.8899 C.ar    1  UNL1        0.0400
     22 C          -1.1987    3.4916   21.2649 C.ar    1  UNL1        0.1582
     23 C          -2.0853    3.5862   22.4713 C.ar    1  UNL1        0.0997
     24 CL         -1.4865    3.5557   23.8462 Cl      1  UNL1       -0.0785
     25 C          -3.5705    3.7114   22.3026 C.ar    1  UNL1        0.0650
     26 S          -4.6877    3.8226   23.2973 S.2     1  UNL1       -0.0277
     27 O          -7.3463    4.0488   23.1362 O.3     1  UNL1       -0.4557
     28 C          -8.5914    5.7176   24.6902 C.3     1  UNL1        0.0512
     29 C          -7.9367    5.4065   23.3769 C.3     1  UNL1        0.2078
@<TRIPOS>BOND
     1    28    29    1
     2    29    27    1
     3    27    17    1
     4    17    18   ar
     5    18    19   ar
     6    19    20   ar
     7    20    21   ar
     8    21    22   ar
     9    22    16    1
    10    16     1    1
    11     1     2   ar
    12     2     3   ar
    13     3     4   ar
    14     4     7    1
    15     7     8    2
    16     8     9    1
    17     9    10    1
    18     9    11    1
    19    11    12   am
    20    12    13    1
    21    12    14    2
    22     4     5   ar
    23     5     6   ar
    24    22    23   ar
    25    23    24    1
    26    23    25   ar
    27    25    26   ar
    28    26    17   ar
    29    25    19   ar
    30     6     1   ar
    31    11    15    1
@<TRIPOS>MOLECULE
*****
 29 31 0 0 0
SMALL
GASTEIGER

@<TRIPOS>ATOM
      1 C           0.9363    1.6157   23.7773 C.ar    1  UNL1        0.2297
      2 C           2.0711    0.6693   24.0354 C.ar    1  UNL1        0.0581
      3 C           2.6010   -0.1871   22.9238 C.ar    1  UNL1        0.0063
      4 C           1.9962   -0.0973   21.5541 C.ar    1  UNL1        0.0191
      5 C           0.8613    0.8490   21.2960 C.ar    1  UNL1        0.1020
      6 N           0.3314    1.7055   22.4076 N.ar    1  UNL1       -0.2098
      7 C           2.5261   -0.9538   20.4425 C.2     1  UNL1       -0.0014
      8 C           3.3165   -0.3330   19.3290 C.2     1  UNL1       -0.0069
      9 C           3.8464   -1.1895   18.2174 C.3     1  UNL1        0.0939
     10 C           4.5296   -0.5552   17.0423 C.3     1  UNL1        0.0262
     11 N           3.6931   -2.6803   18.2809 N.am    1  UNL1       -0.3022
     12 C           4.8083   -3.5266   18.8197 C.2     1  UNL1        0.2232
     13 C           4.6550   -5.0174   18.8832 C.3     1  UNL1        0.0946
     14 O           6.0766   -2.8822   19.2949 O.2     1  UNL1       -0.2751
     15 H           2.8606   -3.1033   17.9690 H       1  UNL1        0.1497
     16 O           0.4063    2.4721   24.8888 O.3     1  UNL1       -0.4352
     17 C           2.2983    1.5911   30.9222 C.ar    1  UNL1        0.2582
     18 N           1.0750    0.7917   30.5839 N.ar    1  UNL1       -0.2053
     19 C           0.7194    1.0712   29.1537 C.ar    1  UNL1        0.0920
     20 C          -0.3886    0.5660   28.2778 C.ar    1  UNL1        0.0229
     21 C          -0.4930    1.0330   26.8561 C.ar    1  UNL1        0.0400
     22 C           0.5106    2.0051   26.3104 C.ar    1  UNL1        0.1582
     23 C           1.6186    2.5103   27.1864 C.ar    1  UNL1        0.0997
     24 CL          2.6222    3.4824   26.6407 Cl      1  UNL1       -0.0785
     25 C           1.7230    2.0433   28.6080 C.ar    1  UNL1        0.0650
     26 S           2.6988    2.3646   29.7010 S.2     1  UNL1       -0.0277
     27 O           2.9982    1.6131   32.2487 O.3     1  UNL1       -0.4557
     28 C           1.5998    3.3870   33.5323 C.3     1  UNL1        0.0512
     29 C           2.2568    2.0395   33.4809 C.3     1  UNL1        0.2078
@<TRIPOS>BOND
     1    28    29    1
     2    29    27    1
     3    27    17    1
     4    17    18   ar
     5    18    19   ar
     6    19    20   ar
     7    20    21   ar
     8    21    22   ar
     9    22    16    1
    10    16     1    1
    11     1     2   ar
    12     2     3   ar
    13     3     4   ar
    14     4     7    1
    15     7     8    2
    16     8     9    1
    17     9    10    1
    18     9    11    1
    19    11    12   am
    20    12    13    1
    21    12    14    2
    22     4     5   ar
    23     5     6   ar
    24    22    23   ar
    25    23    24    1
    26    23    25   ar
    27    25    26   ar
    28    26    17   ar
    29    25    19   ar
    30     6     1   ar
    31    11    15    1
