@<TRIPOS>MOLECULE
*****
 33 36 0 0 0
SMALL
GASTEIGER

@<TRIPOS>ATOM
      1 N          -8.1527  -19.3781   20.5739 N.am    1  UNL1       -0.2723
      2 C          -9.3450  -19.3633   19.6640 C.2     1  UNL1        0.2685
      3 O          -9.3322  -20.1675   18.3978 O.2     1  UNL1       -0.2682
      4 N          -8.2048  -16.0992   25.7370 N.3     1  UNL1       -0.2704
      5 C          -7.6218  -15.6674   24.4241 C.3     1  UNL1        0.0722
      6 C          -7.8295  -16.7776   23.4371 C.3     1  UNL1        0.0190
      7 C          -7.5975  -17.1969   22.0156 C.3     1  UNL1        0.0213
      8 C          -8.1654  -18.5740   21.8401 C.3     1  UNL1        0.0761
      9 C          -8.7484  -19.0059   23.1529 C.3     1  UNL1        0.0213
     10 C          -8.5407  -17.8957   24.1399 C.3     1  UNL1        0.0190
     11 C          -8.7727  -17.4764   25.5613 C.3     1  UNL1        0.0722
     12 C          -8.2176  -15.2951   27.0032 C.3     1  UNL1        0.1077
     13 C          -5.6384  -15.0094   26.8747 C.3     1  UNL1        0.0396
     14 C          -6.9562  -14.6484   27.4937 C.3     1  UNL1        0.1769
     15 F          -7.0125  -13.6405   28.6033 F       1  UNL1       -0.2358
     16 C         -10.5503  -18.5444   20.0202 C.ar    1  UNL1        0.1535
     17 C         -11.5783  -18.8928   21.0555 C.ar    1  UNL1        0.1012
     18 N         -12.6024  -17.7970   21.0788 N.ar    1  UNL1       -0.3057
     19 C         -13.8096  -17.7372   21.9671 C.3     1  UNL1        0.1321
     20 C         -12.2073  -16.7715   20.0579 C.ar    1  UNL1        0.1787
     21 N         -10.9390  -17.2335   19.4037 N.ar    1  UNL1       -0.2192
     22 C          -6.9475  -20.1970   20.2176 C.3     1  UNL1        0.1205
     23 C          -5.5950  -19.8054   20.7347 C.ar    1  UNL1        0.0007
     24 C          -5.3280  -19.8039   22.2108 C.ar    1  UNL1       -0.0024
     25 C          -3.9755  -19.4122   22.7278 C.ar    1  UNL1        0.0028
     26 C          -2.8900  -19.0220   21.7688 C.ar    1  UNL1        0.0372
     27 C          -3.1571  -19.0235   20.2928 C.ar    1  UNL1        0.1465
     28 C          -4.5096  -19.4152   19.7757 C.ar    1  UNL1        0.0346
     29 O          -2.0717  -18.6334   19.3339 O.3     1  UNL1       -0.4045
     30 C          -1.0555  -17.6036   19.7299 C.3     1  UNL1        0.5753
     31 F          -0.0393  -16.5738   20.1260 F       1  UNL1       -0.1328
     32 F          -2.1450  -16.5821   19.8696 F       1  UNL1       -0.1328
     33 F           0.0341  -18.6251   19.5902 F       1  UNL1       -0.1328
@<TRIPOS>BOND
     1    13    14    1
     2    14    15    1
     3    14    12    1
     4    12     4    1
     5     4     5    1
     6     6     5    1
     7     6     7    1
     8     7     8    1
     9     8     1    1
    10     1    22    1
    11    22    23    1
    12    23    24   ar
    13    24    25   ar
    14    25    26   ar
    15    26    27   ar
    16    27    29    1
    17    29    30    1
    18    30    31    1
    19    30    32    1
    20    30    33    1
    21    27    28   ar
    22     1     2   am
    23     2     3    2
    24     2    16    1
    25    16    17   ar
    26    17    18   ar
    27    18    19    1
    28    18    20   ar
    29    20    21   ar
    30     8     9    1
    31    10     9    1
    32    10    11    1
    33    11     4    1
    34    10     6    1
    35    28    23   ar
    36    21    16   ar
@<TRIPOS>MOLECULE
*****
 33 36 0 0 0
SMALL
GASTEIGER

@<TRIPOS>ATOM
      1 N          -8.0330  -19.5303   20.8611 N.am    1  UNL1       -0.2723
      2 C          -9.1239  -19.4867   19.8325 C.2     1  UNL1        0.2685
      3 O          -9.0214  -20.3272   18.5944 O.2     1  UNL1       -0.2682
      4 N          -8.4512  -16.1027   25.9097 N.3     1  UNL1       -0.2704
      5 C          -7.9045  -15.6587   24.5853 C.3     1  UNL1        0.0722
      6 C          -7.9928  -16.8164   23.6357 C.3     1  UNL1        0.0190
      7 C          -7.7095  -17.2575   22.2302 C.3     1  UNL1        0.0213
      8 C          -8.1356  -18.6897   22.0992 C.3     1  UNL1        0.0761
      9 C          -8.6822  -19.1338   23.4235 C.3     1  UNL1        0.0213
     10 C          -8.5940  -17.9760   24.3731 C.3     1  UNL1        0.0190
     11 C          -8.8772  -17.5349   25.7785 C.3     1  UNL1        0.0722
     12 C          -8.5537  -15.2622   27.1478 C.3     1  UNL1        0.1077
     13 C          -5.9682  -15.0292   27.2522 C.3     1  UNL1        0.0396
     14 C          -7.3309  -14.5961   27.7055 C.3     1  UNL1        0.1769
     15 F          -7.4707  -13.4969   28.7167 F       1  UNL1       -0.2358
     16 C         -10.3175  -18.6025   20.0420 C.ar    1  UNL1        0.1535
     17 C         -11.4224  -18.8324   21.0301 C.ar    1  UNL1        0.1012
     18 N         -12.4033  -17.7051   20.8989 N.ar    1  UNL1       -0.3057
     19 C         -13.6620  -17.5344   21.6968 C.3     1  UNL1        0.1321
     20 C         -11.9047  -16.7787   19.8298 C.ar    1  UNL1        0.1787
     21 N         -10.6155  -17.3333   19.3003 N.ar    1  UNL1       -0.2192
     22 C          -6.8396  -20.4144   20.6515 C.3     1  UNL1        0.1205
     23 C          -5.4560  -19.8550   20.8023 C.ar    1  UNL1        0.0007
     24 C          -4.4251  -20.1081   19.7424 C.ar    1  UNL1       -0.0024
     25 C          -3.0415  -19.5486   19.8932 C.ar    1  UNL1        0.0028
     26 C          -2.6889  -18.7361   21.1038 C.ar    1  UNL1        0.0372
     27 C          -3.7198  -18.4830   22.1635 C.ar    1  UNL1        0.1465
     28 C          -5.1034  -19.0425   22.0128 C.ar    1  UNL1        0.0346
     29 O          -3.3671  -17.6705   23.3741 O.3     1  UNL1       -0.4045
     30 C          -4.0284  -16.3443   23.6059 C.3     1  UNL1        0.5753
     31 F          -4.6897  -15.0180   23.8377 F       1  UNL1       -0.1328
     32 F          -4.8410  -16.9433   24.7153 F       1  UNL1       -0.1328
     33 F          -3.2158  -15.7452   22.4965 F       1  UNL1       -0.1328
@<TRIPOS>BOND
     1    13    14    1
     2    14    15    1
     3    14    12    1
     4    12     4    1
     5     4     5    1
     6     6     5    1
     7     6     7    1
     8     7     8    1
     9     8     1    1
    10     1    22    1
    11    22    23    1
    12    23    24   ar
    13    24    25   ar
    14    25    26   ar
    15    26    27   ar
    16    27    29    1
    17    29    30    1
    18    30    31    1
    19    30    32    1
    20    30    33    1
    21    27    28   ar
    22     1     2   am
    23     2     3    2
    24     2    16    1
    25    16    17   ar
    26    17    18   ar
    27    18    19    1
    28    18    20   ar
    29    20    21   ar
    30     8     9    1
    31    10     9    1
    32    10    11    1
    33    11     4    1
    34    10     6    1
    35    28    23   ar
    36    21    16   ar
@<TRIPOS>MOLECULE
*****
 33 36 0 0 0
SMALL
GASTEIGER

@<TRIPOS>ATOM
      1 N          -8.6521  -19.1310   20.5542 N.am    1  UNL1       -0.2723
      2 C          -7.4437  -19.8103   19.9812 C.2     1  UNL1        0.2685
      3 O          -7.5501  -20.5671   18.6905 O.2     1  UNL1       -0.2682
      4 N          -8.2180  -16.0449   25.8172 N.3     1  UNL1       -0.2704
      5 C          -7.7538  -15.5662   24.4735 C.3     1  UNL1        0.0722
      6 C          -8.0562  -16.6387   23.4694 C.3     1  UNL1        0.0190
      7 C          -7.9563  -17.0058   22.0185 C.3     1  UNL1        0.0213
      8 C          -8.5456  -18.3742   21.8449 C.3     1  UNL1        0.0761
      9 C          -9.0098  -18.8529   23.1884 C.3     1  UNL1        0.0213
     10 C          -8.7074  -17.7803   24.1925 C.3     1  UNL1        0.0190
     11 C          -8.8073  -17.4133   25.6435 C.3     1  UNL1        0.0722
     12 C          -8.1115  -15.2880   27.1079 C.3     1  UNL1        0.1077
     13 C          -5.5494  -15.0083   26.7805 C.3     1  UNL1        0.0396
     14 C          -6.8174  -14.6318   27.4880 C.3     1  UNL1        0.1769
     15 F          -6.7912  -13.5990   28.5755 F       1  UNL1       -0.2358
     16 C          -6.1288  -19.7327   20.6989 C.ar    1  UNL1        0.1535
     17 C          -4.8259  -19.2843   20.1061 C.ar    1  UNL1        0.1012
     18 N          -3.7778  -19.3645   21.1763 N.ar    1  UNL1       -0.3057
     19 C          -2.3289  -19.0091   21.0198 C.3     1  UNL1        0.1321
     20 C          -4.4330  -19.8624   22.4304 C.ar    1  UNL1        0.1787
     21 N          -5.8860  -20.0900   22.1353 N.ar    1  UNL1       -0.2192
     22 C          -9.9669  -19.2085   19.8365 C.3     1  UNL1        0.1205
     23 C         -11.0541  -18.2252   20.1544 C.ar    1  UNL1        0.0007
     24 C         -11.1550  -16.9431   19.3822 C.ar    1  UNL1       -0.0024
     25 C         -12.2422  -15.9597   19.7001 C.ar    1  UNL1        0.0028
     26 C         -13.2284  -16.2585   20.7902 C.ar    1  UNL1        0.0372
     27 C         -13.1274  -17.5405   21.5623 C.ar    1  UNL1        0.1465
     28 C         -12.0402  -18.5238   21.2444 C.ar    1  UNL1        0.0346
     29 O         -14.1136  -17.8391   22.6523 O.3     1  UNL1       -0.4045
     30 C         -13.6284  -18.1773   24.0308 C.3     1  UNL1        0.5753
     31 F         -13.1431  -18.5154   25.4093 F       1  UNL1       -0.1328
     32 F         -14.9795  -18.7335   24.3700 F       1  UNL1       -0.1328
     33 F         -12.2772  -17.6211   23.6916 F       1  UNL1       -0.1328
@<TRIPOS>BOND
     1    13    14    1
     2    14    15    1
     3    14    12    1
     4    12     4    1
     5     4     5    1
     6     6     5    1
     7     6     7    1
     8     7     8    1
     9     8     1    1
    10     1    22    1
    11    22    23    1
    12    23    24   ar
    13    24    25   ar
    14    25    26   ar
    15    26    27   ar
    16    27    29    1
    17    29    30    1
    18    30    31    1
    19    30    32    1
    20    30    33    1
    21    27    28   ar
    22     1     2   am
    23     2     3    2
    24     2    16    1
    25    16    17   ar
    26    17    18   ar
    27    18    19    1
    28    18    20   ar
    29    20    21   ar
    30     8     9    1
    31    10     9    1
    32    10    11    1
    33    11     4    1
    34    10     6    1
    35    28    23   ar
    36    21    16   ar
@<TRIPOS>MOLECULE
*****
 33 36 0 0 0
SMALL
GASTEIGER

@<TRIPOS>ATOM
      1 N           4.1085    1.6702   32.8296 N.am    1  UNL1       -0.2723
      2 C           3.0479    2.2279   31.9274 C.2     1  UNL1        0.2685
      3 O           2.4412    3.5677   32.2219 O.2     1  UNL1       -0.2682
      4 N           6.5826   -3.7931   31.6286 N.3     1  UNL1       -0.2704
      5 C           5.5514   -3.5039   32.6788 C.3     1  UNL1        0.0722
      6 C           5.2320   -2.0393   32.6239 C.3     1  UNL1        0.0190
      7 C           4.3973   -0.9554   33.2391 C.3     1  UNL1        0.0213
      8 C           4.7152    0.3304   32.5351 C.3     1  UNL1        0.0761
      9 C           5.7464    0.0412   31.4849 C.3     1  UNL1        0.0213
     10 C           6.0658   -1.4234   31.5398 C.3     1  UNL1        0.0190
     11 C           6.9005   -2.5073   30.9246 C.3     1  UNL1        0.0722
     12 C           7.1893   -5.1330   31.3341 C.3     1  UNL1        0.1077
     13 C           8.3387   -6.5272   29.4673 C.3     1  UNL1        0.0396
     14 C           7.2089   -5.6547   29.9279 C.3     1  UNL1        0.1769
     15 F           6.0985   -5.3038   28.9822 F       1  UNL1       -0.2358
     16 C           2.5941    1.4458   30.7305 C.ar    1  UNL1        0.1535
     17 C           3.0454    1.6579   29.3158 C.ar    1  UNL1        0.1012
     18 N           2.3394    0.6574   28.4492 N.ar    1  UNL1       -0.3057
     19 C           2.4939    0.5127   26.9642 C.3     1  UNL1        0.1321
     20 C           1.4519   -0.1728   29.3284 C.ar    1  UNL1        0.1787
     21 N           1.6093    0.3145   30.7383 N.ar    1  UNL1       -0.2192
     22 C           4.5623    2.4523   34.0264 C.3     1  UNL1        0.1205
     23 C           4.2376    1.9656   35.4076 C.ar    1  UNL1        0.0007
     24 C           5.2330    1.1368   36.1641 C.ar    1  UNL1       -0.0024
     25 C           4.9082    0.6501   37.5453 C.ar    1  UNL1        0.0028
     26 C           3.5881    0.9923   38.1700 C.ar    1  UNL1        0.0372
     27 C           2.5927    1.8211   37.4135 C.ar    1  UNL1        0.1465
     28 C           2.9175    2.3077   36.0323 C.ar    1  UNL1        0.0346
     29 O           1.2726    2.1632   38.0381 O.3     1  UNL1       -0.4045
     30 C           0.9694    1.7227   39.4396 C.3     1  UNL1        0.5753
     31 F           0.6663    1.2823   40.8410 F       1  UNL1       -0.1328
     32 F           0.2694    0.5080   38.9064 F       1  UNL1       -0.1328
     33 F           1.6694    2.9375   39.9728 F       1  UNL1       -0.1328
@<TRIPOS>BOND
     1    13    14    1
     2    14    15    1
     3    14    12    1
     4    12     4    1
     5     4     5    1
     6     6     5    1
     7     6     7    1
     8     7     8    1
     9     8     1    1
    10     1    22    1
    11    22    23    1
    12    23    24   ar
    13    24    25   ar
    14    25    26   ar
    15    26    27   ar
    16    27    29    1
    17    29    30    1
    18    30    31    1
    19    30    32    1
    20    30    33    1
    21    27    28   ar
    22     1     2   am
    23     2     3    2
    24     2    16    1
    25    16    17   ar
    26    17    18   ar
    27    18    19    1
    28    18    20   ar
    29    20    21   ar
    30     8     9    1
    31    10     9    1
    32    10    11    1
    33    11     4    1
    34    10     6    1
    35    28    23   ar
    36    21    16   ar
@<TRIPOS>MOLECULE
*****
 33 36 0 0 0
SMALL
GASTEIGER

@<TRIPOS>ATOM
      1 N           4.5346   -1.3611   18.7359 N.am    1  UNL1       -0.2723
      2 C           3.7519   -0.6329   17.6838 C.2     1  UNL1        0.2685
      3 O           3.9060   -1.0085   16.2398 O.2     1  UNL1       -0.2682
      4 N           3.9059    0.1707   24.6240 N.3     1  UNL1       -0.2704
      5 C           4.9034    0.7485   23.6643 C.3     1  UNL1        0.0722
      6 C           4.7036    0.0862   22.3333 C.3     1  UNL1        0.0190
      7 C           5.1966    0.0340   20.9176 C.3     1  UNL1        0.0213
      8 C           4.3804   -0.9855   20.1799 C.3     1  UNL1        0.0761
      9 C           3.3829   -1.5634   21.1396 C.3     1  UNL1        0.0213
     10 C           3.5827   -0.9010   22.4705 C.3     1  UNL1        0.0190
     11 C           3.0897   -0.8488   23.8862 C.3     1  UNL1        0.0722
     12 C           3.7518    0.5463   26.0680 C.3     1  UNL1        0.1077
     13 C           4.6909   -1.5225   27.3282 C.3     1  UNL1        0.0396
     14 C           3.5945   -0.5226   27.1084 C.3     1  UNL1        0.1769
     15 F           2.3408   -0.5918   27.9292 F       1  UNL1       -0.2358
     16 C           2.8150    0.4711   18.0757 C.ar    1  UNL1        0.1535
     17 C           3.1782    1.9163   18.2474 C.ar    1  UNL1        0.1012
     18 N           1.9380    2.6621   18.6424 N.ar    1  UNL1       -0.3057
     19 C           1.8440    4.1338   18.9169 C.3     1  UNL1        0.1321
     20 C           0.8085    1.6777   18.7148 C.ar    1  UNL1        0.1787
     21 N           1.3505    0.3237   18.3645 N.ar    1  UNL1       -0.2192
     22 C           5.4714   -2.4651   18.3440 C.3     1  UNL1        0.1205
     23 C           6.6017   -2.8476   19.2529 C.ar    1  UNL1        0.0007
     24 C           7.9835   -2.3252   18.9921 C.ar    1  UNL1       -0.0024
     25 C           9.1138   -2.7077   19.9010 C.ar    1  UNL1        0.0028
     26 C           8.8624   -3.6125   21.0707 C.ar    1  UNL1        0.0372
     27 C           7.4807   -4.1349   21.3314 C.ar    1  UNL1        0.1465
     28 C           6.3503   -3.7524   20.4226 C.ar    1  UNL1        0.0346
     29 O           7.2293   -5.0397   22.5011 O.3     1  UNL1       -0.4045
     30 C           7.1341   -4.4681   23.8846 C.3     1  UNL1        0.5753
     31 F           7.0390   -3.8965   25.2682 F       1  UNL1       -0.1328
     32 F           8.5327   -4.9286   24.1710 F       1  UNL1       -0.1328
     33 F           5.7356   -4.0076   23.5982 F       1  UNL1       -0.1328
@<TRIPOS>BOND
     1    13    14    1
     2    14    15    1
     3    14    12    1
     4    12     4    1
     5     4     5    1
     6     6     5    1
     7     6     7    1
     8     7     8    1
     9     8     1    1
    10     1    22    1
    11    22    23    1
    12    23    24   ar
    13    24    25   ar
    14    25    26   ar
    15    26    27   ar
    16    27    29    1
    17    29    30    1
    18    30    31    1
    19    30    32    1
    20    30    33    1
    21    27    28   ar
    22     1     2   am
    23     2     3    2
    24     2    16    1
    25    16    17   ar
    26    17    18   ar
    27    18    19    1
    28    18    20   ar
    29    20    21   ar
    30     8     9    1
    31    10     9    1
    32    10    11    1
    33    11     4    1
    34    10     6    1
    35    28    23   ar
    36    21    16   ar
@<TRIPOS>MOLECULE
*****
 33 36 0 0 0
SMALL
GASTEIGER

@<TRIPOS>ATOM
      1 N           7.0551   -3.5456   22.5939 N.am    1  UNL1       -0.2723
      2 C           6.9778   -4.1870   21.2403 C.2     1  UNL1        0.2685
      3 O           7.9439   -5.2726   20.8685 O.2     1  UNL1       -0.2682
      4 N           3.1160    0.8812   24.1101 N.3     1  UNL1       -0.2704
      5 C           2.8561   -0.5942   24.1855 C.3     1  UNL1        0.0722
      6 C           4.0910   -1.3069   23.7196 C.3     1  UNL1        0.0190
      7 C           4.6936   -2.6592   23.4783 C.3     1  UNL1        0.0213
      8 C           6.0891   -2.4600   22.9657 C.3     1  UNL1        0.0761
      9 C           6.3491   -0.9846   22.8902 C.3     1  UNL1        0.0213
     10 C           5.1141   -0.2720   23.3562 C.3     1  UNL1        0.0190
     11 C           4.5115    1.0803   23.5975 C.3     1  UNL1        0.0722
     12 C           2.1499    1.9668   24.4819 C.3     1  UNL1        0.1077
     13 C          -0.2140    1.6260   25.5044 C.3     1  UNL1        0.0396
     14 C           0.6761    1.7525   24.3037 C.3     1  UNL1        0.1769
     15 F           0.0922    1.6648   22.9247 F       1  UNL1       -0.2358
     16 C           5.9344   -3.7429   20.2583 C.ar    1  UNL1        0.1535
     17 C           6.0139   -2.5341   19.3738 C.ar    1  UNL1        0.1012
     18 N           4.7569   -2.4738   18.5574 N.ar    1  UNL1       -0.3057
     19 C           4.4160   -1.4259   17.5396 C.3     1  UNL1        0.1321
     20 C           3.9007   -3.6454   18.9373 C.ar    1  UNL1        0.1787
     21 N           4.6285   -4.4297   19.9886 N.ar    1  UNL1       -0.2192
     22 C           8.0985   -3.9897   23.5758 C.3     1  UNL1        0.1205
     23 C           7.7993   -5.1023   24.5362 C.ar    1  UNL1        0.0007
     24 C           8.2587   -6.4979   24.2339 C.ar    1  UNL1       -0.0024
     25 C           7.9595   -7.6106   25.1944 C.ar    1  UNL1        0.0028
     26 C           7.2009   -7.3276   26.4571 C.ar    1  UNL1        0.0372
     27 C           6.7415   -5.9321   26.7594 C.ar    1  UNL1        0.1465
     28 C           7.0407   -4.8195   25.7990 C.ar    1  UNL1        0.0346
     29 O           5.9830   -5.6492   28.0221 O.3     1  UNL1       -0.4045
     30 C           6.6842   -5.0332   29.1963 C.3     1  UNL1        0.5753
     31 F           7.3855   -4.4172   30.3706 F       1  UNL1       -0.1328
     32 F           6.1480   -3.6866   28.8101 F       1  UNL1       -0.1328
     33 F           7.2204   -6.3798   29.5825 F       1  UNL1       -0.1328
@<TRIPOS>BOND
     1    13    14    1
     2    14    15    1
     3    14    12    1
     4    12     4    1
     5     4     5    1
     6     6     5    1
     7     6     7    1
     8     7     8    1
     9     8     1    1
    10     1    22    1
    11    22    23    1
    12    23    24   ar
    13    24    25   ar
    14    25    26   ar
    15    26    27   ar
    16    27    29    1
    17    29    30    1
    18    30    31    1
    19    30    32    1
    20    30    33    1
    21    27    28   ar
    22     1     2   am
    23     2     3    2
    24     2    16    1
    25    16    17   ar
    26    17    18   ar
    27    18    19    1
    28    18    20   ar
    29    20    21   ar
    30     8     9    1
    31    10     9    1
    32    10    11    1
    33    11     4    1
    34    10     6    1
    35    28    23   ar
    36    21    16   ar
@<TRIPOS>MOLECULE
*****
 33 36 0 0 0
SMALL
GASTEIGER

@<TRIPOS>ATOM
      1 N           4.5747   -0.5461   34.2374 N.am    1  UNL1       -0.2723
      2 C           3.7404    0.4324   33.4651 C.2     1  UNL1        0.2685
      3 O           2.8131    1.3629   34.1892 O.2     1  UNL1       -0.2682
      4 N           8.3559   -4.3404   31.2848 N.3     1  UNL1       -0.2704
      5 C           8.7166   -2.9977   31.8477 C.3     1  UNL1        0.0722
      6 C           7.4887   -2.4166   32.4839 C.3     1  UNL1        0.0190
      7 C           6.9528   -1.2277   33.2250 C.3     1  UNL1        0.0213
      8 C           5.5020   -1.4766   33.5133 C.3     1  UNL1        0.0761
      9 C           5.1412   -2.8193   32.9504 C.3     1  UNL1        0.0213
     10 C           6.3691   -3.4003   32.3142 C.3     1  UNL1        0.0190
     11 C           6.9050   -4.5892   31.5731 C.3     1  UNL1        0.0722
     12 C           9.2832   -5.2709   30.5607 C.3     1  UNL1        0.1077
     13 C           8.3124   -5.2048   28.1517 C.3     1  UNL1        0.0396
     14 C           8.8155   -5.9871   29.3285 C.3     1  UNL1        0.1769
     15 F           8.8509   -7.4858   29.2732 F       1  UNL1       -0.2358
     16 C           3.8333    0.4804   31.9687 C.ar    1  UNL1        0.1535
     17 C           2.9944   -0.3085   31.0075 C.ar    1  UNL1        0.1012
     18 N           3.4241    0.0494   29.6156 N.ar    1  UNL1       -0.3057
     19 C           2.8502   -0.5054   28.3456 C.3     1  UNL1        0.1321
     20 C           4.5285    1.0593   29.7166 C.ar    1  UNL1        0.1787
     21 N           4.7814    1.3257   31.1710 N.ar    1  UNL1       -0.2192
     22 C           4.4818   -0.5941   35.7337 C.3     1  UNL1        0.1205
     23 C           4.5479    0.6752   36.5303 C.ar    1  UNL1        0.0007
     24 C           5.6006    1.6989   36.2241 C.ar    1  UNL1       -0.0024
     25 C           5.6667    2.9682   37.0207 C.ar    1  UNL1        0.0028
     26 C           4.6800    3.2137   38.1236 C.ar    1  UNL1        0.0372
     27 C           3.6274    2.1899   38.4298 C.ar    1  UNL1        0.1465
     28 C           3.5613    0.9207   37.6332 C.ar    1  UNL1        0.0346
     29 O           2.6408    2.4354   39.5327 O.3     1  UNL1       -0.4045
     30 C           1.1691    2.3541   39.2543 C.3     1  UNL1        0.5753
     31 F          -0.3026    2.2727   38.9760 F       1  UNL1       -0.1328
     32 F           1.3181    3.3770   38.1674 F       1  UNL1       -0.1328
     33 F           1.0201    1.3311   40.3412 F       1  UNL1       -0.1328
@<TRIPOS>BOND
     1    13    14    1
     2    14    15    1
     3    14    12    1
     4    12     4    1
     5     4     5    1
     6     6     5    1
     7     6     7    1
     8     7     8    1
     9     8     1    1
    10     1    22    1
    11    22    23    1
    12    23    24   ar
    13    24    25   ar
    14    25    26   ar
    15    26    27   ar
    16    27    29    1
    17    29    30    1
    18    30    31    1
    19    30    32    1
    20    30    33    1
    21    27    28   ar
    22     1     2   am
    23     2     3    2
    24     2    16    1
    25    16    17   ar
    26    17    18   ar
    27    18    19    1
    28    18    20   ar
    29    20    21   ar
    30     8     9    1
    31    10     9    1
    32    10    11    1
    33    11     4    1
    34    10     6    1
    35    28    23   ar
    36    21    16   ar
@<TRIPOS>MOLECULE
*****
 33 36 0 0 0
SMALL
GASTEIGER

@<TRIPOS>ATOM
      1 N           1.2823    1.9993   20.5565 N.am    1  UNL1       -0.2723
      2 C           1.5759    3.3764   20.0394 C.2     1  UNL1        0.2685
      3 O           1.5567    3.6432   18.5635 O.2     1  UNL1       -0.2682
      4 N           1.3606    0.9111   26.5749 N.3     1  UNL1       -0.2704
      5 C           2.5194    0.7543   25.6354 C.3     1  UNL1        0.0722
      6 C           2.0542    1.1279   24.2592 C.3     1  UNL1        0.0190
      7 C           2.4829    1.2619   22.8280 C.3     1  UNL1        0.0213
      8 C           1.3015    1.7324   22.0324 C.3     1  UNL1        0.0761
      9 C           0.1428    1.8893   22.9718 C.3     1  UNL1        0.0213
     10 C           0.6079    1.5157   24.3481 C.3     1  UNL1        0.0190
     11 C           0.1793    1.3817   25.7793 C.3     1  UNL1        0.0722
     12 C           1.3798    0.6443   28.0509 C.3     1  UNL1        0.1077
     13 C          -0.9180   -0.2649   28.8530 C.3     1  UNL1        0.0396
     14 C           0.1275    0.8107   28.8595 C.3     1  UNL1        0.1769
     15 F          -0.0795    2.0528   29.6746 F       1  UNL1       -0.2358
     16 C           1.8886    4.4867   20.9983 C.ar    1  UNL1        0.1535
     17 C           3.2593    4.9402   21.4053 C.ar    1  UNL1        0.1012
     18 N           3.1033    6.0722   22.3771 N.ar    1  UNL1       -0.3057
     19 C           4.2186    6.8259   23.0391 C.3     1  UNL1        0.1321
     20 C           1.6364    6.3183   22.5706 C.ar    1  UNL1        0.1787
     21 N           0.8857    5.3383   21.7185 N.ar    1  UNL1       -0.2192
     22 C           0.9696    0.8890   19.5976 C.3     1  UNL1        0.1205
     23 C           2.0673   -0.0046   19.1011 C.ar    1  UNL1        0.0007
     24 C           2.8116    0.3475   17.8472 C.ar    1  UNL1       -0.0024
     25 C           3.9093   -0.5462   17.3507 C.ar    1  UNL1        0.0028
     26 C           4.2626   -1.7919   18.1080 C.ar    1  UNL1        0.0372
     27 C           3.5183   -2.1439   19.3618 C.ar    1  UNL1        0.1465
     28 C           2.4206   -1.2503   19.8583 C.ar    1  UNL1        0.0346
     29 O           3.8716   -3.3896   20.1190 O.3     1  UNL1       -0.4045
     30 C           4.3097   -4.6184   19.3788 C.3     1  UNL1        0.5753
     31 F           4.7479   -5.8473   18.6386 F       1  UNL1       -0.1328
     32 F           5.7093   -4.4223   19.8817 F       1  UNL1       -0.1328
     33 F           2.9102   -4.8145   18.8760 F       1  UNL1       -0.1328
@<TRIPOS>BOND
     1    13    14    1
     2    14    15    1
     3    14    12    1
     4    12     4    1
     5     4     5    1
     6     6     5    1
     7     6     7    1
     8     7     8    1
     9     8     1    1
    10     1    22    1
    11    22    23    1
    12    23    24   ar
    13    24    25   ar
    14    25    26   ar
    15    26    27   ar
    16    27    29    1
    17    29    30    1
    18    30    31    1
    19    30    32    1
    20    30    33    1
    21    27    28   ar
    22     1     2   am
    23     2     3    2
    24     2    16    1
    25    16    17   ar
    26    17    18   ar
    27    18    19    1
    28    18    20   ar
    29    20    21   ar
    30     8     9    1
    31    10     9    1
    32    10    11    1
    33    11     4    1
    34    10     6    1
    35    28    23   ar
    36    21    16   ar
@<TRIPOS>MOLECULE
*****
 33 36 0 0 0
SMALL
GASTEIGER

@<TRIPOS>ATOM
      1 N          -9.8745  -18.1856   23.7364 N.am    1  UNL1       -0.2723
      2 C         -11.1366  -18.0310   22.9408 C.2     1  UNL1        0.2685
      3 O         -12.4098  -17.6294   23.6246 O.2     1  UNL1       -0.2682
      4 N          -4.6828  -19.8232   20.9478 N.3     1  UNL1       -0.2704
      5 C          -5.2087  -18.4247   21.0814 C.3     1  UNL1        0.0722
      6 C          -6.5045  -18.4868   21.8343 C.3     1  UNL1        0.0190
      7 C          -7.6305  -17.6608   22.3822 C.3     1  UNL1        0.0213
      8 C          -8.6013  -18.5872   23.0525 C.3     1  UNL1        0.0761
      9 C          -8.0754  -19.9855   22.9190 C.3     1  UNL1        0.0213
     10 C          -6.7795  -19.9235   22.1661 C.3     1  UNL1        0.0190
     11 C          -5.6536  -20.7494   21.6182 C.3     1  UNL1        0.0722
     12 C          -3.4096  -20.2248   20.2639 C.3     1  UNL1        0.1077
     13 C          -1.5517  -18.6324   21.1372 C.3     1  UNL1        0.0396
     14 C          -2.3456  -19.2013   19.9988 C.3     1  UNL1        0.1769
     15 F          -2.0754  -18.7467   18.5950 F       1  UNL1       -0.2358
     16 C         -11.1256  -18.2780   21.4612 C.ar    1  UNL1        0.1535
     17 C         -10.4752  -19.4370   20.7657 C.ar    1  UNL1        0.1012
     18 N         -10.7108  -19.2846   19.2921 N.ar    1  UNL1       -0.3057
     19 C         -10.2340  -20.2209   18.2216 C.3     1  UNL1        0.1321
     20 C         -11.5067  -18.0315   19.0770 C.ar    1  UNL1        0.1787
     21 N         -11.7630  -17.4094   20.4177 N.ar    1  UNL1       -0.2192
     22 C          -9.8855  -17.9386   25.2158 C.3     1  UNL1        0.1205
     23 C          -8.8498  -17.0477   25.8352 C.ar    1  UNL1        0.0007
     24 C          -8.7975  -16.8817   27.3251 C.ar    1  UNL1       -0.0024
     25 C          -7.7618  -15.9908   27.9446 C.ar    1  UNL1        0.0028
     26 C          -6.7784  -15.2660   27.0741 C.ar    1  UNL1        0.0372
     27 C          -6.8308  -15.4320   25.5842 C.ar    1  UNL1        0.1465
     28 C          -7.8665  -16.3229   24.9648 C.ar    1  UNL1        0.0346
     29 O          -5.8474  -14.7072   24.7138 O.3     1  UNL1       -0.4045
     30 C          -4.8389  -15.4804   23.9169 C.3     1  UNL1        0.5753
     31 F          -3.8303  -16.2535   23.1200 F       1  UNL1       -0.1328
     32 F          -4.7466  -16.4949   25.0179 F       1  UNL1       -0.1328
     33 F          -4.9311  -14.4658   22.8159 F       1  UNL1       -0.1328
@<TRIPOS>BOND
     1    13    14    1
     2    14    15    1
     3    14    12    1
     4    12     4    1
     5     4     5    1
     6     6     5    1
     7     6     7    1
     8     7     8    1
     9     8     1    1
    10     1    22    1
    11    22    23    1
    12    23    24   ar
    13    24    25   ar
    14    25    26   ar
    15    26    27   ar
    16    27    29    1
    17    29    30    1
    18    30    31    1
    19    30    32    1
    20    30    33    1
    21    27    28   ar
    22     1     2   am
    23     2     3    2
    24     2    16    1
    25    16    17   ar
    26    17    18   ar
    27    18    19    1
    28    18    20   ar
    29    20    21   ar
    30     8     9    1
    31    10     9    1
    32    10    11    1
    33    11     4    1
    34    10     6    1
    35    28    23   ar
    36    21    16   ar
