@<TRIPOS>MOLECULE
*****
 24 24 0 0 0
SMALL
GASTEIGER

@<TRIPOS>ATOM
      1 C         -10.4491  -17.7313   23.3076 C.ar    1  UNL1        0.1384
      2 C         -11.1353  -18.8911   23.9663 C.ar    1  UNL1        0.0369
      3 C         -10.4308  -20.2099   24.0860 C.ar    1  UNL1        0.0030
      4 C          -9.0401  -20.3690   23.5468 C.ar    1  UNL1        0.0012
      5 C          -8.3539  -19.2092   22.8881 C.ar    1  UNL1        0.0422
      6 C          -9.0584  -17.8904   22.7685 C.ar    1  UNL1        0.0379
      7 C          -6.9632  -19.3682   22.3489 C.3     1  UNL1        0.2969
      8 F          -7.0593  -20.8530   22.5389 F       1  UNL1       -0.1981
      9 F          -6.8671  -17.8835   22.1590 F       1  UNL1       -0.1981
     10 C          -5.5725  -19.5272   21.8098 C.3     1  UNL1        0.1409
     11 N          -4.4024  -19.5504   22.7481 N.3     1  UNL1       -0.2850
     12 H          -3.9753  -20.4728   22.6634 H       1  UNL1        0.1239
     13 C          -3.2985  -18.5463   22.5953 C.3     1  UNL1        0.1553
     14 C          -2.1975  -18.7870   21.6054 C.2     1  UNL1        0.2419
     15 O          -1.8383  -20.1884   21.2092 O.2     1  UNL1       -0.2734
     16 N          -1.4559  -17.6262   21.0117 N.am    1  UNL1       -0.2749
     17 C          -0.3549  -17.8668   20.0218 C.3     1  UNL1        0.1149
     18 C          -1.8151  -16.2248   21.4080 C.3     1  UNL1        0.1149
     19 O         -11.1536  -16.4124   23.1880 O.3     1  UNL1       -0.4755
     20 C         -11.8027  -16.0236   21.8928 C.3     1  UNL1        0.2054
     21 C         -12.2762  -17.0839   20.9433 C.3     1  UNL1        0.0473
     22 C         -11.3652  -17.5824   19.8609 C.3     1  UNL1        0.0038
     23 C          -9.5225  -19.3615   19.4259 C.3     1  UNL1        0.0000
     24 C         -10.9158  -19.0135   19.8590 C.3     1  UNL1        0.0001
@<TRIPOS>BOND
     1    23    24    1
     2    24    22    1
     3    22    21    1
     4    21    20    1
     5    20    19    1
     6    19     1    1
     7     1     2   ar
     8     2     3   ar
     9     3     4   ar
    10     4     5   ar
    11     5     7    1
    12     7     8    1
    13     7     9    1
    14     7    10    1
    15    10    11    1
    16    11    13    1
    17    13    14    1
    18    14    15    2
    19    14    16   am
    20    16    17    1
    21    16    18    1
    22     5     6   ar
    23     6     1   ar
    24    11    12    1
@<TRIPOS>MOLECULE
*****
 24 24 0 0 0
SMALL
GASTEIGER

@<TRIPOS>ATOM
      1 C         -10.5170  -19.6241   22.0921 C.ar    1  UNL1        0.1384
      2 C         -11.1369  -19.7004   20.7284 C.ar    1  UNL1        0.0369
      3 C         -10.2704  -19.6321   19.5058 C.ar    1  UNL1        0.0030
      4 C          -8.7841  -19.4875   19.6471 C.ar    1  UNL1        0.0012
      5 C          -8.1643  -19.4112   21.0109 C.ar    1  UNL1        0.0422
      6 C          -9.0308  -19.4796   22.2334 C.ar    1  UNL1        0.0379
      7 C          -6.6779  -19.2667   21.1522 C.3     1  UNL1        0.2969
      8 F          -6.8729  -17.9651   21.8718 F       1  UNL1       -0.1981
      9 F          -6.4830  -20.5682   20.4326 F       1  UNL1       -0.1981
     10 C          -5.1916  -19.1221   21.2935 C.3     1  UNL1        0.1409
     11 N          -4.6201  -18.3253   22.4286 N.3     1  UNL1       -0.2850
     12 H          -5.1602  -18.5671   23.2594 H       1  UNL1        0.1239
     13 C          -3.1729  -18.4731   22.7947 C.3     1  UNL1        0.1553
     14 C          -2.1621  -18.8061   21.7377 C.2     1  UNL1        0.2419
     15 O          -1.8465  -20.2393   21.4269 O.2     1  UNL1       -0.2734
     16 N          -1.4669  -17.7062   20.9916 N.am    1  UNL1       -0.2749
     17 C          -0.4561  -18.0393   19.9346 C.3     1  UNL1        0.1149
     18 C          -1.7826  -16.2731   21.3025 C.3     1  UNL1        0.1149
     19 O         -11.3835  -19.6925   23.3147 O.3     1  UNL1       -0.4755
     20 C         -11.9130  -18.4312   23.9301 C.3     1  UNL1        0.2054
     21 C         -12.9471  -17.6204   23.2068 C.3     1  UNL1        0.0473
     22 C         -12.5791  -16.2927   22.6137 C.3     1  UNL1        0.0038
     23 C         -10.3591  -16.0591   21.2844 C.3     1  UNL1        0.0000
     24 C         -11.8489  -16.2325   21.3048 C.3     1  UNL1        0.0001
@<TRIPOS>BOND
     1    23    24    1
     2    24    22    1
     3    22    21    1
     4    21    20    1
     5    20    19    1
     6    19     1    1
     7     1     2   ar
     8     2     3   ar
     9     3     4   ar
    10     4     5   ar
    11     5     7    1
    12     7     8    1
    13     7     9    1
    14     7    10    1
    15    10    11    1
    16    11    13    1
    17    13    14    1
    18    14    15    2
    19    14    16   am
    20    16    17    1
    21    16    18    1
    22     5     6   ar
    23     6     1   ar
    24    11    12    1
@<TRIPOS>MOLECULE
*****
 24 24 0 0 0
SMALL
GASTEIGER

@<TRIPOS>ATOM
      1 C         -10.4784  -17.3700   20.9418 C.ar    1  UNL1        0.1384
      2 C         -11.0051  -18.2473   19.8450 C.ar    1  UNL1        0.0369
      3 C         -10.1731  -19.3835   19.3285 C.ar    1  UNL1        0.0030
      4 C          -8.8144  -19.6425   19.9087 C.ar    1  UNL1        0.0012
      5 C          -8.2876  -18.7653   21.0055 C.ar    1  UNL1        0.0422
      6 C          -9.1196  -17.6290   21.5220 C.ar    1  UNL1        0.0379
      7 C          -6.9288  -19.0242   21.5858 C.3     1  UNL1        0.2969
      8 F          -6.6529  -20.0177   20.4964 F       1  UNL1       -0.1981
      9 F          -7.2048  -18.0307   22.6752 F       1  UNL1       -0.1981
     10 C          -5.5701  -19.2831   22.1661 C.3     1  UNL1        0.1409
     11 N          -4.6446  -18.1371   22.4490 N.3     1  UNL1       -0.2850
     12 H          -5.0533  -17.6125   23.2224 H       1  UNL1        0.1239
     13 C          -3.2136  -18.4011   22.8133 C.3     1  UNL1        0.1553
     14 C          -2.2290  -18.7915   21.7511 C.2     1  UNL1        0.2419
     15 O          -1.9914  -20.2406   21.4447 O.2     1  UNL1       -0.2734
     16 N          -1.4821  -17.7329   20.9952 N.am    1  UNL1       -0.2749
     17 C          -0.4976  -18.1232   19.9330 C.3     1  UNL1        0.1149
     18 C          -1.7197  -16.2839   21.3016 C.3     1  UNL1        0.1149
     19 O         -11.3103  -16.2338   21.4584 O.3     1  UNL1       -0.4755
     20 C         -12.1419  -16.4142   22.6937 C.3     1  UNL1        0.2054
     21 C         -12.5688  -17.7886   23.1164 C.3     1  UNL1        0.0473
     22 C         -11.7707  -18.5401   24.1404 C.3     1  UNL1        0.0038
     23 C          -9.6633  -20.0559   24.2433 C.3     1  UNL1        0.0000
     24 C         -11.0598  -19.8041   23.7573 C.3     1  UNL1        0.0001
@<TRIPOS>BOND
     1    23    24    1
     2    24    22    1
     3    22    21    1
     4    21    20    1
     5    20    19    1
     6    19     1    1
     7     1     2   ar
     8     2     3   ar
     9     3     4   ar
    10     4     5   ar
    11     5     7    1
    12     7     8    1
    13     7     9    1
    14     7    10    1
    15    10    11    1
    16    11    13    1
    17    13    14    1
    18    14    15    2
    19    14    16   am
    20    16    17    1
    21    16    18    1
    22     5     6   ar
    23     6     1   ar
    24    11    12    1
@<TRIPOS>MOLECULE
*****
 24 24 0 0 0
SMALL
GASTEIGER

@<TRIPOS>ATOM
      1 C          -3.6533  -19.1913   21.8504 C.ar    1  UNL1        0.1384
      2 C          -3.4795  -20.1263   20.6905 C.ar    1  UNL1        0.0369
      3 C          -4.6781  -20.7746   20.0635 C.ar    1  UNL1        0.0030
      4 C          -6.0506  -20.4879   20.5965 C.ar    1  UNL1        0.0012
      5 C          -6.2244  -19.5529   21.7565 C.ar    1  UNL1        0.0422
      6 C          -5.0258  -18.9047   22.3834 C.ar    1  UNL1        0.0379
      7 C          -7.5969  -19.2662   22.2895 C.3     1  UNL1        0.2969
      8 F          -7.6607  -20.6483   22.8689 F       1  UNL1       -0.1981
      9 F          -7.5331  -17.8841   21.7102 F       1  UNL1       -0.1981
     10 C          -8.9693  -18.9794   22.8226 C.3     1  UNL1        0.1409
     11 N         -10.0974  -19.9261   22.5378 N.3     1  UNL1       -0.2850
     12 H         -10.7588  -19.8366   23.3092 H       1  UNL1        0.1239
     13 C         -10.8890  -19.7902   21.2709 C.3     1  UNL1        0.1553
     14 C         -10.7495  -18.5573   20.4280 C.2     1  UNL1        0.2419
     15 O          -9.6544  -18.4668   19.4069 O.2     1  UNL1       -0.2734
     16 N         -11.7051  -17.4149   20.6062 N.am    1  UNL1       -0.2749
     17 C         -11.5656  -16.1820   19.7634 C.3     1  UNL1        0.1149
     18 C         -12.8001  -17.5055   21.6273 C.3     1  UNL1        0.1149
     19 O          -2.4547  -18.5431   22.4774 O.3     1  UNL1       -0.4755
     20 C          -2.2953  -17.0525   22.4257 C.3     1  UNL1        0.2054
     21 C          -1.7118  -16.4025   21.2062 C.3     1  UNL1        0.0473
     22 C          -0.8477  -17.1979   20.2731 C.3     1  UNL1        0.0038
     23 C          -2.8176  -17.3621   18.5871 C.3     1  UNL1        0.0000
     24 C          -1.4096  -17.7021   18.9769 C.3     1  UNL1        0.0001
@<TRIPOS>BOND
     1    23    24    1
     2    24    22    1
     3    22    21    1
     4    21    20    1
     5    20    19    1
     6    19     1    1
     7     1     2   ar
     8     2     3   ar
     9     3     4   ar
    10     4     5   ar
    11     5     7    1
    12     7     8    1
    13     7     9    1
    14     7    10    1
    15    10    11    1
    16    11    13    1
    17    13    14    1
    18    14    15    2
    19    14    16   am
    20    16    17    1
    21    16    18    1
    22     5     6   ar
    23     6     1   ar
    24    11    12    1
@<TRIPOS>MOLECULE
*****
 24 24 0 0 0
SMALL
GASTEIGER

@<TRIPOS>ATOM
      1 C          -5.7129  -16.0216   24.0643 C.ar    1  UNL1        0.1384
      2 C          -5.6999  -15.5554   25.4899 C.ar    1  UNL1        0.0369
      3 C          -6.9893  -15.4048   26.2415 C.ar    1  UNL1        0.0030
      4 C          -8.2916  -15.7205   25.5675 C.ar    1  UNL1        0.0012
      5 C          -8.3045  -16.1867   24.1419 C.ar    1  UNL1        0.0422
      6 C          -7.0152  -16.3373   23.3903 C.ar    1  UNL1        0.0379
      7 C          -9.6069  -16.5024   23.4678 C.3     1  UNL1        0.2969
      8 F          -9.1305  -15.8121   22.2242 F       1  UNL1       -0.1981
      9 F         -10.0832  -17.1927   24.7114 F       1  UNL1       -0.1981
     10 C         -10.9091  -16.8181   22.7938 C.3     1  UNL1        0.1409
     11 N         -11.4530  -18.2155   22.8301 N.3     1  UNL1       -0.2850
     12 H         -12.4675  -18.1387   22.7564 H       1  UNL1        0.1239
     13 C         -11.0186  -19.2164   21.8007 C.3     1  UNL1        0.1553
     14 C          -9.8329  -18.9285   20.9282 C.2     1  UNL1        0.2419
     15 O         -10.0289  -18.3051   19.5780 O.2     1  UNL1       -0.2734
     16 N          -8.4512  -19.2639   21.4060 N.am    1  UNL1       -0.2749
     17 C          -7.2654  -18.9759   20.5335 C.3     1  UNL1        0.1149
     18 C          -8.2552  -19.8872   22.7561 C.3     1  UNL1        0.1149
     19 O          -4.4235  -16.1722   23.3127 O.3     1  UNL1       -0.4755
     20 C          -3.6669  -17.4659   23.3731 C.3     1  UNL1        0.2054
     21 C          -4.1728  -18.6661   22.6289 C.3     1  UNL1        0.0473
     22 C          -3.2029  -19.6301   22.0125 C.3     1  UNL1        0.0038
     23 C          -3.6016  -19.2701   19.4706 C.3     1  UNL1        0.0000
     24 C          -2.6635  -19.3746   20.6363 C.3     1  UNL1        0.0001
@<TRIPOS>BOND
     1    23    24    1
     2    24    22    1
     3    22    21    1
     4    21    20    1
     5    20    19    1
     6    19     1    1
     7     1     2   ar
     8     2     3   ar
     9     3     4   ar
    10     4     5   ar
    11     5     7    1
    12     7     8    1
    13     7     9    1
    14     7    10    1
    15    10    11    1
    16    11    13    1
    17    13    14    1
    18    14    15    2
    19    14    16   am
    20    16    17    1
    21    16    18    1
    22     5     6   ar
    23     6     1   ar
    24    11    12    1
@<TRIPOS>MOLECULE
*****
 24 24 0 0 0
SMALL
GASTEIGER

@<TRIPOS>ATOM
      1 C         -10.0293  -17.3767   22.8328 C.ar    1  UNL1        0.1384
      2 C         -11.1960  -18.2263   22.4243 C.ar    1  UNL1        0.0369
      3 C         -11.0101  -19.3205   21.4153 C.ar    1  UNL1        0.0030
      4 C          -9.6576  -19.5652   20.8148 C.ar    1  UNL1        0.0012
      5 C          -8.4909  -18.7156   21.2233 C.ar    1  UNL1        0.0422
      6 C          -8.6767  -17.6213   22.2323 C.ar    1  UNL1        0.0379
      7 C          -7.1382  -18.9602   20.6227 C.3     1  UNL1        0.2969
      8 F          -6.4941  -18.6145   21.9325 F       1  UNL1       -0.1981
      9 F          -7.7823  -19.3059   19.3130 F       1  UNL1       -0.1981
     10 C          -5.7856  -19.2048   20.0222 C.3     1  UNL1        0.1409
     11 N          -4.8787  -20.2427   20.6143 N.3     1  UNL1       -0.2850
     12 H          -4.8527  -21.0211   19.9557 H       1  UNL1        0.1239
     13 C          -3.4542  -19.8989   20.9350 C.3     1  UNL1        0.1553
     14 C          -3.1340  -18.6186   21.6479 C.2     1  UNL1        0.2419
     15 O          -3.5805  -18.4178   23.0658 O.2     1  UNL1       -0.2734
     16 N          -2.3672  -17.5392   20.9431 N.am    1  UNL1       -0.2749
     17 C          -2.0469  -16.2589   21.6560 C.3     1  UNL1        0.1149
     18 C          -1.9207  -17.7401   19.5253 C.3     1  UNL1        0.1149
     19 O         -10.2151  -16.2824   23.8418 O.3     1  UNL1       -0.4755
     20 C          -9.0333  -15.7488   24.5957 C.3     1  UNL1        0.2054
     21 C          -8.5543  -16.4491   25.8327 C.3     1  UNL1        0.0473
     22 C          -8.2002  -15.6546   27.0548 C.3     1  UNL1        0.0038
     23 C          -5.7399  -15.3998   26.2597 C.3     1  UNL1        0.0000
     24 C          -6.7648  -15.3373   27.3532 C.3     1  UNL1        0.0001
@<TRIPOS>BOND
     1    23    24    1
     2    24    22    1
     3    22    21    1
     4    21    20    1
     5    20    19    1
     6    19     1    1
     7     1     2   ar
     8     2     3   ar
     9     3     4   ar
    10     4     5   ar
    11     5     7    1
    12     7     8    1
    13     7     9    1
    14     7    10    1
    15    10    11    1
    16    11    13    1
    17    13    14    1
    18    14    15    2
    19    14    16   am
    20    16    17    1
    21    16    18    1
    22     5     6   ar
    23     6     1   ar
    24    11    12    1
@<TRIPOS>MOLECULE
*****
 24 24 0 0 0
SMALL
GASTEIGER

@<TRIPOS>ATOM
      1 C          -6.8003  -15.5423   25.0889 C.ar    1  UNL1        0.1384
      2 C          -6.6152  -15.4263   26.5728 C.ar    1  UNL1        0.0369
      3 C          -7.5787  -16.1009   27.5038 C.ar    1  UNL1        0.0030
      4 C          -8.7272  -16.8914   26.9508 C.ar    1  UNL1        0.0012
      5 C          -8.9123  -17.0074   25.4668 C.ar    1  UNL1        0.0422
      6 C          -7.9489  -16.3328   24.5359 C.ar    1  UNL1        0.0379
      7 C         -10.0609  -17.7979   24.9137 C.3     1  UNL1        0.2969
      8 F          -9.6472  -18.9783   25.7416 F       1  UNL1       -0.1981
      9 F         -10.4747  -16.6175   24.0859 F       1  UNL1       -0.1981
     10 C         -11.2095  -18.5884   24.3607 C.3     1  UNL1        0.1409
     11 N         -10.9514  -19.7308   23.4235 N.3     1  UNL1       -0.2850
     12 H         -11.5100  -20.5167   23.7564 H       1  UNL1        0.1239
     13 C         -11.2439  -19.5810   21.9599 C.3     1  UNL1        0.1553
     14 C         -11.5776  -18.2316   21.3961 C.2     1  UNL1        0.2419
     15 O         -13.0100  -17.8429   21.1790 O.2     1  UNL1       -0.2734
     16 N         -10.4790  -17.2711   21.0494 N.am    1  UNL1       -0.2749
     17 C         -10.8127  -15.9217   20.4855 C.3     1  UNL1        0.1149
     18 C          -9.0466  -17.6598   21.2665 C.3     1  UNL1        0.1149
     19 O          -5.8369  -14.8677   24.1579 O.3     1  UNL1       -0.4755
     20 C          -4.6585  -15.6245   23.6206 C.3     1  UNL1        0.2054
     21 C          -4.8196  -17.0494   23.1805 C.3     1  UNL1        0.0473
     22 C          -3.6748  -18.0095   23.3140 C.3     1  UNL1        0.0038
     23 C          -2.6033  -19.5996   21.5609 C.3     1  UNL1        0.0000
     24 C          -3.6878  -19.3024   22.5536 C.3     1  UNL1        0.0001
@<TRIPOS>BOND
     1    23    24    1
     2    24    22    1
     3    22    21    1
     4    21    20    1
     5    20    19    1
     6    19     1    1
     7     1     2   ar
     8     2     3   ar
     9     3     4   ar
    10     4     5   ar
    11     5     7    1
    12     7     8    1
    13     7     9    1
    14     7    10    1
    15    10    11    1
    16    11    13    1
    17    13    14    1
    18    14    15    2
    19    14    16   am
    20    16    17    1
    21    16    18    1
    22     5     6   ar
    23     6     1   ar
    24    11    12    1
@<TRIPOS>MOLECULE
*****
 24 24 0 0 0
SMALL
GASTEIGER

@<TRIPOS>ATOM
      1 C          -4.7200  -17.0912   23.4057 C.ar    1  UNL1        0.1384
      2 C          -5.1905  -15.8148   24.0376 C.ar    1  UNL1        0.0369
      3 C          -6.6316  -15.4123   23.9321 C.ar    1  UNL1        0.0030
      4 C          -7.6023  -16.2863   23.1946 C.ar    1  UNL1        0.0012
      5 C          -7.1319  -17.5627   22.5627 C.ar    1  UNL1        0.0422
      6 C          -5.6907  -17.9651   22.6682 C.ar    1  UNL1        0.0379
      7 C          -8.1026  -18.4367   21.8252 C.3     1  UNL1        0.2969
      8 F          -7.1489  -18.5217   20.6705 F       1  UNL1       -0.1981
      9 F          -9.0563  -18.3518   22.9798 F       1  UNL1       -0.1981
     10 C          -9.0732  -19.3107   21.0877 C.3     1  UNL1        0.1409
     11 N          -9.5925  -18.8885   19.7453 N.3     1  UNL1       -0.2850
     12 H          -9.6684  -19.7340   19.1797 H       1  UNL1        0.1239
     13 C         -10.9091  -18.1774   19.6401 C.3     1  UNL1        0.1553
     14 C         -11.1609  -16.9415   20.4519 C.2     1  UNL1        0.2419
     15 O         -10.6727  -15.6102   19.9624 O.2     1  UNL1       -0.2734
     16 N         -11.9008  -17.0368   21.7532 N.am    1  UNL1       -0.2749
     17 C         -12.1526  -15.8008   22.5651 C.3     1  UNL1        0.1149
     18 C         -12.3888  -18.3680   22.2427 C.3     1  UNL1        0.1149
     19 O          -3.2789  -17.4936   23.5113 O.3     1  UNL1       -0.4755
     20 C          -2.3182  -17.1360   22.4163 C.3     1  UNL1        0.2054
     21 C          -2.0983  -18.0818   21.2730 C.3     1  UNL1        0.0473
     22 C          -2.3960  -19.5425   21.4400 C.3     1  UNL1        0.0038
     23 C          -4.1637  -19.4004   19.5413 C.3     1  UNL1        0.0000
     24 C          -3.4472  -20.1954   20.5923 C.3     1  UNL1        0.0001
@<TRIPOS>BOND
     1    23    24    1
     2    24    22    1
     3    22    21    1
     4    21    20    1
     5    20    19    1
     6    19     1    1
     7     1     2   ar
     8     2     3   ar
     9     3     4   ar
    10     4     5   ar
    11     5     7    1
    12     7     8    1
    13     7     9    1
    14     7    10    1
    15    10    11    1
    16    11    13    1
    17    13    14    1
    18    14    15    2
    19    14    16   am
    20    16    17    1
    21    16    18    1
    22     5     6   ar
    23     6     1   ar
    24    11    12    1
@<TRIPOS>MOLECULE
*****
 24 24 0 0 0
SMALL
GASTEIGER

@<TRIPOS>ATOM
      1 C         -10.1702  -19.4134   22.2719 C.ar    1  UNL1        0.1384
      2 C         -11.1248  -19.5735   21.1260 C.ar    1  UNL1        0.0369
      3 C         -10.6062  -19.6251   19.7194 C.ar    1  UNL1        0.0030
      4 C          -9.1330  -19.5164   19.4588 C.ar    1  UNL1        0.0012
      5 C          -8.1785  -19.3562   20.6047 C.ar    1  UNL1        0.0422
      6 C          -8.6971  -19.3047   22.0112 C.ar    1  UNL1        0.0379
      7 C          -6.7053  -19.2475   20.3441 C.3     1  UNL1        0.2969
      8 F          -6.4393  -19.3162   21.8187 F       1  UNL1       -0.1981
      9 F          -6.9712  -19.1789   18.8695 F       1  UNL1       -0.1981
     10 C          -5.2321  -19.1389   20.0834 C.3     1  UNL1        0.1409
     11 N          -4.3150  -20.2559   20.4847 N.3     1  UNL1       -0.2850
     12 H          -4.0897  -20.7719   19.6342 H       1  UNL1        0.1239
     13 C          -3.0128  -19.9501   21.1635 C.3     1  UNL1        0.1553
     14 C          -2.3751  -18.6034   20.9907 C.2     1  UNL1        0.2419
     15 O          -1.4457  -18.3558   19.8396 O.2     1  UNL1       -0.2734
     16 N          -2.6668  -17.5044   21.9689 N.am    1  UNL1       -0.2749
     17 C          -2.0291  -16.1577   21.7961 C.3     1  UNL1        0.1149
     18 C          -3.5961  -17.7520   23.1200 C.3     1  UNL1        0.1149
     19 O         -10.6888  -19.3618   23.6785 O.3     1  UNL1       -0.4755
     20 C          -9.7600  -19.0300   24.8086 C.3     1  UNL1        0.2054
     21 C          -9.4151  -17.5998   25.1007 C.3     1  UNL1        0.0473
     22 C          -9.6632  -16.5421   24.0662 C.3     1  UNL1        0.0038
     23 C          -7.1048  -16.3150   23.6751 C.3     1  UNL1        0.0000
     24 C          -8.5061  -15.8520   23.4069 C.3     1  UNL1        0.0001
@<TRIPOS>BOND
     1    23    24    1
     2    24    22    1
     3    22    21    1
     4    21    20    1
     5    20    19    1
     6    19     1    1
     7     1     2   ar
     8     2     3   ar
     9     3     4   ar
    10     4     5   ar
    11     5     7    1
    12     7     8    1
    13     7     9    1
    14     7    10    1
    15    10    11    1
    16    11    13    1
    17    13    14    1
    18    14    15    2
    19    14    16   am
    20    16    17    1
    21    16    18    1
    22     5     6   ar
    23     6     1   ar
    24    11    12    1
