@<TRIPOS>MOLECULE
*****
 27 30 0 0 0
SMALL
GASTEIGER

@<TRIPOS>ATOM
      1 C          -5.2667  -16.3698   24.1908 C.ar    1  UNL1        0.0139
      2 C          -4.8915  -15.8608   25.5510 C.ar    1  UNL1        0.0061
      3 C          -5.9593  -15.4170   26.5064 C.ar    1  UNL1        0.0608
      4 C          -7.4022  -15.4821   26.1017 C.ar    1  UNL1        0.2612
      5 O          -8.4699  -15.0382   27.0571 O.2     1  UNL1       -0.2670
      6 N          -7.7773  -15.9911   24.7415 N.ar    1  UNL1       -0.2899
      7 C          -6.7095  -16.4349   23.7860 C.ar    1  UNL1        0.0783
      8 N          -0.0501  -17.8051   19.5691 N.pl3   1  UNL1       -0.2443
      9 C          -1.0979  -18.4329   20.4398 C.2     1  UNL1        0.3462
     10 N          -1.3642  -19.9026   20.5787 N.2     1  UNL1        0.0797
     11 N          -2.4942  -20.0791   21.5492 N.2     1  UNL1       -0.0381
     12 C          -2.9263  -18.7187   22.0101 C.2     1  UNL1        0.1169
     13 C          -3.9941  -18.2749   22.9655 C.3     1  UNL1        0.0763
     14 C          -4.1989  -16.8137   23.2353 C.2     1  UNL1       -0.0146
     15 C          -3.3359  -15.7962   22.5496 C.2     1  UNL1       -0.0035
     16 C          -2.2681  -16.2400   21.5942 C.2     1  UNL1        0.0085
     17 C          -2.0633  -17.7012   21.3244 C.2     1  UNL1        0.1018
     18 H           0.5393  -18.3724   19.0214 H       1  UNL1        0.2885
     19 H           0.0481  -16.8258   19.5454 H       1  UNL1        0.2885
     20 C          -9.2202  -16.0562   24.3367 C.3     1  UNL1        0.1380
     21 C          -9.8208  -17.3623   23.9084 C.ar    1  UNL1        0.0280
     22 C         -10.2788  -17.5486   22.4922 C.ar    1  UNL1       -0.0002
     23 C         -10.8794  -18.8547   22.0639 C.ar    1  UNL1       -0.0001
     24 C         -11.0220  -19.9744   23.0517 C.ar    1  UNL1        0.0023
     25 C         -10.5640  -19.7881   24.4678 C.ar    1  UNL1        0.0294
     26 C          -9.9634  -18.4820   24.8962 C.ar    1  UNL1        0.1380
     27 F          -9.5054  -18.2957   26.3124 F       1  UNL1       -0.2044
@<TRIPOS>BOND
     1     8     9    1
     2     9    10    2
     3    10    11    1
     4    11    12    2
     5    12    13    1
     6    13    14    1
     7    14     1    1
     8     1     2   ar
     9     2     3   ar
    10     3     4   ar
    11     4     5    2
    12     4     6   ar
    13     6    20    1
    14    20    21    1
    15    21    22   ar
    16    22    23   ar
    17    23    24   ar
    18    24    25   ar
    19    25    26   ar
    20    26    27    1
    21     6     7   ar
    22    14    15    2
    23    15    16    1
    24    16    17    2
    25    17     9    1
    26    17    12    1
    27     7     1   ar
    28    26    21   ar
    29     8    18    1
    30     8    19    1
@<TRIPOS>MOLECULE
*****
 27 30 0 0 0
SMALL
GASTEIGER

@<TRIPOS>ATOM
      1 C          -7.6984  -19.5666   21.4467 C.ar    1  UNL1        0.0139
      2 C          -7.6366  -20.3696   20.1813 C.ar    1  UNL1        0.0061
      3 C          -6.3145  -20.8538   19.6641 C.ar    1  UNL1        0.0608
      4 C          -5.0541  -20.5350   20.4123 C.ar    1  UNL1        0.2612
      5 O          -3.7320  -21.0192   19.8952 O.2     1  UNL1       -0.2670
      6 N          -5.1159  -19.7320   21.6778 N.ar    1  UNL1       -0.2899
      7 C          -6.4381  -19.2478   22.1950 C.ar    1  UNL1        0.0783
      8 N         -14.0180  -17.8701   24.2424 N.pl3   1  UNL1       -0.2443
      9 C         -12.9233  -17.3748   23.3445 C.2     1  UNL1        0.3462
     10 N         -12.8948  -16.0534   22.6352 N.2     1  UNL1        0.0797
     11 N         -11.6187  -15.9761   21.8506 N.2     1  UNL1       -0.0381
     12 C         -10.8586  -17.2496   22.0749 C.2     1  UNL1        0.1169
     13 C          -9.5365  -17.7337   21.5578 C.3     1  UNL1        0.0763
     14 C          -9.0206  -19.0824   21.9639 C.2     1  UNL1       -0.0146
     15 C          -9.8269  -19.9469   22.8872 C.2     1  UNL1       -0.0035
     16 C         -11.1491  -19.4628   23.4044 C.2     1  UNL1        0.0085
     17 C         -11.6649  -18.1141   22.9982 C.2     1  UNL1        0.1018
     18 H         -14.8093  -17.3087   24.4096 H       1  UNL1        0.2885
     19 H         -13.9453  -18.7565   24.6646 H       1  UNL1        0.2885
     20 C          -3.8556  -19.4132   22.4260 C.3     1  UNL1        0.1380
     21 C          -2.8678  -18.4414   21.8517 C.ar    1  UNL1        0.0280
     22 C          -1.8385  -18.9119   20.8672 C.ar    1  UNL1       -0.0002
     23 C          -0.8506  -17.9402   20.2929 C.ar    1  UNL1       -0.0001
     24 C          -0.8921  -16.4979   20.7029 C.ar    1  UNL1        0.0023
     25 C          -1.9214  -16.0275   21.6873 C.ar    1  UNL1        0.0294
     26 C          -2.9092  -16.9992   22.2617 C.ar    1  UNL1        0.1380
     27 F          -3.9386  -16.5286   23.2462 F       1  UNL1       -0.2044
@<TRIPOS>BOND
     1     8     9    1
     2     9    10    2
     3    10    11    1
     4    11    12    2
     5    12    13    1
     6    13    14    1
     7    14     1    1
     8     1     2   ar
     9     2     3   ar
    10     3     4   ar
    11     4     5    2
    12     4     6   ar
    13     6    20    1
    14    20    21    1
    15    21    22   ar
    16    22    23   ar
    17    23    24   ar
    18    24    25   ar
    19    25    26   ar
    20    26    27    1
    21     6     7   ar
    22    14    15    2
    23    15    16    1
    24    16    17    2
    25    17     9    1
    26    17    12    1
    27     7     1   ar
    28    26    21   ar
    29     8    18    1
    30     8    19    1
@<TRIPOS>MOLECULE
*****
 27 30 0 0 0
SMALL
GASTEIGER

@<TRIPOS>ATOM
      1 C          -7.3705  -19.1122   20.8976 C.ar    1  UNL1        0.0139
      2 C          -8.1972  -19.5376   19.7206 C.ar    1  UNL1        0.0061
      3 C          -9.6865  -19.6569   19.8540 C.ar    1  UNL1        0.0608
      4 C         -10.3491  -19.3507   21.1645 C.ar    1  UNL1        0.2612
      5 O         -11.8383  -19.4700   21.2979 O.2     1  UNL1       -0.2670
      6 N          -9.5223  -18.9253   22.3415 N.ar    1  UNL1       -0.2899
      7 C          -8.0330  -18.8060   22.2081 C.ar    1  UNL1        0.0783
      8 N          -0.3954  -18.6148   19.5811 N.pl3   1  UNL1       -0.2443
      9 C          -1.4205  -18.6080   20.6761 C.2     1  UNL1        0.3462
     10 N          -1.1435  -18.4537   22.1422 N.2     1  UNL1        0.0797
     11 N          -2.4545  -18.5046   22.8694 N.2     1  UNL1       -0.0381
     12 C          -3.5417  -18.6904   21.8528 C.2     1  UNL1        0.1169
     13 C          -5.0309  -18.8097   21.9863 C.3     1  UNL1        0.0763
     14 C          -5.8811  -18.9929   20.7642 C.2     1  UNL1       -0.0146
     15 C          -5.2421  -19.0568   19.4086 C.2     1  UNL1       -0.0035
     16 C          -3.7528  -18.9375   19.2751 C.2     1  UNL1        0.0085
     17 C          -2.9026  -18.7543   20.4972 C.2     1  UNL1        0.1018
     18 H           0.5590  -18.5115   19.7996 H       1  UNL1        0.2885
     19 H          -0.6769  -18.7227   18.6439 H       1  UNL1        0.2885
     20 C         -10.1848  -18.6191   23.6520 C.3     1  UNL1        0.1380
     21 C          -9.5747  -17.6148   24.5842 C.ar    1  UNL1        0.0280
     22 C          -9.3214  -17.9786   26.0172 C.ar    1  UNL1       -0.0002
     23 C          -8.7113  -16.9743   26.9494 C.ar    1  UNL1       -0.0001
     24 C          -8.3546  -15.6061   26.4487 C.ar    1  UNL1        0.0023
     25 C          -8.6079  -15.2422   25.0158 C.ar    1  UNL1        0.0294
     26 C          -9.2180  -16.2466   24.0835 C.ar    1  UNL1        0.1380
     27 F          -9.4713  -15.8827   22.6505 F       1  UNL1       -0.2044
@<TRIPOS>BOND
     1     8     9    1
     2     9    10    2
     3    10    11    1
     4    11    12    2
     5    12    13    1
     6    13    14    1
     7    14     1    1
     8     1     2   ar
     9     2     3   ar
    10     3     4   ar
    11     4     5    2
    12     4     6   ar
    13     6    20    1
    14    20    21    1
    15    21    22   ar
    16    22    23   ar
    17    23    24   ar
    18    24    25   ar
    19    25    26   ar
    20    26    27    1
    21     6     7   ar
    22    14    15    2
    23    15    16    1
    24    16    17    2
    25    17     9    1
    26    17    12    1
    27     7     1   ar
    28    26    21   ar
    29     8    18    1
    30     8    19    1
@<TRIPOS>MOLECULE
*****
 27 30 0 0 0
SMALL
GASTEIGER

@<TRIPOS>ATOM
      1 C          -5.5175  -16.4304   24.3058 C.ar    1  UNL1        0.0139
      2 C          -5.1043  -15.8406   25.6216 C.ar    1  UNL1        0.0061
      3 C          -6.1459  -15.3673   26.5916 C.ar    1  UNL1        0.0608
      4 C          -7.6009  -15.4836   26.2458 C.ar    1  UNL1        0.2612
      5 O          -8.6425  -15.0102   27.2157 O.2     1  UNL1       -0.2670
      6 N          -8.0142  -16.0733   24.9299 N.ar    1  UNL1       -0.2899
      7 C          -6.9724  -16.5467   23.9599 C.ar    1  UNL1        0.0783
      8 N          -0.8798  -19.2980   19.7341 N.pl3   1  UNL1       -0.2443
      9 C          -1.2473  -18.0286   20.4437 C.2     1  UNL1        0.3462
     10 N          -0.5342  -16.7143   20.3256 N.2     1  UNL1        0.0797
     11 N          -1.2386  -15.7240   21.2048 N.2     1  UNL1       -0.0381
     12 C          -2.3872  -16.4263   21.8664 C.2     1  UNL1        0.1169
     13 C          -3.4288  -15.9529   22.8363 C.3     1  UNL1        0.0763
     14 C          -4.4758  -16.9038   23.3358 C.2     1  UNL1       -0.0146
     15 C          -4.4812  -18.3281   22.8654 C.2     1  UNL1       -0.0035
     16 C          -3.4396  -18.8015   21.8955 C.2     1  UNL1        0.0085
     17 C          -2.3926  -17.8506   21.3959 C.2     1  UNL1        0.1018
     18 H          -0.1064  -19.3154   19.1253 H       1  UNL1        0.2885
     19 H          -1.4120  -20.1138   19.8773 H       1  UNL1        0.2885
     20 C          -9.4691  -16.1896   24.5841 C.3     1  UNL1        0.1380
     21 C          -9.9888  -17.4396   23.9380 C.ar    1  UNL1        0.0280
     22 C          -9.8871  -18.7528   24.6557 C.ar    1  UNL1       -0.0002
     23 C         -10.4068  -20.0028   24.0097 C.ar    1  UNL1       -0.0001
     24 C         -11.0282  -19.9397   22.6459 C.ar    1  UNL1        0.0023
     25 C         -11.1299  -18.6265   21.9282 C.ar    1  UNL1        0.0294
     26 C         -10.6102  -17.3765   22.5743 C.ar    1  UNL1        0.1380
     27 F         -10.7118  -16.0632   21.8565 F       1  UNL1       -0.2044
@<TRIPOS>BOND
     1     8     9    1
     2     9    10    2
     3    10    11    1
     4    11    12    2
     5    12    13    1
     6    13    14    1
     7    14     1    1
     8     1     2   ar
     9     2     3   ar
    10     3     4   ar
    11     4     5    2
    12     4     6   ar
    13     6    20    1
    14    20    21    1
    15    21    22   ar
    16    22    23   ar
    17    23    24   ar
    18    24    25   ar
    19    25    26   ar
    20    26    27    1
    21     6     7   ar
    22    14    15    2
    23    15    16    1
    24    16    17    2
    25    17     9    1
    26    17    12    1
    27     7     1   ar
    28    26    21   ar
    29     8    18    1
    30     8    19    1
@<TRIPOS>MOLECULE
*****
 27 30 0 0 0
SMALL
GASTEIGER

@<TRIPOS>ATOM
      1 C         -13.0873   -6.6811   18.8601 C.ar    1  UNL1        0.0139
      2 C         -11.7422   -7.3305   18.7218 C.ar    1  UNL1        0.0061
      3 C         -10.4970   -6.4963   18.7808 C.ar    1  UNL1        0.0608
      4 C         -10.5968   -5.0126   18.9781 C.ar    1  UNL1        0.2612
      5 O          -9.3516   -4.1784   19.0371 O.2     1  UNL1       -0.2670
      6 N         -11.9419   -4.3633   19.1164 N.ar    1  UNL1       -0.2899
      7 C         -13.1871   -5.1976   19.0574 C.ar    1  UNL1        0.0783
      8 N         -18.6304  -11.0945   18.2060 N.pl3   1  UNL1       -0.2443
      9 C         -18.1921   -9.7862   18.7944 C.2     1  UNL1        0.3462
     10 N         -19.0460   -8.8505   19.5976 N.2     1  UNL1        0.0797
     11 N         -18.2045   -7.6699   19.9825 N.2     1  UNL1       -0.0381
     12 C         -16.8305   -7.8761   19.4172 C.2     1  UNL1        0.1169
     13 C         -15.5853   -7.0418   19.4763 C.3     1  UNL1        0.0763
     14 C         -14.3325   -7.5155   18.8011 C.2     1  UNL1       -0.0146
     15 C         -14.3248   -8.8234   18.0668 C.2     1  UNL1       -0.0035
     16 C         -15.5699   -9.6577   18.0077 C.2     1  UNL1        0.0085
     17 C         -16.8228   -9.1840   18.6830 C.2     1  UNL1        0.1018
     18 H         -19.5552  -11.4067   18.3342 H       1  UNL1        0.2885
     19 H         -17.9932  -11.6410   17.6917 H       1  UNL1        0.2885
     20 C         -12.0418   -2.8797   19.3137 C.3     1  UNL1        0.1380
     21 C         -13.3427   -2.1758   19.0643 C.ar    1  UNL1        0.0280
     22 C         -13.6043   -1.5319   17.7351 C.ar    1  UNL1       -0.0002
     23 C         -14.9052   -0.8280   17.4857 C.ar    1  UNL1       -0.0001
     24 C         -15.9445   -0.7680   18.5656 C.ar    1  UNL1        0.0023
     25 C         -15.6829   -1.4120   19.8948 C.ar    1  UNL1        0.0294
     26 C         -14.3820   -2.1158   20.1442 C.ar    1  UNL1        0.1380
     27 F         -14.1205   -2.7598   21.4735 F       1  UNL1       -0.2044
@<TRIPOS>BOND
     1     8     9    1
     2     9    10    2
     3    10    11    1
     4    11    12    2
     5    12    13    1
     6    13    14    1
     7    14     1    1
     8     1     2   ar
     9     2     3   ar
    10     3     4   ar
    11     4     5    2
    12     4     6   ar
    13     6    20    1
    14    20    21    1
    15    21    22   ar
    16    22    23   ar
    17    23    24   ar
    18    24    25   ar
    19    25    26   ar
    20    26    27    1
    21     6     7   ar
    22    14    15    2
    23    15    16    1
    24    16    17    2
    25    17     9    1
    26    17    12    1
    27     7     1   ar
    28    26    21   ar
    29     8    18    1
    30     8    19    1
@<TRIPOS>MOLECULE
*****
 27 30 0 0 0
SMALL
GASTEIGER

@<TRIPOS>ATOM
      1 C         -15.6291   -4.7071   18.7740 C.ar    1  UNL1        0.0139
      2 C         -16.6199   -3.5962   18.5888 C.ar    1  UNL1        0.0061
      3 C         -16.1683   -2.1680   18.6658 C.ar    1  UNL1        0.0608
      4 C         -14.7259   -1.8505   18.9280 C.ar    1  UNL1        0.2612
      5 O         -14.2742   -0.4222   19.0050 O.2     1  UNL1       -0.2670
      6 N         -13.7351   -2.9614   19.1133 N.ar    1  UNL1       -0.2899
      7 C         -14.1868   -4.3898   19.0363 C.ar    1  UNL1        0.0783
      8 N         -18.4206  -11.2446   18.4561 N.pl3   1  UNL1       -0.2443
      9 C         -17.1290  -10.4820   18.4472 C.2     1  UNL1        0.3462
     10 N         -15.7555  -11.0753   18.3408 N.2     1  UNL1        0.0797
     11 N         -14.7618   -9.9521   18.3710 N.2     1  UNL1       -0.0381
     12 C         -15.5212   -8.6645   18.4960 C.2     1  UNL1        0.1169
     13 C         -15.0695   -7.2363   18.5730 C.3     1  UNL1        0.0763
     14 C         -16.0808   -6.1355   18.6970 C.2     1  UNL1       -0.0146
     15 C         -17.5439   -6.4630   18.7441 C.2     1  UNL1       -0.0035
     16 C         -17.9956   -7.8913   18.6672 C.2     1  UNL1        0.0085
     17 C         -16.9842   -8.9920   18.5431 C.2     1  UNL1        0.1018
     18 H         -18.4128  -12.2267   18.3880 H       1  UNL1        0.2885
     19 H         -19.2761  -10.7631   18.5301 H       1  UNL1        0.2885
     20 C         -12.2927   -2.6440   19.3755 C.3     1  UNL1        0.1380
     21 C         -11.2532   -2.9727   18.3454 C.ar    1  UNL1        0.0280
     22 C         -10.9478   -1.9952   17.2494 C.ar    1  UNL1       -0.0002
     23 C          -9.9082   -2.3239   16.2193 C.ar    1  UNL1       -0.0001
     24 C          -9.1740   -3.6302   16.2851 C.ar    1  UNL1        0.0023
     25 C          -9.4793   -4.6078   17.3810 C.ar    1  UNL1        0.0294
     26 C         -10.5189   -4.2791   18.4111 C.ar    1  UNL1        0.1380
     27 F         -10.8242   -5.2567   19.5071 F       1  UNL1       -0.2044
@<TRIPOS>BOND
     1     8     9    1
     2     9    10    2
     3    10    11    1
     4    11    12    2
     5    12    13    1
     6    13    14    1
     7    14     1    1
     8     1     2   ar
     9     2     3   ar
    10     3     4   ar
    11     4     5    2
    12     4     6   ar
    13     6    20    1
    14    20    21    1
    15    21    22   ar
    16    22    23   ar
    17    23    24   ar
    18    24    25   ar
    19    25    26   ar
    20    26    27    1
    21     6     7   ar
    22    14    15    2
    23    15    16    1
    24    16    17    2
    25    17     9    1
    26    17    12    1
    27     7     1   ar
    28    26    21   ar
    29     8    18    1
    30     8    19    1
@<TRIPOS>MOLECULE
*****
 27 30 0 0 0
SMALL
GASTEIGER

@<TRIPOS>ATOM
      1 C         -12.9294   -6.3473   18.2773 C.ar    1  UNL1        0.0139
      2 C         -11.6098   -6.6464   18.9248 C.ar    1  UNL1        0.0061
      3 C         -10.4206   -5.7777   18.6398 C.ar    1  UNL1        0.0608
      4 C         -10.5510   -4.6099   17.7075 C.ar    1  UNL1        0.2612
      5 O          -9.3619   -3.7412   17.4225 O.2     1  UNL1       -0.2670
      6 N         -11.8707   -4.3108   17.0600 N.ar    1  UNL1       -0.2899
      7 C         -13.0599   -5.1796   17.3450 C.ar    1  UNL1        0.0783
      8 N         -18.8769   -9.9048   19.8908 N.pl3   1  UNL1       -0.2443
      9 C         -17.5099  -10.0484   19.2902 C.2     1  UNL1        0.3462
     10 N         -16.9160  -11.3120   18.7421 N.2     1  UNL1        0.0797
     11 N         -15.5359  -10.9981   18.2454 N.2     1  UNL1       -0.0381
     12 C         -15.2769   -9.5404   18.4866 C.2     1  UNL1        0.1169
     13 C         -14.0877   -8.6717   18.2016 C.3     1  UNL1        0.0763
     14 C         -14.1186   -7.2161   18.5623 C.2     1  UNL1       -0.0146
     15 C         -15.3387   -6.6292   19.2080 C.2     1  UNL1       -0.0035
     16 C         -16.5278   -7.4978   19.4930 C.2     1  UNL1        0.0085
     17 C         -16.4969   -8.9535   19.1323 C.2     1  UNL1        0.1018
     18 H         -19.4728  -10.6863   19.9508 H       1  UNL1        0.2885
     19 H         -19.1783   -9.0292   20.2249 H       1  UNL1        0.2885
     20 C         -12.0011   -3.1431   16.1277 C.3     1  UNL1        0.1380
     21 C         -12.2716   -1.7729   16.6750 C.ar    1  UNL1        0.0280
     22 C         -11.2271   -0.7020   16.5656 C.ar    1  UNL1       -0.0002
     23 C         -11.4976    0.6682   17.1129 C.ar    1  UNL1       -0.0001
     24 C         -12.8126    0.9673   17.7696 C.ar    1  UNL1        0.0023
     25 C         -13.8571   -0.1036   17.8790 C.ar    1  UNL1        0.0294
     26 C         -13.5866   -1.4738   17.3317 C.ar    1  UNL1        0.1380
     27 F         -14.6311   -2.5448   17.4412 F       1  UNL1       -0.2044
@<TRIPOS>BOND
     1     8     9    1
     2     9    10    2
     3    10    11    1
     4    11    12    2
     5    12    13    1
     6    13    14    1
     7    14     1    1
     8     1     2   ar
     9     2     3   ar
    10     3     4   ar
    11     4     5    2
    12     4     6   ar
    13     6    20    1
    14    20    21    1
    15    21    22   ar
    16    22    23   ar
    17    23    24   ar
    18    24    25   ar
    19    25    26   ar
    20    26    27    1
    21     6     7   ar
    22    14    15    2
    23    15    16    1
    24    16    17    2
    25    17     9    1
    26    17    12    1
    27     7     1   ar
    28    26    21   ar
    29     8    18    1
    30     8    19    1
