@<TRIPOS>MOLECULE
*****
 23 25 0 0 0
SMALL
GASTEIGER

@<TRIPOS>ATOM
      1 C          -7.2409  -18.0474   21.9822 C.3     1  UNL1        0.1895
      2 C          -8.5451  -18.7853   22.0503 C.ar    1  UNL1        0.0172
      3 C          -8.9281  -19.5174   23.3022 C.ar    1  UNL1       -0.0008
      4 C         -10.2323  -20.2553   23.3703 C.ar    1  UNL1       -0.0002
      5 C         -11.1535  -20.2611   22.1865 C.ar    1  UNL1       -0.0000
      6 C         -10.7705  -19.5289   20.9345 C.ar    1  UNL1       -0.0002
      7 C          -9.4663  -18.7911   20.8664 C.ar    1  UNL1       -0.0008
      8 C          -5.9938  -18.7660   21.5597 C.3     1  UNL1        0.0615
      9 C          -5.6693  -19.2259   20.1693 C.3     1  UNL1        0.0224
     10 C          -4.3272  -19.8949   20.2038 C.3     1  UNL1        0.0687
     11 N          -3.8223  -19.8486   21.6156 N.3     1  UNL1       -0.2973
     12 C          -4.8523  -19.1509   22.4536 C.3     1  UNL1        0.0725
     13 H          -2.9414  -19.3356   21.6515 H       1  UNL1        0.1232
     14 O          -7.1838  -16.5910   22.3366 O.3     1  UNL1       -0.4730
     15 CL         -8.6026  -15.3744   27.1849 Cl      1  UNL1       -0.0813
     16 C          -7.5294  -15.5636   26.1543 C.ar    1  UNL1        0.0712
     17 C          -6.0921  -15.3336   26.5171 C.ar    1  UNL1        0.0133
     18 C          -5.0189  -15.5228   25.4865 C.ar    1  UNL1        0.0154
     19 C          -5.3828  -15.9419   24.0929 C.ar    1  UNL1        0.0924
     20 CL         -4.6956  -15.9913   23.6919 Cl      1  UNL1       -0.0791
     21 C          -6.8199  -16.1719   23.7301 C.ar    1  UNL1        0.1605
     22 C          -7.8933  -15.9827   24.7608 C.ar    1  UNL1        0.1029
     23 CL         -9.3304  -16.2127   24.3979 Cl      1  UNL1       -0.0782
@<TRIPOS>BOND
     1    15    16    1
     2    16    17   ar
     3    17    18   ar
     4    18    19   ar
     5    19    20    1
     6    19    21   ar
     7    21    14    1
     8     1    14    1
     9     1     2    1
    10     2     3   ar
    11     3     4   ar
    12     4     5   ar
    13     5     6   ar
    14     6     7   ar
    15     1     8    1
    16     8     9    1
    17     9    10    1
    18    10    11    1
    19    11    12    1
    20    21    22   ar
    21    22    23    1
    22    22    16   ar
    23     7     2   ar
    24    12     8    1
    25    11    13    1
@<TRIPOS>MOLECULE
*****
 23 25 0 0 0
SMALL
GASTEIGER

@<TRIPOS>ATOM
      1 C          -7.7497  -18.2699   22.6809 C.3     1  UNL1        0.1895
      2 C          -6.4405  -18.6950   22.0847 C.ar    1  UNL1        0.0172
      3 C          -6.4162  -19.4456   20.7863 C.ar    1  UNL1       -0.0008
      4 C          -5.1071  -19.8707   20.1901 C.ar    1  UNL1       -0.0002
      5 C          -3.8222  -19.5452   20.8924 C.ar    1  UNL1       -0.0000
      6 C          -3.8465  -18.7946   22.1909 C.ar    1  UNL1       -0.0002
      7 C          -5.1556  -18.3695   22.7870 C.ar    1  UNL1       -0.0008
      8 C          -7.8774  -16.9218   23.3261 C.3     1  UNL1        0.0615
      9 C          -8.2985  -16.6579   24.7414 C.3     1  UNL1        0.0224
     10 C          -8.2879  -15.1739   24.9592 C.3     1  UNL1        0.0687
     11 N          -7.8601  -14.5205   23.6785 N.3     1  UNL1       -0.2973
     12 C          -7.6064  -15.6008   22.6691 C.3     1  UNL1        0.0725
     13 H          -7.0069  -13.9831   23.8322 H       1  UNL1        0.1232
     14 O          -8.9310  -19.1929   22.6319 O.3     1  UNL1       -0.4730
     15 CL        -13.7856  -17.9686   24.0228 Cl      1  UNL1       -0.0813
     16 C         -12.7145  -18.0451   22.9755 C.ar    1  UNL1        0.0712
     17 C         -12.9996  -17.5860   21.5762 C.ar    1  UNL1        0.0133
     18 C         -11.9285  -17.6626   20.5289 C.ar    1  UNL1        0.0154
     19 C         -10.5723  -18.1982   20.8808 C.ar    1  UNL1        0.0924
     20 CL        -10.1419  -18.1638   20.2107 Cl      1  UNL1       -0.0791
     21 C         -10.2872  -18.6573   22.2800 C.ar    1  UNL1        0.1605
     22 C         -11.3583  -18.5808   23.3274 C.ar    1  UNL1        0.1029
     23 CL        -11.0732  -19.0399   24.7266 Cl      1  UNL1       -0.0782
@<TRIPOS>BOND
     1    15    16    1
     2    16    17   ar
     3    17    18   ar
     4    18    19   ar
     5    19    20    1
     6    19    21   ar
     7    21    14    1
     8     1    14    1
     9     1     2    1
    10     2     3   ar
    11     3     4   ar
    12     4     5   ar
    13     5     6   ar
    14     6     7   ar
    15     1     8    1
    16     8     9    1
    17     9    10    1
    18    10    11    1
    19    11    12    1
    20    21    22   ar
    21    22    23    1
    22    22    16   ar
    23     7     2   ar
    24    12     8    1
    25    11    13    1
@<TRIPOS>MOLECULE
*****
 23 25 0 0 0
SMALL
GASTEIGER

@<TRIPOS>ATOM
      1 C          -7.3652  -17.9659   22.1875 C.3     1  UNL1        0.1895
      2 C          -6.1511  -18.6912   21.6877 C.ar    1  UNL1        0.0172
      3 C          -6.1486  -19.2907   20.3127 C.ar    1  UNL1       -0.0008
      4 C          -4.9345  -20.0160   19.8129 C.ar    1  UNL1       -0.0002
      5 C          -3.7228  -20.1419   20.6881 C.ar    1  UNL1       -0.0000
      6 C          -3.7252  -19.5424   22.0631 C.ar    1  UNL1       -0.0002
      7 C          -4.9393  -18.8171   22.5629 C.ar    1  UNL1       -0.0008
      8 C          -8.6624  -18.7006   22.3533 C.3     1  UNL1        0.0615
      9 C          -8.9192  -19.8333   23.3025 C.3     1  UNL1        0.0224
     10 C         -10.3461  -20.2642   23.1348 C.3     1  UNL1        0.0687
     11 N         -10.9713  -19.3979   22.0819 N.3     1  UNL1       -0.2973
     12 C          -9.9307  -18.4314   21.5989 C.3     1  UNL1        0.0725
     13 H         -11.7608  -18.8874   22.4776 H       1  UNL1        0.1232
     14 O          -7.2821  -16.5059   22.5215 O.3     1  UNL1       -0.4730
     15 CL         -8.5931  -15.4585   27.4392 Cl      1  UNL1       -0.0813
     16 C          -7.5514  -15.5502   26.3639 C.ar    1  UNL1        0.0712
     17 C          -6.1233  -15.2097   26.6721 C.ar    1  UNL1        0.0133
     18 C          -5.0816  -15.3014   25.5967 C.ar    1  UNL1        0.0154
     19 C          -5.4679  -15.7334   24.2132 C.ar    1  UNL1        0.0924
     20 CL         -4.7960  -15.7234   23.7843 Cl      1  UNL1       -0.0791
     21 C          -6.8958  -16.0739   23.9050 C.ar    1  UNL1        0.1605
     22 C          -7.9376  -15.9822   24.9804 C.ar    1  UNL1        0.1029
     23 CL         -9.3656  -16.3227   24.6722 Cl      1  UNL1       -0.0782
@<TRIPOS>BOND
     1    15    16    1
     2    16    17   ar
     3    17    18   ar
     4    18    19   ar
     5    19    20    1
     6    19    21   ar
     7    21    14    1
     8     1    14    1
     9     1     2    1
    10     2     3   ar
    11     3     4   ar
    12     4     5   ar
    13     5     6   ar
    14     6     7   ar
    15     1     8    1
    16     8     9    1
    17     9    10    1
    18    10    11    1
    19    11    12    1
    20    21    22   ar
    21    22    23    1
    22    22    16   ar
    23     7     2   ar
    24    12     8    1
    25    11    13    1
@<TRIPOS>MOLECULE
*****
 23 25 0 0 0
SMALL
GASTEIGER

@<TRIPOS>ATOM
      1 C          -8.1936  -17.2959   22.0931 C.3     1  UNL1        0.1895
      2 C          -9.6819  -17.4505   22.1988 C.ar    1  UNL1        0.0172
      3 C         -10.5879  -16.5152   21.4543 C.ar    1  UNL1       -0.0008
      4 C         -12.0761  -16.6699   21.5600 C.ar    1  UNL1       -0.0002
      5 C         -12.6584  -17.7599   22.4102 C.ar    1  UNL1       -0.0000
      6 C         -11.7524  -18.6953   23.1548 C.ar    1  UNL1       -0.0002
      7 C         -10.2642  -18.5406   23.0491 C.ar    1  UNL1       -0.0008
      8 C          -7.3569  -18.4279   21.5748 C.3     1  UNL1        0.0615
      9 C          -6.0575  -18.9016   22.1554 C.3     1  UNL1        0.0224
     10 C          -5.5702  -20.0513   21.3243 C.3     1  UNL1        0.0687
     11 N          -6.5685  -20.2882   20.2300 N.3     1  UNL1       -0.2973
     12 C          -7.6728  -19.2848   20.3849 C.3     1  UNL1        0.0725
     13 H          -6.9462  -21.2327   20.3045 H       1  UNL1        0.1232
     14 O          -7.5421  -16.0093   22.5057 O.3     1  UNL1       -0.4730
     15 CL         -8.4823  -15.1876   27.5496 Cl      1  UNL1       -0.0813
     16 C          -7.5118  -15.4277   26.4314 C.ar    1  UNL1        0.0712
     17 C          -6.0408  -15.4968   26.7168 C.ar    1  UNL1        0.0133
     18 C          -5.0703  -15.7369   25.5986 C.ar    1  UNL1        0.0154
     19 C          -5.5708  -15.9077   24.1949 C.ar    1  UNL1        0.0924
     20 CL         -4.9239  -16.0239   23.7437 Cl      1  UNL1       -0.0791
     21 C          -7.0417  -15.8385   23.9094 C.ar    1  UNL1        0.1605
     22 C          -8.0123  -15.5985   25.0277 C.ar    1  UNL1        0.1029
     23 CL         -9.4832  -15.5293   24.7422 Cl      1  UNL1       -0.0782
@<TRIPOS>BOND
     1    15    16    1
     2    16    17   ar
     3    17    18   ar
     4    18    19   ar
     5    19    20    1
     6    19    21   ar
     7    21    14    1
     8     1    14    1
     9     1     2    1
    10     2     3   ar
    11     3     4   ar
    12     4     5   ar
    13     5     6   ar
    14     6     7   ar
    15     1     8    1
    16     8     9    1
    17     9    10    1
    18    10    11    1
    19    11    12    1
    20    21    22   ar
    21    22    23    1
    22    22    16   ar
    23     7     2   ar
    24    12     8    1
    25    11    13    1
@<TRIPOS>MOLECULE
*****
 23 25 0 0 0
SMALL
GASTEIGER

@<TRIPOS>ATOM
      1 C          -7.2768  -18.5740   22.3804 C.3     1  UNL1        0.1895
      2 C          -5.9296  -19.0059   21.8820 C.ar    1  UNL1        0.0172
      3 C          -4.6877  -18.5602   22.5954 C.ar    1  UNL1       -0.0008
      4 C          -3.3405  -18.9921   22.0970 C.ar    1  UNL1       -0.0002
      5 C          -3.2351  -19.8696   20.8851 C.ar    1  UNL1       -0.0000
      6 C          -4.4770  -20.3154   20.1716 C.ar    1  UNL1       -0.0002
      7 C          -5.8242  -19.8835   20.6700 C.ar    1  UNL1       -0.0008
      8 C          -7.4961  -17.1554   22.8156 C.3     1  UNL1        0.0615
      9 C          -7.2509  -16.6069   24.1900 C.3     1  UNL1        0.0224
     10 C          -7.6023  -15.1487   24.1766 C.3     1  UNL1        0.0687
     11 N          -8.0647  -14.7959   22.7939 N.3     1  UNL1       -0.2973
     12 C          -7.9990  -16.0362   21.9527 C.3     1  UNL1        0.0725
     13 H          -7.4581  -14.0773   22.3989 H       1  UNL1        0.1232
     14 O          -8.4048  -19.5608   22.4435 O.3     1  UNL1       -0.4730
     15 CL        -13.0241  -17.5253   21.2113 Cl      1  UNL1       -0.0813
     16 C         -12.0851  -18.0903   22.2354 C.ar    1  UNL1        0.0712
     17 C         -12.5165  -18.2025   23.6677 C.ar    1  UNL1        0.0133
     18 C         -11.5774  -18.7675   24.6918 C.ar    1  UNL1        0.0154
     19 C         -10.2069  -19.2202   24.2838 C.ar    1  UNL1        0.0924
     20 CL         -9.8564  -19.4863   24.9485 Cl      1  UNL1       -0.0791
     21 C          -9.7754  -19.1080   22.8516 C.ar    1  UNL1        0.1605
     22 C         -10.7145  -18.5430   21.8274 C.ar    1  UNL1        0.1029
     23 CL        -10.2830  -18.4308   20.3952 Cl      1  UNL1       -0.0782
@<TRIPOS>BOND
     1    15    16    1
     2    16    17   ar
     3    17    18   ar
     4    18    19   ar
     5    19    20    1
     6    19    21   ar
     7    21    14    1
     8     1    14    1
     9     1     2    1
    10     2     3   ar
    11     3     4   ar
    12     4     5   ar
    13     5     6   ar
    14     6     7   ar
    15     1     8    1
    16     8     9    1
    17     9    10    1
    18    10    11    1
    19    11    12    1
    20    21    22   ar
    21    22    23    1
    22    22    16   ar
    23     7     2   ar
    24    12     8    1
    25    11    13    1
@<TRIPOS>MOLECULE
*****
 23 25 0 0 0
SMALL
GASTEIGER

@<TRIPOS>ATOM
      1 C          -8.1944  -16.5593   23.9001 C.3     1  UNL1        0.1895
      2 C          -9.5553  -17.1788   23.7803 C.ar    1  UNL1        0.0172
      3 C         -10.6388  -16.4684   23.0245 C.ar    1  UNL1       -0.0008
      4 C         -11.9997  -17.0879   22.9048 C.ar    1  UNL1       -0.0002
      5 C         -12.2770  -18.4177   23.5408 C.ar    1  UNL1       -0.0000
      6 C         -11.1934  -19.1282   24.2966 C.ar    1  UNL1       -0.0002
      7 C          -9.8326  -18.5087   24.4164 C.ar    1  UNL1       -0.0008
      8 C          -7.7436  -15.9871   25.2114 C.3     1  UNL1        0.0615
      9 C          -8.4061  -16.1992   26.5403 C.3     1  UNL1        0.0224
     10 C          -7.6231  -15.4455   27.5741 C.3     1  UNL1        0.0687
     11 N          -6.4767  -14.7674   26.8841 N.3     1  UNL1       -0.2973
     12 C          -6.5512  -15.1022   25.4237 C.3     1  UNL1        0.0725
     13 H          -5.5937  -15.1007   27.2710 H       1  UNL1        0.1232
     14 O          -7.2844  -16.5121   22.7086 O.3     1  UNL1       -0.4730
     15 CL         -6.0070  -21.0745   20.5750 Cl      1  UNL1       -0.0813
     16 C          -5.6450  -19.8882   21.4185 C.ar    1  UNL1        0.0712
     17 C          -4.2823  -19.7966   22.0387 C.ar    1  UNL1        0.0133
     18 C          -3.9203  -18.6103   22.8822 C.ar    1  UNL1        0.0154
     19 C          -4.9210  -17.5154   23.1055 C.ar    1  UNL1        0.0924
     20 CL         -4.5589  -16.9781   23.5699 Cl      1  UNL1       -0.0791
     21 C          -6.2837  -17.6069   22.4853 C.ar    1  UNL1        0.1605
     22 C          -6.6457  -18.7933   21.6418 C.ar    1  UNL1        0.1029
     23 CL         -8.0084  -18.8848   21.0216 Cl      1  UNL1       -0.0782
@<TRIPOS>BOND
     1    15    16    1
     2    16    17   ar
     3    17    18   ar
     4    18    19   ar
     5    19    20    1
     6    19    21   ar
     7    21    14    1
     8     1    14    1
     9     1     2    1
    10     2     3   ar
    11     3     4   ar
    12     4     5   ar
    13     5     6   ar
    14     6     7   ar
    15     1     8    1
    16     8     9    1
    17     9    10    1
    18    10    11    1
    19    11    12    1
    20    21    22   ar
    21    22    23    1
    22    22    16   ar
    23     7     2   ar
    24    12     8    1
    25    11    13    1
@<TRIPOS>MOLECULE
*****
 23 25 0 0 0
SMALL
GASTEIGER

@<TRIPOS>ATOM
      1 C          -8.4743  -16.5458   23.6769 C.3     1  UNL1        0.1895
      2 C          -9.8755  -17.0798   23.6372 C.ar    1  UNL1        0.0172
      3 C         -10.9358  -16.3474   22.8696 C.ar    1  UNL1       -0.0008
      4 C         -12.3369  -16.8814   22.8299 C.ar    1  UNL1       -0.0002
      5 C         -12.6778  -18.1479   23.5578 C.ar    1  UNL1       -0.0000
      6 C         -11.6175  -18.8804   24.3254 C.ar    1  UNL1       -0.0002
      7 C         -10.2163  -18.3464   24.3651 C.ar    1  UNL1       -0.0008
      8 C          -7.9199  -15.9888   24.9546 C.3     1  UNL1        0.0615
      9 C          -8.4813  -16.2068   26.3284 C.3     1  UNL1        0.0224
     10 C          -7.6152  -15.4687   27.3056 C.3     1  UNL1        0.0687
     11 N          -6.5184  -14.7944   26.5358 N.3     1  UNL1       -0.2973
     12 C          -6.7068  -15.1158   25.0827 C.3     1  UNL1        0.0725
     13 H          -5.6117  -15.1385   26.8517 H       1  UNL1        0.1232
     14 O          -7.6275  -16.5689   22.4390 O.3     1  UNL1       -0.4730
     15 CL         -3.5733  -19.8173   22.3325 Cl      1  UNL1       -0.0813
     16 C          -4.9771  -19.4781   21.9273 C.ar    1  UNL1        0.0712
     17 C          -5.7577  -20.4239   21.0634 C.ar    1  UNL1        0.0133
     18 C          -7.1615  -20.0847   20.6582 C.ar    1  UNL1        0.0154
     19 C          -7.7848  -18.7997   21.1167 C.ar    1  UNL1        0.0924
     20 CL         -8.5203  -18.7905   20.8096 Cl      1  UNL1       -0.0791
     21 C          -7.0043  -17.8539   21.9805 C.ar    1  UNL1        0.1605
     22 C          -5.6004  -18.1931   22.3858 C.ar    1  UNL1        0.1029
     23 CL         -4.8199  -17.2472   23.2496 Cl      1  UNL1       -0.0782
@<TRIPOS>BOND
     1    15    16    1
     2    16    17   ar
     3    17    18   ar
     4    18    19   ar
     5    19    20    1
     6    19    21   ar
     7    21    14    1
     8     1    14    1
     9     1     2    1
    10     2     3   ar
    11     3     4   ar
    12     4     5   ar
    13     5     6   ar
    14     6     7   ar
    15     1     8    1
    16     8     9    1
    17     9    10    1
    18    10    11    1
    19    11    12    1
    20    21    22   ar
    21    22    23    1
    22    22    16   ar
    23     7     2   ar
    24    12     8    1
    25    11    13    1
@<TRIPOS>MOLECULE
*****
 23 25 0 0 0
SMALL
GASTEIGER

@<TRIPOS>ATOM
      1 C          -7.5290  -18.0421   21.7692 C.3     1  UNL1        0.1895
      2 C          -6.2243  -18.7188   21.4695 C.ar    1  UNL1        0.0172
      3 C          -5.1705  -18.8200   22.5321 C.ar    1  UNL1       -0.0008
      4 C          -3.8658  -19.4967   22.2324 C.ar    1  UNL1       -0.0002
      5 C          -3.6150  -20.0723   20.8701 C.ar    1  UNL1       -0.0000
      6 C          -4.6689  -19.9711   19.8075 C.ar    1  UNL1       -0.0002
      7 C          -5.9736  -19.2944   20.1072 C.ar    1  UNL1       -0.0008
      8 C          -8.8111  -18.8169   21.6913 C.3     1  UNL1        0.0615
      9 C          -9.7316  -18.8819   20.5087 C.3     1  UNL1        0.0224
     10 C         -10.8871  -19.7679   20.8689 C.3     1  UNL1        0.0687
     11 N         -10.6808  -20.2506   22.2741 N.3     1  UNL1       -0.2973
     12 C          -9.3977  -19.6627   22.7824 C.3     1  UNL1        0.0725
     13 H         -10.6235  -21.2689   22.2855 H       1  UNL1        0.1232
     14 O          -7.5517  -16.5906   22.1468 O.3     1  UNL1       -0.4730
     15 CL         -5.1235  -14.8770   26.4091 Cl      1  UNL1       -0.0813
     16 C          -6.3764  -15.3354   25.7236 C.ar    1  UNL1        0.0712
     17 C          -7.6682  -15.3954   26.4836 C.ar    1  UNL1        0.0133
     18 C          -8.9211  -15.8538   25.7981 C.ar    1  UNL1        0.0154
     19 C          -8.8823  -16.2522   24.3525 C.ar    1  UNL1        0.0924
     20 CL         -9.6272  -16.4634   24.1627 Cl      1  UNL1       -0.0791
     21 C          -7.5905  -16.1922   23.5924 C.ar    1  UNL1        0.1605
     22 C          -6.3375  -15.7338   24.2780 C.ar    1  UNL1        0.1029
     23 CL         -5.0458  -15.6738   23.5179 Cl      1  UNL1       -0.0782
@<TRIPOS>BOND
     1    15    16    1
     2    16    17   ar
     3    17    18   ar
     4    18    19   ar
     5    19    20    1
     6    19    21   ar
     7    21    14    1
     8     1    14    1
     9     1     2    1
    10     2     3   ar
    11     3     4   ar
    12     4     5   ar
    13     5     6   ar
    14     6     7   ar
    15     1     8    1
    16     8     9    1
    17     9    10    1
    18    10    11    1
    19    11    12    1
    20    21    22   ar
    21    22    23    1
    22    22    16   ar
    23     7     2   ar
    24    12     8    1
    25    11    13    1
@<TRIPOS>MOLECULE
*****
 23 25 0 0 0
SMALL
GASTEIGER

@<TRIPOS>ATOM
      1 C          -9.1224  -16.5792   23.0423 C.3     1  UNL1        0.1895
      2 C         -10.5027  -17.0965   23.3199 C.ar    1  UNL1        0.0172
      3 C         -10.6897  -18.3098   24.1818 C.ar    1  UNL1       -0.0008
      4 C         -12.0700  -18.8272   24.4594 C.ar    1  UNL1       -0.0002
      5 C         -13.2634  -18.1313   23.8750 C.ar    1  UNL1       -0.0000
      6 C         -13.0765  -16.9179   23.0130 C.ar    1  UNL1       -0.0002
      7 C         -11.6962  -16.4006   22.7354 C.ar    1  UNL1       -0.0008
      8 C          -8.2976  -16.0072   24.1570 C.3     1  UNL1        0.0615
      9 C          -8.5496  -16.1910   25.6242 C.3     1  UNL1        0.0224
     10 C          -7.4837  -15.4485   26.3742 C.3     1  UNL1        0.0687
     11 N          -6.5729  -14.8057   25.3705 N.3     1  UNL1       -0.2973
     12 C          -7.0760  -15.1510   24.0001 C.3     1  UNL1        0.0725
     13 H          -5.6231  -15.1579   25.4895 H       1  UNL1        0.1232
     14 O          -8.5669  -16.6338   21.6500 O.3     1  UNL1       -0.4730
     15 CL         -6.0087  -20.9742   20.3789 Cl      1  UNL1       -0.0813
     16 C          -7.2312  -20.1108   20.2802 C.ar    1  UNL1        0.0712
     17 C          -8.3973  -20.5541   19.4472 C.ar    1  UNL1        0.0133
     18 C          -9.6199  -19.6906   19.3485 C.ar    1  UNL1        0.0154
     19 C          -9.6764  -18.3839   20.0828 C.ar    1  UNL1        0.0924
     20 CL        -10.3892  -18.0685   19.9156 Cl      1  UNL1       -0.0791
     21 C          -8.5104  -17.9405   20.9158 C.ar    1  UNL1        0.1605
     22 C          -7.2878  -18.8040   21.0145 C.ar    1  UNL1        0.1029
     23 CL         -6.1218  -18.3607   21.8474 Cl      1  UNL1       -0.0782
@<TRIPOS>BOND
     1    15    16    1
     2    16    17   ar
     3    17    18   ar
     4    18    19   ar
     5    19    20    1
     6    19    21   ar
     7    21    14    1
     8     1    14    1
     9     1     2    1
    10     2     3   ar
    11     3     4   ar
    12     4     5   ar
    13     5     6   ar
    14     6     7   ar
    15     1     8    1
    16     8     9    1
    17     9    10    1
    18    10    11    1
    19    11    12    1
    20    21    22   ar
    21    22    23    1
    22    22    16   ar
    23     7     2   ar
    24    12     8    1
    25    11    13    1
