@<TRIPOS>MOLECULE
*****
 20 23 0 0 0
SMALL
GASTEIGER

@<TRIPOS>ATOM
      1 C         -11.1641  -18.3950   23.7946 C.3     1  UNL1        0.0364
      2 C         -12.2066  -18.1019   22.7567 C.3     1  UNL1        0.0236
      3 C         -13.0494  -17.5843   21.6290 C.3     1  UNL1        0.0690
      4 N         -12.3123  -16.4491   20.9826 N.3     1  UNL1       -0.2972
      5 C         -11.0139  -16.2651   21.7108 C.3     1  UNL1        0.0727
      6 C         -10.9486  -17.2865   22.8072 C.3     1  UNL1        0.0371
      7 H         -12.8678  -15.5958   21.0444 H       1  UNL1        0.1233
      8 C          -9.6051  -16.8708   23.3291 C.ar    1  UNL1       -0.0214
      9 C          -8.3994  -16.9449   22.4398 C.ar    1  UNL1       -0.0042
     10 C          -7.0560  -16.5292   22.9616 C.ar    1  UNL1       -0.0003
     11 C          -6.9182  -16.0393   24.3727 C.ar    1  UNL1       -0.0000
     12 C          -5.5748  -15.6236   24.8945 C.ar    1  UNL1       -0.0000
     13 C          -5.4370  -15.1338   26.3055 C.ar    1  UNL1       -0.0000
     14 C          -6.6427  -15.0597   27.1948 C.ar    1  UNL1       -0.0000
     15 C          -7.9862  -15.4754   26.6730 C.ar    1  UNL1       -0.0000
     16 C          -8.1239  -15.9652   25.2620 C.ar    1  UNL1       -0.0003
     17 C          -9.4674  -16.3810   24.7401 C.ar    1  UNL1       -0.0042
     18 C         -10.6867  -19.2042   24.9640 C.3     1  UNL1        0.1426
     19 C          -8.9847  -20.4237   23.4258 C.3     1  UNL1        0.1741
     20 O          -9.5850  -20.2060   24.7830 O.3     1  UNL1       -0.3511
@<TRIPOS>BOND
     1    19    20    1
     2    20    18    1
     3     1    18    1
     4     1     2    1
     5     2     3    1
     6     3     4    1
     7     4     5    1
     8     5     6    1
     9     6     8    1
    10     8     9   ar
    11     9    10   ar
    12    10    11   ar
    13    11    12   ar
    14    12    13   ar
    15    13    14   ar
    16    14    15   ar
    17    15    16   ar
    18    16    17   ar
    19     6     1    1
    20    17     8   ar
    21     6     2    1
    22    16    11   ar
    23     4     7    1
@<TRIPOS>MOLECULE
*****
 20 23 0 0 0
SMALL
GASTEIGER

@<TRIPOS>ATOM
      1 C          -9.3637  -17.2902   22.7127 C.3     1  UNL1        0.0364
      2 C         -10.3293  -17.9604   23.6446 C.3     1  UNL1        0.0236
      3 C         -11.1188  -18.8846   24.5236 C.3     1  UNL1        0.0690
      4 N         -10.4782  -20.2397   24.4651 N.3     1  UNL1       -0.2972
      5 C          -9.2928  -20.1529   23.5500 C.3     1  UNL1        0.0727
      6 C          -9.2009  -18.7443   23.0430 C.3     1  UNL1        0.0371
      7 H         -11.1447  -20.9224   24.1044 H       1  UNL1        0.1233
      8 C          -7.9814  -18.9615   22.1969 C.ar    1  UNL1       -0.0214
      9 C          -8.1281  -19.3255   20.7491 C.ar    1  UNL1       -0.0042
     10 C          -6.9088  -19.5427   19.9031 C.ar    1  UNL1       -0.0003
     11 C          -5.5425  -19.3960   20.5047 C.ar    1  UNL1       -0.0000
     12 C          -4.3232  -19.6132   19.6587 C.ar    1  UNL1       -0.0000
     13 C          -2.9570  -19.4664   20.2604 C.ar    1  UNL1       -0.0000
     14 C          -2.8102  -19.1025   21.7081 C.ar    1  UNL1       -0.0000
     15 C          -4.0296  -18.8852   22.5542 C.ar    1  UNL1       -0.0000
     16 C          -5.3958  -19.0320   21.9525 C.ar    1  UNL1       -0.0003
     17 C          -6.6152  -18.8148   22.7986 C.ar    1  UNL1       -0.0042
     18 C          -8.9004  -16.0637   21.9840 C.3     1  UNL1        0.1426
     19 C          -7.2510  -15.2446   23.8167 C.3     1  UNL1        0.1741
     20 O          -7.6084  -15.4058   22.3689 O.3     1  UNL1       -0.3511
@<TRIPOS>BOND
     1    19    20    1
     2    20    18    1
     3     1    18    1
     4     1     2    1
     5     2     3    1
     6     3     4    1
     7     4     5    1
     8     5     6    1
     9     6     8    1
    10     8     9   ar
    11     9    10   ar
    12    10    11   ar
    13    11    12   ar
    14    12    13   ar
    15    13    14   ar
    16    14    15   ar
    17    15    16   ar
    18    16    17   ar
    19     6     1    1
    20    17     8   ar
    21     6     2    1
    22    16    11   ar
    23     4     7    1
@<TRIPOS>MOLECULE
*****
 20 23 0 0 0
SMALL
GASTEIGER

@<TRIPOS>ATOM
      1 C         -11.1148  -17.2006   21.2992 C.3     1  UNL1        0.0364
      2 C         -10.8934  -18.2699   20.2709 C.3     1  UNL1        0.0236
      3 C         -10.3913  -19.3668   19.3794 C.3     1  UNL1        0.0690
      4 N          -9.0018  -19.7219   19.8190 N.3     1  UNL1       -0.2972
      5 C          -8.6452  -18.8445   20.9822 C.3     1  UNL1        0.0727
      6 C          -9.8143  -17.9472   21.2614 C.3     1  UNL1        0.0371
      7 H          -8.3460  -19.5655   19.0536 H       1  UNL1        0.1233
      8 C          -9.1858  -17.2258   22.4167 C.ar    1  UNL1       -0.0214
      9 C          -8.2890  -16.0494   22.1681 C.ar    1  UNL1       -0.0042
     10 C          -7.6605  -15.3281   23.3233 C.ar    1  UNL1       -0.0003
     11 C          -7.9289  -15.7830   24.7273 C.ar    1  UNL1       -0.0000
     12 C          -7.3004  -15.0617   25.8825 C.ar    1  UNL1       -0.0000
     13 C          -7.5688  -15.5167   27.2864 C.ar    1  UNL1       -0.0000
     14 C          -8.4657  -16.6930   27.5350 C.ar    1  UNL1       -0.0000
     15 C          -9.0941  -17.4144   26.3798 C.ar    1  UNL1       -0.0000
     16 C          -8.8257  -16.9594   24.9759 C.ar    1  UNL1       -0.0003
     17 C          -9.4542  -17.6808   23.8206 C.ar    1  UNL1       -0.0042
     18 C         -11.9934  -16.1521   21.9147 C.3     1  UNL1        0.1426
     19 C         -13.1280  -17.9669   23.3877 C.3     1  UNL1        0.1741
     20 O         -12.9863  -16.5324   22.9728 O.3     1  UNL1       -0.3511
@<TRIPOS>BOND
     1    19    20    1
     2    20    18    1
     3     1    18    1
     4     1     2    1
     5     2     3    1
     6     3     4    1
     7     4     5    1
     8     5     6    1
     9     6     8    1
    10     8     9   ar
    11     9    10   ar
    12    10    11   ar
    13    11    12   ar
    14    12    13   ar
    15    13    14   ar
    16    14    15   ar
    17    15    16   ar
    18    16    17   ar
    19     6     1    1
    20    17     8   ar
    21     6     2    1
    22    16    11   ar
    23     4     7    1
@<TRIPOS>MOLECULE
*****
 20 23 0 0 0
SMALL
GASTEIGER

@<TRIPOS>ATOM
      1 C          -6.5975  -15.9451   24.1512 C.3     1  UNL1        0.0364
      2 C          -5.3423  -16.6488   23.7280 C.3     1  UNL1        0.0236
      3 C          -4.2826  -17.5299   23.1357 C.3     1  UNL1        0.0690
      4 N          -4.9559  -18.5251   22.2378 N.3     1  UNL1       -0.2972
      5 C          -6.4316  -18.2591   22.2753 C.3     1  UNL1        0.0727
      6 C          -6.6704  -17.0996   23.1963 C.3     1  UNL1        0.0371
      7 H          -4.7663  -19.4718   22.5668 H       1  UNL1        0.1233
      8 C          -8.1614  -17.0749   23.0341 C.ar    1  UNL1       -0.0214
      9 C          -8.7859  -16.2247   21.9677 C.ar    1  UNL1       -0.0042
     10 C         -10.2768  -16.2000   21.8055 C.ar    1  UNL1       -0.0003
     11 C         -11.1434  -17.0256   22.7097 C.ar    1  UNL1       -0.0000
     12 C         -12.6344  -17.0009   22.5475 C.ar    1  UNL1       -0.0000
     13 C         -13.5009  -17.8265   23.4517 C.ar    1  UNL1       -0.0000
     14 C         -12.8764  -18.6768   24.5180 C.ar    1  UNL1       -0.0000
     15 C         -11.3855  -18.7015   24.6802 C.ar    1  UNL1       -0.0000
     16 C         -10.5190  -17.8759   23.7761 C.ar    1  UNL1       -0.0003
     17 C          -9.0279  -17.9005   23.9382 C.ar    1  UNL1       -0.0042
     18 C          -7.2801  -14.8722   24.9468 C.3     1  UNL1        0.1426
     19 C          -7.6334  -16.0727   27.2237 C.3     1  UNL1        0.1741
     20 O          -8.1704  -15.2422   26.0959 O.3     1  UNL1       -0.3511
@<TRIPOS>BOND
     1    19    20    1
     2    20    18    1
     3     1    18    1
     4     1     2    1
     5     2     3    1
     6     3     4    1
     7     4     5    1
     8     5     6    1
     9     6     8    1
    10     8     9   ar
    11     9    10   ar
    12    10    11   ar
    13    11    12   ar
    14    12    13   ar
    15    13    14   ar
    16    14    15   ar
    17    15    16   ar
    18    16    17   ar
    19     6     1    1
    20    17     8   ar
    21     6     2    1
    22    16    11   ar
    23     4     7    1
@<TRIPOS>MOLECULE
*****
 20 23 0 0 0
SMALL
GASTEIGER

@<TRIPOS>ATOM
      1 C          -6.7719  -19.5210   20.3399 C.3     1  UNL1        0.0364
      2 C          -5.3514  -19.1862   20.6862 C.3     1  UNL1        0.0236
      3 C          -4.0570  -18.7334   21.2943 C.3     1  UNL1        0.0690
      4 N          -4.3638  -18.0994   22.6186 N.3     1  UNL1       -0.2972
      5 C          -5.8477  -18.1602   22.8290 C.3     1  UNL1        0.0727
      6 C          -6.4580  -18.8319   21.6347 C.3     1  UNL1        0.0371
      7 H          -4.0540  -17.1276   22.6171 H       1  UNL1        0.1233
      8 C          -7.8764  -18.7487   22.1158 C.ar    1  UNL1       -0.0214
      9 C          -8.4801  -19.8946   22.8725 C.ar    1  UNL1       -0.0042
     10 C          -9.8984  -19.8115   23.3536 C.ar    1  UNL1       -0.0003
     11 C         -10.7130  -18.5824   23.0780 C.ar    1  UNL1       -0.0000
     12 C         -12.1313  -18.4993   23.5591 C.ar    1  UNL1       -0.0000
     13 C         -12.9459  -17.2703   23.2835 C.ar    1  UNL1       -0.0000
     14 C         -12.3422  -16.1245   22.5269 C.ar    1  UNL1       -0.0000
     15 C         -10.9239  -16.2076   22.0458 C.ar    1  UNL1       -0.0000
     16 C         -10.1093  -17.4366   22.3214 C.ar    1  UNL1       -0.0003
     17 C          -8.6910  -17.5198   21.8403 C.ar    1  UNL1       -0.0042
     18 C          -7.7732  -20.1122   19.3923 C.3     1  UNL1        0.1426
     19 C         -10.3104  -19.5549   19.3461 C.3     1  UNL1        0.1741
     20 O          -8.9105  -19.2759   18.8851 O.3     1  UNL1       -0.3511
@<TRIPOS>BOND
     1    19    20    1
     2    20    18    1
     3     1    18    1
     4     1     2    1
     5     2     3    1
     6     3     4    1
     7     4     5    1
     8     5     6    1
     9     6     8    1
    10     8     9   ar
    11     9    10   ar
    12    10    11   ar
    13    11    12   ar
    14    12    13   ar
    15    13    14   ar
    16    14    15   ar
    17    15    16   ar
    18    16    17   ar
    19     6     1    1
    20    17     8   ar
    21     6     2    1
    22    16    11   ar
    23     4     7    1
@<TRIPOS>MOLECULE
*****
 20 23 0 0 0
SMALL
GASTEIGER

@<TRIPOS>ATOM
      1 C          -8.8614  -18.8647   21.2814 C.3     1  UNL1        0.0364
      2 C         -10.0579  -18.7482   20.3842 C.3     1  UNL1        0.0236
      3 C         -11.3097  -18.3694   19.6497 C.3     1  UNL1        0.0690
      4 N         -11.8245  -17.0902   20.2402 N.3     1  UNL1       -0.2972
      5 C         -10.8908  -16.6785   21.3397 C.3     1  UNL1        0.0727
      6 C          -9.7991  -17.7032   21.4286 C.3     1  UNL1        0.0371
      7 H         -12.7609  -17.2353   20.6176 H       1  UNL1        0.1233
      8 C          -9.0614  -17.0486   22.5589 C.ar    1  UNL1       -0.0214
      9 C          -7.9850  -16.0446   22.2702 C.ar    1  UNL1       -0.0042
     10 C          -7.2473  -15.3900   23.4004 C.ar    1  UNL1       -0.0003
     11 C          -7.5860  -15.7395   24.8193 C.ar    1  UNL1       -0.0000
     12 C          -6.8483  -15.0849   25.9495 C.ar    1  UNL1       -0.0000
     13 C          -7.1870  -15.4344   27.3683 C.ar    1  UNL1       -0.0000
     14 C          -8.2634  -16.4384   27.6569 C.ar    1  UNL1       -0.0000
     15 C          -9.0011  -17.0929   26.5268 C.ar    1  UNL1       -0.0000
     16 C          -8.6624  -16.7435   25.1080 C.ar    1  UNL1       -0.0003
     17 C          -9.4001  -17.3981   23.9777 C.ar    1  UNL1       -0.0042
     18 C          -7.6294  -19.6027   21.7143 C.3     1  UNL1        0.1426
     19 C          -5.2547  -18.7346   22.3121 C.3     1  UNL1        0.1741
     20 O          -6.2759  -19.1203   21.2834 O.3     1  UNL1       -0.3511
@<TRIPOS>BOND
     1    19    20    1
     2    20    18    1
     3     1    18    1
     4     1     2    1
     5     2     3    1
     6     3     4    1
     7     4     5    1
     8     5     6    1
     9     6     8    1
    10     8     9   ar
    11     9    10   ar
    12    10    11   ar
    13    11    12   ar
    14    12    13   ar
    15    13    14   ar
    16    14    15   ar
    17    15    16   ar
    18    16    17   ar
    19     6     1    1
    20    17     8   ar
    21     6     2    1
    22    16    11   ar
    23     4     7    1
@<TRIPOS>MOLECULE
*****
 20 23 0 0 0
SMALL
GASTEIGER

@<TRIPOS>ATOM
      1 C          -6.3346  -17.2896   23.1459 C.3     1  UNL1        0.0364
      2 C          -5.5075  -16.3072   23.9211 C.3     1  UNL1        0.0236
      3 C          -4.9583  -15.2198   24.7962 C.3     1  UNL1        0.0690
      4 N          -6.1152  -14.5116   25.4365 N.3     1  UNL1       -0.2972
      5 C          -7.3793  -15.1614   24.9571 C.3     1  UNL1        0.0727
      6 C          -7.0036  -16.2711   24.0206 C.3     1  UNL1        0.0371
      7 H          -6.1092  -13.5271   25.1695 H       1  UNL1        0.1233
      8 C          -8.4077  -16.7080   23.7240 C.ar    1  UNL1       -0.0214
      9 C          -9.1135  -17.6475   24.6562 C.ar    1  UNL1       -0.0042
     10 C         -10.5175  -18.0845   24.3597 C.ar    1  UNL1       -0.0003
     11 C         -11.2157  -17.5818   23.1309 C.ar    1  UNL1       -0.0000
     12 C         -12.6196  -18.0187   22.8343 C.ar    1  UNL1       -0.0000
     13 C         -13.3177  -17.5161   21.6055 C.ar    1  UNL1       -0.0000
     14 C         -12.6119  -16.5766   20.6733 C.ar    1  UNL1       -0.0000
     15 C         -11.2080  -16.1397   20.9698 C.ar    1  UNL1       -0.0000
     16 C         -10.5098  -16.6423   22.1986 C.ar    1  UNL1       -0.0003
     17 C          -9.1058  -16.2054   22.4952 C.ar    1  UNL1       -0.0042
     18 C          -6.4257  -18.4448   22.1934 C.3     1  UNL1        0.1426
     19 C          -7.3204  -19.3917   19.9455 C.3     1  UNL1        0.1741
     20 O          -6.9053  -18.2232   20.7895 O.3     1  UNL1       -0.3511
@<TRIPOS>BOND
     1    19    20    1
     2    20    18    1
     3     1    18    1
     4     1     2    1
     5     2     3    1
     6     3     4    1
     7     4     5    1
     8     5     6    1
     9     6     8    1
    10     8     9   ar
    11     9    10   ar
    12    10    11   ar
    13    11    12   ar
    14    12    13   ar
    15    13    14   ar
    16    14    15   ar
    17    15    16   ar
    18    16    17   ar
    19     6     1    1
    20    17     8   ar
    21     6     2    1
    22    16    11   ar
    23     4     7    1
@<TRIPOS>MOLECULE
*****
 20 23 0 0 0
SMALL
GASTEIGER

@<TRIPOS>ATOM
      1 C          -6.5243  -17.9196   22.4733 C.3     1  UNL1        0.0364
      2 C          -5.4300  -17.1088   23.1018 C.3     1  UNL1        0.0236
      3 C          -4.5719  -16.1190   23.8325 C.3     1  UNL1        0.0690
      4 N          -5.4733  -15.0930   24.4528 N.3     1  UNL1       -0.2972
      5 C          -6.8885  -15.4489   24.1055 C.3     1  UNL1        0.0727
      6 C          -6.8617  -16.6946   23.2706 C.3     1  UNL1        0.0371
      7 H          -5.2490  -14.1681   24.0861 H       1  UNL1        0.1233
      8 C          -8.3475  -16.7943   23.0900 C.ar    1  UNL1       -0.0214
      9 C          -9.0205  -16.0401   21.9818 C.ar    1  UNL1       -0.0042
     10 C         -10.5062  -16.1398   21.8011 C.ar    1  UNL1       -0.0003
     11 C         -11.3190  -16.9938   22.7287 C.ar    1  UNL1       -0.0000
     12 C         -12.8047  -17.0934   22.5480 C.ar    1  UNL1       -0.0000
     13 C         -13.6173  -17.9474   23.4755 C.ar    1  UNL1       -0.0000
     14 C         -12.9442  -18.7016   24.5837 C.ar    1  UNL1       -0.0000
     15 C         -11.4585  -18.6019   24.7644 C.ar    1  UNL1       -0.0000
     16 C         -10.6459  -17.7480   23.8369 C.ar    1  UNL1       -0.0003
     17 C          -9.1601  -17.6483   24.0175 C.ar    1  UNL1       -0.0042
     18 C          -6.9613  -19.0950   21.6502 C.3     1  UNL1        0.1426
     19 C          -9.0937  -19.2890   20.1787 C.3     1  UNL1        0.1741
     20 O          -7.6611  -18.8756   20.3417 O.3     1  UNL1       -0.3511
@<TRIPOS>BOND
     1    19    20    1
     2    20    18    1
     3     1    18    1
     4     1     2    1
     5     2     3    1
     6     3     4    1
     7     4     5    1
     8     5     6    1
     9     6     8    1
    10     8     9   ar
    11     9    10   ar
    12    10    11   ar
    13    11    12   ar
    14    12    13   ar
    15    13    14   ar
    16    14    15   ar
    17    15    16   ar
    18    16    17   ar
    19     6     1    1
    20    17     8   ar
    21     6     2    1
    22    16    11   ar
    23     4     7    1
@<TRIPOS>MOLECULE
*****
 20 23 0 0 0
SMALL
GASTEIGER

@<TRIPOS>ATOM
      1 C          -5.7762  -18.2042   22.5501 C.3     1  UNL1        0.0364
      2 C          -4.8837  -19.0186   21.6612 C.3     1  UNL1        0.0236
      3 C          -4.2577  -19.9773   20.6922 C.3     1  UNL1        0.0690
      4 N          -5.3464  -20.8379   20.1229 N.3     1  UNL1       -0.2972
      5 C          -6.6452  -20.4110   20.7401 C.3     1  UNL1        0.0727
      6 C          -6.3591  -19.2867   21.6908 C.3     1  UNL1        0.0371
      7 H          -5.1641  -21.8172   20.3425 H       1  UNL1        0.1233
      8 C          -7.7799  -19.0861   22.1284 C.ar    1  UNL1       -0.0214
      9 C          -8.4097  -20.0455   23.0942 C.ar    1  UNL1       -0.0042
     10 C          -9.8303  -19.8449   23.5318 C.ar    1  UNL1       -0.0003
     11 C         -10.6212  -18.6849   23.0036 C.ar    1  UNL1       -0.0000
     12 C         -12.0418  -18.4843   23.4412 C.ar    1  UNL1       -0.0000
     13 C         -12.8326  -17.3244   22.9129 C.ar    1  UNL1       -0.0000
     14 C         -12.2028  -16.3650   21.9470 C.ar    1  UNL1       -0.0000
     15 C         -10.7822  -16.5656   21.5094 C.ar    1  UNL1       -0.0000
     16 C          -9.9914  -17.7255   22.0377 C.ar    1  UNL1       -0.0003
     17 C          -8.5707  -17.9261   21.6001 C.ar    1  UNL1       -0.0042
     18 C          -5.9548  -17.1090   23.5594 C.3     1  UNL1        0.1426
     19 C          -7.4793  -15.0394   23.9374 C.3     1  UNL1        0.1741
     20 O          -6.4458  -15.7602   23.1236 O.3     1  UNL1       -0.3511
@<TRIPOS>BOND
     1    19    20    1
     2    20    18    1
     3     1    18    1
     4     1     2    1
     5     2     3    1
     6     3     4    1
     7     4     5    1
     8     5     6    1
     9     6     8    1
    10     8     9   ar
    11     9    10   ar
    12    10    11   ar
    13    11    12   ar
    14    12    13   ar
    15    13    14   ar
    16    14    15   ar
    17    15    16   ar
    18    16    17   ar
    19     6     1    1
    20    17     8   ar
    21     6     2    1
    22    16    11   ar
    23     4     7    1
