@<TRIPOS>MOLECULE
*****
 28 30 0 0 0
SMALL
GASTEIGER

@<TRIPOS>ATOM
      1 C         -12.7845  -16.9206   21.2824 C.3     1  UNL1        0.0307
      2 C         -12.7745  -17.6176   22.6106 C.ar    1  UNL1       -0.0246
      3 C         -13.9792  -17.5505   23.5018 C.ar    1  UNL1       -0.0045
      4 C         -13.9693  -18.2475   24.8300 C.ar    1  UNL1       -0.0007
      5 C         -12.7547  -19.0116   25.2670 C.ar    1  UNL1       -0.0045
      6 C         -11.5501  -19.0786   24.3758 C.ar    1  UNL1       -0.0232
      7 C         -11.5600  -18.3816   23.0476 C.ar    1  UNL1       -0.0121
      8 C         -10.3552  -18.4487   22.1564 C.3     1  UNL1        0.0972
      9 N          -9.1407  -19.2128   22.5934 N.am    1  UNL1       -0.2760
     10 C          -7.9359  -19.2799   21.7022 C.2     1  UNL1        0.2420
     11 O          -7.9458  -18.5829   20.3740 O.2     1  UNL1       -0.2734
     12 C          -9.1308  -19.9098   23.9216 C.3     1  UNL1        0.0983
     13 C         -10.3354  -19.8427   24.8128 C.3     1  UNL1        0.0476
     14 C         -10.3651  -17.7517   20.8282 C.3     1  UNL1        0.0224
     15 C         -10.7441  -18.5059   19.5883 C.3     1  UNL1        0.0021
     16 C          -9.9960  -16.3005   20.7400 C.3     1  UNL1        0.0021
     17 C          -6.7214  -20.0439   22.1392 C.3     1  UNL1        0.1552
     18 N          -5.3519  -19.5088   21.8427 N.3     1  UNL1       -0.2879
     19 H          -4.7479  -19.8039   22.6098 H       1  UNL1        0.1238
     20 C          -4.6555  -19.8934   20.5709 C.3     1  UNL1        0.0961
     21 C          -3.7145  -18.9301   19.9102 C.3     1  UNL1        0.1027
     22 O          -4.9999  -18.5362   19.2449 O.3     1  UNL1       -0.3854
     23 C          -2.7560  -19.6586   20.8050 C.3     1  UNL1        0.0283
     24 C          -1.3027  -19.2870   20.8080 C.3     1  UNL1        0.0024
     25 C          -0.8080  -18.1869   19.9163 C.3     1  UNL1        0.0002
     26 C          -1.7665  -17.4584   19.0216 C.3     1  UNL1        0.0024
     27 C          -3.2198  -17.8300   19.0185 C.3     1  UNL1        0.0283
     28 H          -5.7214  -19.0900   19.5820 H       1  UNL1        0.2103
@<TRIPOS>BOND
     1     1     2    1
     2     2     3   ar
     3     3     4   ar
     4     4     5   ar
     5     5     6   ar
     6     6     7   ar
     7     7     8    1
     8     8    14    1
     9    14    15    1
    10    14    16    1
    11     8     9    1
    12     9    10   am
    13    10    11    2
    14    10    17    1
    15    17    18    1
    16    18    20    1
    17    20    21    1
    18    21    22    1
    19    21    23    1
    20    23    24    1
    21    24    25    1
    22    25    26    1
    23    26    27    1
    24     9    12    1
    25    12    13    1
    26     7     2   ar
    27    27    21    1
    28    13     6    1
    29    18    19    1
    30    22    28    1
@<TRIPOS>MOLECULE
*****
 28 30 0 0 0
SMALL
GASTEIGER

@<TRIPOS>ATOM
      1 C         -13.1352  -17.1701   21.3200 C.3     1  UNL1        0.0307
      2 C         -12.9657  -17.7391   22.6975 C.ar    1  UNL1       -0.0246
      3 C         -14.1616  -17.9305   23.5823 C.ar    1  UNL1       -0.0045
      4 C         -13.9921  -18.4996   24.9598 C.ar    1  UNL1       -0.0007
      5 C         -12.6266  -18.8772   25.4525 C.ar    1  UNL1       -0.0045
      6 C         -11.4306  -18.6858   24.5677 C.ar    1  UNL1       -0.0232
      7 C         -11.6002  -18.1167   23.1902 C.ar    1  UNL1       -0.0121
      8 C         -10.4041  -17.9253   22.3053 C.3     1  UNL1        0.0972
      9 N          -9.0386  -18.3030   22.7980 N.am    1  UNL1       -0.2760
     10 C          -7.8425  -18.1116   21.9131 C.2     1  UNL1        0.2420
     11 O          -8.0120  -17.5425   20.5357 O.2     1  UNL1       -0.2734
     12 C          -8.8690  -18.8720   24.1755 C.3     1  UNL1        0.0983
     13 C         -10.0650  -19.0634   25.0603 C.3     1  UNL1        0.0476
     14 C         -10.5736  -17.3563   20.9278 C.3     1  UNL1        0.0224
     15 C         -10.5282  -15.8717   20.7188 C.3     1  UNL1        0.0021
     16 C         -10.7885  -18.2720   19.7593 C.3     1  UNL1        0.0021
     17 C          -6.4770  -18.4892   22.4058 C.3     1  UNL1        0.1552
     18 N          -5.5866  -17.4490   23.0183 N.3     1  UNL1       -0.2879
     19 H          -4.8891  -17.2070   22.3144 H       1  UNL1        0.1238
     20 C          -6.1702  -16.1581   23.5114 C.3     1  UNL1        0.0961
     21 C          -6.2199  -15.8712   24.9828 C.3     1  UNL1        0.1027
     22 O          -4.7450  -16.0819   24.8082 O.3     1  UNL1       -0.3854
     23 C          -7.6774  -15.7601   24.6463 C.3     1  UNL1        0.0283
     24 C          -8.6725  -15.4352   25.7207 C.3     1  UNL1        0.0024
     25 C          -8.2100  -15.2214   27.1315 C.3     1  UNL1        0.0002
     26 C          -6.7525  -15.3325   27.4680 C.3     1  UNL1        0.0024
     27 C          -5.7574  -15.6574   26.3937 C.3     1  UNL1        0.0283
     28 H          -4.5549  -16.2824   23.8784 H       1  UNL1        0.2103
@<TRIPOS>BOND
     1     1     2    1
     2     2     3   ar
     3     3     4   ar
     4     4     5   ar
     5     5     6   ar
     6     6     7   ar
     7     7     8    1
     8     8    14    1
     9    14    15    1
    10    14    16    1
    11     8     9    1
    12     9    10   am
    13    10    11    2
    14    10    17    1
    15    17    18    1
    16    18    20    1
    17    20    21    1
    18    21    22    1
    19    21    23    1
    20    23    24    1
    21    24    25    1
    22    25    26    1
    23    26    27    1
    24     9    12    1
    25    12    13    1
    26     7     2   ar
    27    27    21    1
    28    13     6    1
    29    18    19    1
    30    22    28    1
@<TRIPOS>MOLECULE
*****
 28 30 0 0 0
SMALL
GASTEIGER

@<TRIPOS>ATOM
      1 C         -11.3752  -17.7581   23.5208 C.3     1  UNL1        0.0307
      2 C         -10.7202  -18.3820   22.3243 C.ar    1  UNL1       -0.0246
      3 C         -11.5481  -19.1265   21.3192 C.ar    1  UNL1       -0.0045
      4 C         -10.8931  -19.7505   20.1226 C.ar    1  UNL1       -0.0007
      5 C          -9.4103  -19.6298   19.9312 C.ar    1  UNL1       -0.0045
      6 C          -8.5825  -18.8852   20.9363 C.ar    1  UNL1       -0.0232
      7 C          -9.2374  -18.2613   22.1328 C.ar    1  UNL1       -0.0121
      8 C          -8.4095  -17.5167   23.1380 C.3     1  UNL1        0.0972
      9 N          -6.9267  -17.3961   22.9465 N.am    1  UNL1       -0.2760
     10 C          -6.0988  -16.6515   23.9516 C.2     1  UNL1        0.2420
     11 O          -6.7538  -16.0276   25.1482 O.2     1  UNL1       -0.2734
     12 C          -6.2718  -18.0200   21.7500 C.3     1  UNL1        0.0983
     13 C          -7.0996  -18.7646   20.7449 C.3     1  UNL1        0.0476
     14 C          -9.0645  -16.8928   24.3345 C.3     1  UNL1        0.0224
     15 C          -9.2960  -17.7072   25.5727 C.3     1  UNL1        0.0021
     16 C          -9.4880  -15.4544   24.2929 C.3     1  UNL1        0.0021
     17 C          -4.6160  -16.5309   23.7602 C.3     1  UNL1        0.1552
     18 N          -3.7494  -17.7533   23.8265 N.3     1  UNL1       -0.2879
     19 H          -4.2965  -18.5234   23.4417 H       1  UNL1        0.1238
     20 C          -2.4234  -17.7716   23.1253 C.3     1  UNL1        0.0961
     21 C          -2.3674  -17.7606   21.6264 C.3     1  UNL1        0.1027
     22 O          -1.7636  -16.4191   21.9195 O.3     1  UNL1       -0.3854
     23 C          -2.9906  -19.1058   21.8539 C.3     1  UNL1        0.0283
     24 C          -3.3481  -19.9742   20.6843 C.3     1  UNL1        0.0024
     25 C          -3.0824  -19.4973   19.2871 C.3     1  UNL1        0.0002
     26 C          -2.4593  -18.1521   19.0596 C.3     1  UNL1        0.0024
     27 C          -2.1017  -17.2836   20.2292 C.3     1  UNL1        0.0283
     28 H          -1.7330  -16.2809   22.8791 H       1  UNL1        0.2103
@<TRIPOS>BOND
     1     1     2    1
     2     2     3   ar
     3     3     4   ar
     4     4     5   ar
     5     5     6   ar
     6     6     7   ar
     7     7     8    1
     8     8    14    1
     9    14    15    1
    10    14    16    1
    11     8     9    1
    12     9    10   am
    13    10    11    2
    14    10    17    1
    15    17    18    1
    16    18    20    1
    17    20    21    1
    18    21    22    1
    19    21    23    1
    20    23    24    1
    21    24    25    1
    22    25    26    1
    23    26    27    1
    24     9    12    1
    25    12    13    1
    26     7     2   ar
    27    27    21    1
    28    13     6    1
    29    18    19    1
    30    22    28    1
@<TRIPOS>MOLECULE
*****
 28 30 0 0 0
SMALL
GASTEIGER

@<TRIPOS>ATOM
      1 C         -10.4494  -15.5428   23.8321 C.3     1  UNL1        0.0307
      2 C         -11.0140  -16.5059   22.8303 C.ar    1  UNL1       -0.0246
      3 C         -12.4854  -16.5086   22.5392 C.ar    1  UNL1       -0.0045
      4 C         -13.0501  -17.4717   21.5374 C.ar    1  UNL1       -0.0007
      5 C         -12.1432  -18.4321   20.8266 C.ar    1  UNL1       -0.0045
      6 C         -10.6718  -18.4294   21.1177 C.ar    1  UNL1       -0.0232
      7 C         -10.1072  -17.4663   22.1195 C.ar    1  UNL1       -0.0121
      8 C          -8.6356  -17.4637   22.4106 C.3     1  UNL1        0.0972
      9 N          -7.7288  -18.4241   21.6998 N.am    1  UNL1       -0.2760
     10 C          -6.2572  -18.4214   21.9909 C.2     1  UNL1        0.2420
     11 O          -5.6926  -17.4583   22.9927 O.2     1  UNL1       -0.2734
     12 C          -8.2934  -19.3871   20.6980 C.3     1  UNL1        0.0983
     13 C          -9.7648  -19.3898   20.4069 C.3     1  UNL1        0.0476
     14 C          -8.0710  -16.5006   23.4124 C.3     1  UNL1        0.0224
     15 C          -8.0858  -16.8428   24.8727 C.3     1  UNL1        0.0021
     16 C          -7.4915  -15.1952   22.9539 C.3     1  UNL1        0.0021
     17 C          -5.3504  -19.3818   21.2801 C.3     1  UNL1        0.1552
     18 N          -4.2191  -20.0323   22.0197 N.3     1  UNL1       -0.2879
     19 H          -3.8591  -20.7715   21.4161 H       1  UNL1        0.1238
     20 C          -3.0389  -19.2149   22.4544 C.3     1  UNL1        0.0961
     21 C          -1.9914  -18.8200   21.4560 C.3     1  UNL1        0.1027
     22 O          -1.9671  -20.3099   21.2835 O.3     1  UNL1       -0.3854
     23 C          -2.3795  -17.4674   21.9753 C.3     1  UNL1        0.0283
     24 C          -1.7117  -16.2371   21.4362 C.3     1  UNL1        0.0024
     25 C          -0.6558  -16.3596   20.3779 C.3     1  UNL1        0.0002
     26 C          -0.2677  -17.7122   19.8586 C.3     1  UNL1        0.0024
     27 C          -0.9355  -18.9425   20.3977 C.3     1  UNL1        0.0283
     28 H          -2.6129  -20.7154   21.8830 H       1  UNL1        0.2103
@<TRIPOS>BOND
     1     1     2    1
     2     2     3   ar
     3     3     4   ar
     4     4     5   ar
     5     5     6   ar
     6     6     7   ar
     7     7     8    1
     8     8    14    1
     9    14    15    1
    10    14    16    1
    11     8     9    1
    12     9    10   am
    13    10    11    2
    14    10    17    1
    15    17    18    1
    16    18    20    1
    17    20    21    1
    18    21    22    1
    19    21    23    1
    20    23    24    1
    21    24    25    1
    22    25    26    1
    23    26    27    1
    24     9    12    1
    25    12    13    1
    26     7     2   ar
    27    27    21    1
    28    13     6    1
    29    18    19    1
    30    22    28    1
@<TRIPOS>MOLECULE
*****
 28 30 0 0 0
SMALL
GASTEIGER

@<TRIPOS>ATOM
      1 C         -11.6989  -18.5130   23.9985 C.3     1  UNL1        0.0307
      2 C         -11.6350  -17.6407   22.7798 C.ar    1  UNL1       -0.0246
      3 C         -12.7920  -17.5987   21.8261 C.ar    1  UNL1       -0.0045
      4 C         -12.7281  -16.7264   20.6075 C.ar    1  UNL1       -0.0007
      5 C         -11.5073  -15.8962   20.3426 C.ar    1  UNL1       -0.0045
      6 C         -10.3503  -15.9382   21.2963 C.ar    1  UNL1       -0.0232
      7 C         -10.4142  -16.8105   22.5149 C.ar    1  UNL1       -0.0121
      8 C          -9.2571  -16.8525   23.4686 C.3     1  UNL1        0.0972
      9 N          -8.0363  -16.0223   23.2037 N.am    1  UNL1       -0.2760
     10 C          -6.8792  -16.0643   24.1574 C.2     1  UNL1        0.2420
     11 O          -6.9431  -16.9366   25.3761 O.2     1  UNL1       -0.2734
     12 C          -7.9724  -15.1500   21.9851 C.3     1  UNL1        0.0983
     13 C          -9.1294  -15.1080   21.0314 C.3     1  UNL1        0.0476
     14 C          -9.3210  -17.7248   24.6873 C.3     1  UNL1        0.0224
     15 C          -9.5045  -17.1081   26.0422 C.3     1  UNL1        0.0021
     16 C          -9.2013  -19.2138   24.5509 C.3     1  UNL1        0.0021
     17 C          -5.6584  -15.2341   23.8925 C.3     1  UNL1        0.1552
     18 N          -4.4929  -15.8274   23.1579 N.3     1  UNL1       -0.2879
     19 H          -3.7016  -15.2012   23.3065 H       1  UNL1        0.1238
     20 C          -4.0198  -17.2106   23.4941 C.3     1  UNL1        0.0961
     21 C          -3.3106  -18.0329   22.4593 C.3     1  UNL1        0.1027
     22 O          -4.2065  -19.0787   23.0540 O.3     1  UNL1       -0.3854
     23 C          -2.6611  -16.7015   22.2241 C.3     1  UNL1        0.0283
     24 C          -1.6134  -16.5555   21.1606 C.3     1  UNL1        0.0024
     25 C          -1.2154  -17.7411   20.3323 C.3     1  UNL1        0.0002
     26 C          -1.8649  -19.0725   20.5675 C.3     1  UNL1        0.0024
     27 C          -2.9126  -19.2184   21.6310 C.3     1  UNL1        0.0283
     28 H          -4.7424  -18.6827   23.7589 H       1  UNL1        0.2103
@<TRIPOS>BOND
     1     1     2    1
     2     2     3   ar
     3     3     4   ar
     4     4     5   ar
     5     5     6   ar
     6     6     7   ar
     7     7     8    1
     8     8    14    1
     9    14    15    1
    10    14    16    1
    11     8     9    1
    12     9    10   am
    13    10    11    2
    14    10    17    1
    15    17    18    1
    16    18    20    1
    17    20    21    1
    18    21    22    1
    19    21    23    1
    20    23    24    1
    21    24    25    1
    22    25    26    1
    23    26    27    1
    24     9    12    1
    25    12    13    1
    26     7     2   ar
    27    27    21    1
    28    13     6    1
    29    18    19    1
    30    22    28    1
@<TRIPOS>MOLECULE
*****
 28 30 0 0 0
SMALL
GASTEIGER

@<TRIPOS>ATOM
      1 C         -13.1106  -17.4418   21.1541 C.3     1  UNL1        0.0307
      2 C         -12.8452  -17.9610   22.5361 C.ar    1  UNL1       -0.0246
      3 C         -13.9029  -17.8526   23.5941 C.ar    1  UNL1       -0.0045
      4 C         -13.6375  -18.3718   24.9761 C.ar    1  UNL1       -0.0007
      5 C         -12.3143  -18.9996   25.3001 C.ar    1  UNL1       -0.0045
      6 C         -11.2565  -19.1080   24.2422 C.ar    1  UNL1       -0.0232
      7 C         -11.5220  -18.5888   22.8602 C.ar    1  UNL1       -0.0121
      8 C         -10.4641  -18.6973   21.8022 C.3     1  UNL1        0.0972
      9 N          -9.1409  -19.3250   22.1262 N.am    1  UNL1       -0.2760
     10 C          -8.0830  -19.4335   21.0683 C.2     1  UNL1        0.2420
     11 O          -8.3485  -18.9142   19.6863 O.2     1  UNL1       -0.2734
     12 C          -8.8755  -19.8443   23.5082 C.3     1  UNL1        0.0983
     13 C          -9.9332  -19.7358   24.5662 C.3     1  UNL1        0.0476
     14 C         -10.7295  -18.1780   20.4202 C.3     1  UNL1        0.0224
     15 C         -11.1876  -19.1149   19.3421 C.3     1  UNL1        0.0021
     16 C         -10.5368  -16.7217   20.1163 C.3     1  UNL1        0.0021
     17 C          -6.7598  -20.0612   21.3923 C.3     1  UNL1        0.1552
     18 N          -5.8688  -19.4408   22.4272 N.3     1  UNL1       -0.2879
     19 H          -5.0205  -20.0060   22.4625 H       1  UNL1        0.1238
     20 C          -5.4321  -18.0130   22.2824 C.3     1  UNL1        0.0961
     21 C          -5.9202  -16.9775   23.2516 C.3     1  UNL1        0.1027
     22 O          -6.9927  -16.8828   22.2072 O.3     1  UNL1       -0.3854
     23 C          -4.6781  -17.4318   23.9593 C.3     1  UNL1        0.0283
     24 C          -4.2966  -16.8177   25.2735 C.3     1  UNL1        0.0024
     25 C          -5.1571  -15.7492   25.8801 C.3     1  UNL1        0.0002
     26 C          -6.3992  -15.2949   25.1724 C.3     1  UNL1        0.0024
     27 C          -6.7807  -15.9090   23.8581 C.3     1  UNL1        0.0283
     28 H          -6.8065  -17.5137   21.4943 H       1  UNL1        0.2103
@<TRIPOS>BOND
     1     1     2    1
     2     2     3   ar
     3     3     4   ar
     4     4     5   ar
     5     5     6   ar
     6     6     7   ar
     7     7     8    1
     8     8    14    1
     9    14    15    1
    10    14    16    1
    11     8     9    1
    12     9    10   am
    13    10    11    2
    14    10    17    1
    15    17    18    1
    16    18    20    1
    17    20    21    1
    18    21    22    1
    19    21    23    1
    20    23    24    1
    21    24    25    1
    22    25    26    1
    23    26    27    1
    24     9    12    1
    25    12    13    1
    26     7     2   ar
    27    27    21    1
    28    13     6    1
    29    18    19    1
    30    22    28    1
@<TRIPOS>MOLECULE
*****
 28 30 0 0 0
SMALL
GASTEIGER

@<TRIPOS>ATOM
      1 C           6.5384   -4.1652   25.8232 C.3     1  UNL1        0.0307
      2 C           7.3159   -5.1966   25.0605 C.ar    1  UNL1       -0.0246
      3 C           7.7447   -6.4646   25.7374 C.ar    1  UNL1       -0.0045
      4 C           8.5223   -7.4960   24.9747 C.ar    1  UNL1       -0.0007
      5 C           8.8710   -7.2594   23.5352 C.ar    1  UNL1       -0.0045
      6 C           8.4421   -5.9914   22.8583 C.ar    1  UNL1       -0.0232
      7 C           7.6646   -4.9600   23.6209 C.ar    1  UNL1       -0.0121
      8 C           7.2358   -3.6920   22.9440 C.3     1  UNL1        0.0972
      9 N           7.5845   -3.4554   21.5044 N.am    1  UNL1       -0.2760
     10 C           7.1557   -2.1873   20.8274 C.2     1  UNL1        0.2420
     11 O           6.3781   -1.1559   21.5901 O.2     1  UNL1       -0.2734
     12 C           8.3620   -4.4868   20.7418 C.3     1  UNL1        0.0983
     13 C           8.7909   -5.7548   21.4186 C.3     1  UNL1        0.0476
     14 C           6.4582   -2.6606   23.7066 C.3     1  UNL1        0.0224
     15 C           4.9591   -2.7076   23.7169 C.3     1  UNL1        0.0021
     16 C           7.1800   -1.5821   24.4591 C.3     1  UNL1        0.0021
     17 C           7.5044   -1.9507   19.3879 C.3     1  UNL1        0.1552
     18 N           6.5677   -2.3995   18.3058 N.3     1  UNL1       -0.2879
     19 H           6.9180   -3.2951   17.9658 H       1  UNL1        0.1238
     20 C           5.1106   -2.5906   18.6067 C.3     1  UNL1        0.0961
     21 C           4.1361   -1.4846   18.3291 C.3     1  UNL1        0.1027
     22 O           4.9972   -1.3864   17.1048 O.3     1  UNL1       -0.3854
     23 C           3.6134   -1.9670   19.6497 C.3     1  UNL1        0.0283
     24 C           2.4153   -1.3093   20.2677 C.3     1  UNL1        0.0024
     25 C           1.7398   -0.1691   19.5649 C.3     1  UNL1        0.0002
     26 C           2.2625    0.3133   18.2443 C.3     1  UNL1        0.0024
     27 C           3.4606   -0.3445   17.6263 C.3     1  UNL1        0.0283
     28 H           5.6936   -2.0605   17.1444 H       1  UNL1        0.2103
@<TRIPOS>BOND
     1     1     2    1
     2     2     3   ar
     3     3     4   ar
     4     4     5   ar
     5     5     6   ar
     6     6     7   ar
     7     7     8    1
     8     8    14    1
     9    14    15    1
    10    14    16    1
    11     8     9    1
    12     9    10   am
    13    10    11    2
    14    10    17    1
    15    17    18    1
    16    18    20    1
    17    20    21    1
    18    21    22    1
    19    21    23    1
    20    23    24    1
    21    24    25    1
    22    25    26    1
    23    26    27    1
    24     9    12    1
    25    12    13    1
    26     7     2   ar
    27    27    21    1
    28    13     6    1
    29    18    19    1
    30    22    28    1
@<TRIPOS>MOLECULE
*****
 28 30 0 0 0
SMALL
GASTEIGER

@<TRIPOS>ATOM
      1 C           3.9246   -1.2910   17.4561 C.3     1  UNL1        0.0307
      2 C           3.1685   -0.6113   18.5590 C.ar    1  UNL1       -0.0246
      3 C           2.1747    0.4644   18.2347 C.ar    1  UNL1       -0.0045
      4 C           1.4186    1.1442   19.3375 C.ar    1  UNL1       -0.0007
      5 C           1.6563    0.7482   20.7646 C.ar    1  UNL1       -0.0045
      6 C           2.6501   -0.3275   21.0889 C.ar    1  UNL1       -0.0232
      7 C           3.4062   -1.0072   19.9861 C.ar    1  UNL1       -0.0121
      8 C           4.4000   -2.0829   20.3104 C.3     1  UNL1        0.0972
      9 N           4.6377   -2.4789   21.7375 N.am    1  UNL1       -0.2760
     10 C           5.6316   -3.5546   22.0618 C.2     1  UNL1        0.2420
     11 O           6.3877   -4.2344   20.9590 O.2     1  UNL1       -0.2734
     12 C           3.8816   -1.7991   22.8403 C.3     1  UNL1        0.0983
     13 C           2.8878   -0.7235   22.5161 C.3     1  UNL1        0.0476
     14 C           5.1561   -2.7627   19.2076 C.3     1  UNL1        0.0224
     15 C           4.6176   -4.0209   18.5938 C.3     1  UNL1        0.0021
     16 C           6.4508   -2.1841   18.7185 C.3     1  UNL1        0.0021
     17 C           5.8693   -3.9506   23.4889 C.3     1  UNL1        0.1552
     18 N           7.2342   -3.7981   24.0921 N.3     1  UNL1       -0.2879
     19 H           7.1044   -3.7339   25.1018 H       1  UNL1        0.1238
     20 C           8.2800   -4.8472   23.8559 C.3     1  UNL1        0.0961
     21 C           8.2300   -6.1403   24.6145 C.3     1  UNL1        0.1027
     22 O           8.1547   -6.6596   23.2092 O.3     1  UNL1       -0.3854
     23 C           8.3226   -5.1719   25.7562 C.3     1  UNL1        0.0283
     24 C           8.3391   -5.6769   27.1685 C.3     1  UNL1        0.0024
     25 C           8.2629   -7.1504   27.4391 C.3     1  UNL1        0.0002
     26 C           8.1703   -8.1188   26.2974 C.3     1  UNL1        0.0024
     27 C           8.1538   -7.6138   24.8850 C.3     1  UNL1        0.0283
     28 H           8.1776   -5.9152   22.5877 H       1  UNL1        0.2103
@<TRIPOS>BOND
     1     1     2    1
     2     2     3   ar
     3     3     4   ar
     4     4     5   ar
     5     5     6   ar
     6     6     7   ar
     7     7     8    1
     8     8    14    1
     9    14    15    1
    10    14    16    1
    11     8     9    1
    12     9    10   am
    13    10    11    2
    14    10    17    1
    15    17    18    1
    16    18    20    1
    17    20    21    1
    18    21    22    1
    19    21    23    1
    20    23    24    1
    21    24    25    1
    22    25    26    1
    23    26    27    1
    24     9    12    1
    25    12    13    1
    26     7     2   ar
    27    27    21    1
    28    13     6    1
    29    18    19    1
    30    22    28    1
@<TRIPOS>MOLECULE
*****
 28 30 0 0 0
SMALL
GASTEIGER

@<TRIPOS>ATOM
      1 C           3.1097   -0.0687   24.3179 C.3     1  UNL1        0.0307
      2 C           3.1040   -0.6757   22.9463 C.ar    1  UNL1       -0.0246
      3 C           4.0270   -1.8139   22.6260 C.ar    1  UNL1       -0.0045
      4 C           4.0213   -2.4209   21.2543 C.ar    1  UNL1       -0.0007
      5 C           3.0926   -1.8898   20.2029 C.ar    1  UNL1       -0.0045
      6 C           2.1696   -0.7517   20.5232 C.ar    1  UNL1       -0.0232
      7 C           2.1753   -0.1446   21.8949 C.ar    1  UNL1       -0.0121
      8 C           1.2522    0.9936   22.2152 C.3     1  UNL1        0.0972
      9 N           0.3236    1.5247   21.1638 N.am    1  UNL1       -0.2760
     10 C          -0.5995    2.6629   21.4840 C.2     1  UNL1        0.2420
     11 O          -0.5938    3.2700   22.8557 O.2     1  UNL1       -0.2734
     12 C           0.3179    0.9177   19.7921 C.3     1  UNL1        0.0983
     13 C           1.2409   -0.2205   19.4718 C.3     1  UNL1        0.0476
     14 C           1.2579    1.6007   23.5868 C.3     1  UNL1        0.0224
     15 C           0.3478    1.0605   24.6498 C.3     1  UNL1        0.0021
     16 C           2.1737    2.7479   23.8955 C.3     1  UNL1        0.0021
     17 C          -1.5282    3.1940   20.4327 C.3     1  UNL1        0.1552
     18 N          -3.0052    2.9598   20.5491 N.3     1  UNL1       -0.2879
     19 H          -3.1254    2.0888   21.0661 H       1  UNL1        0.1238
     20 C          -3.8766    3.9828   21.2156 C.3     1  UNL1        0.0961
     21 C          -4.3268    3.7766   22.6315 C.3     1  UNL1        0.1027
     22 O          -4.6739    2.4380   22.0502 O.3     1  UNL1       -0.3854
     23 C          -3.8233    5.1866   22.7210 C.3     1  UNL1        0.0283
     24 C          -3.8905    5.9257   24.0246 C.3     1  UNL1        0.0024
     25 C          -4.4613    5.2545   25.2386 C.3     1  UNL1        0.0002
     26 C          -4.9648    3.8444   25.1491 C.3     1  UNL1        0.0024
     27 C          -4.8975    3.1054   23.8455 C.3     1  UNL1        0.0283
     28 H          -4.4327    2.4211   21.1108 H       1  UNL1        0.2103
@<TRIPOS>BOND
     1     1     2    1
     2     2     3   ar
     3     3     4   ar
     4     4     5   ar
     5     5     6   ar
     6     6     7   ar
     7     7     8    1
     8     8    14    1
     9    14    15    1
    10    14    16    1
    11     8     9    1
    12     9    10   am
    13    10    11    2
    14    10    17    1
    15    17    18    1
    16    18    20    1
    17    20    21    1
    18    21    22    1
    19    21    23    1
    20    23    24    1
    21    24    25    1
    22    25    26    1
    23    26    27    1
    24     9    12    1
    25    12    13    1
    26     7     2   ar
    27    27    21    1
    28    13     6    1
    29    18    19    1
    30    22    28    1
