@<TRIPOS>MOLECULE
*****
 39 42 0 0 0
SMALL
GASTEIGER

@<TRIPOS>ATOM
      1 C           3.0523    0.7438   18.6390 C.ar    1  UNL1        0.0531
      2 C           1.6034    1.0732   18.8441 C.ar    1  UNL1        0.0167
      3 C           1.1533    2.5041   18.8509 C.ar    1  UNL1        0.0505
      4 C           2.1520    3.6055   18.6526 C.ar    1  UNL1        0.0170
      5 C           3.6009    3.2760   18.4475 C.ar    1  UNL1        0.0307
      6 C           4.0511    1.8452   18.4407 C.ar    1  UNL1        0.1402
      7 F           5.5000    1.5158   18.2356 F       1  UNL1       -0.2044
      8 C           4.4638   -2.8028   20.5294 C.3     1  UNL1        0.2040
      9 C           4.9139   -4.2337   20.5225 C.3     1  UNL1        0.0361
     10 C           4.1131   -1.4380   21.0432 C.3     1  UNL1        0.0385
     11 C           3.6324   -0.3800   20.0946 C.3     1  UNL1        0.0586
     12 C           3.5024   -0.6871   18.6322 C.3     1  UNL1        0.2277
     13 N           3.8531   -2.0519   18.1183 N.2     1  UNL1       -0.0699
     14 C           4.3338   -3.1098   19.0668 C.2     1  UNL1        0.3086
     15 N           4.6845   -4.4747   18.5529 N.pl3   1  UNL1       -0.2488
     16 H           4.5992   -4.6762   17.5930 H       1  UNL1        0.2881
     17 H           5.0000   -5.1690   19.1755 H       1  UNL1        0.2881
     18 S           4.7501   -2.9928   21.9895 S.O2    1  UNL1       -0.0026
     19 O           3.6431   -2.0398   22.3305 O.2     1  UNL1       -0.1725
     20 O           5.8571   -3.9458   21.6483 O.2     1  UNL1       -0.1725
     21 C           6.2279   -3.9847   23.8821 C.3     1  UNL1        0.0271
     22 C           5.0364   -3.1827   23.4496 C.3     1  UNL1        0.1514
     23 C           3.2161   -0.4971   17.1721 C.3     1  UNL1        0.2460
     24 F           4.3349   -0.5559   16.1745 F       1  UNL1       -0.2293
     25 N          -0.2957    2.8335   19.0560 N.am    1  UNL1       -0.2791
     26 C          -0.8453    2.9661   20.4453 C.2     1  UNL1        0.2673
     27 O           0.0539    2.7692   21.6296 O.2     1  UNL1       -0.2682
     28 H          -0.8860    2.9627   18.2787 H       1  UNL1        0.1552
     29 C          -2.2943    3.2955   20.6504 C.ar    1  UNL1        0.1380
     30 C          -2.8504    3.4000   22.0396 C.ar    1  UNL1        0.0641
     31 C          -4.2993    3.7294   22.2447 C.ar    1  UNL1        0.1849
     32 C          -5.1922    3.9543   21.0605 C.ar    1  UNL1        0.2007
     33 C          -4.6361    3.8498   19.6713 C.ar    1  UNL1        0.1392
     34 N          -3.1872    3.5204   19.4663 N.ar    1  UNL1       -0.2359
     35 O          -6.5690    4.2621   21.5700 O.3     1  UNL1       -0.3932
     36 C          -6.5271    4.2274   23.0690 C.3     1  UNL1        0.5892
     37 F          -7.9848    4.5641   22.9607 F       1  UNL1       -0.1252
     38 F          -6.7899    4.2631   24.5454 F       1  UNL1       -0.1252
     39 O          -5.1243    3.8982   23.4860 O.3     1  UNL1       -0.3947
@<TRIPOS>BOND
     1    21    22    1
     2    22    18    1
     3    18    19    2
     4    18    20    2
     5    18     8    1
     6     8     9    1
     7     8    10    1
     8    10    11    1
     9    11    12    1
    10    12    23    1
    11    23    24    1
    12    12     1    1
    13     1     2   ar
    14     2     3   ar
    15     3    25    1
    16    25    26   am
    17    26    27    2
    18    26    29    1
    19    29    30   ar
    20    30    31   ar
    21    31    32   ar
    22    32    33   ar
    23    33    34   ar
    24    32    35    1
    25    35    36    1
    26    36    37    1
    27    36    38    1
    28    36    39    1
    29     3     4   ar
    30     4     5   ar
    31     5     6   ar
    32     6     7    1
    33    12    13    1
    34    13    14    2
    35    14    15    1
    36    14     8    1
    37     6     1   ar
    38    34    29   ar
    39    39    31    1
    40    25    28    1
    41    15    16    1
    42    15    17    1
@<TRIPOS>MOLECULE
*****
 39 42 0 0 0
SMALL
GASTEIGER

@<TRIPOS>ATOM
      1 C          -1.8212    3.7943   20.8316 C.ar    1  UNL1        0.0531
      2 C          -1.0167    2.5928   20.4329 C.ar    1  UNL1        0.0167
      3 C           0.0033    2.7026   19.3386 C.ar    1  UNL1        0.0505
      4 C           0.2188    4.0139   18.6430 C.ar    1  UNL1        0.0170
      5 C          -0.5857    5.2154   19.0417 C.ar    1  UNL1        0.0307
      6 C          -1.6057    5.1057   20.1360 C.ar    1  UNL1        0.1402
      7 F          -2.4102    6.3073   20.5347 F       1  UNL1       -0.2044
      8 C          -3.0593    3.9851   24.9029 C.3     1  UNL1        0.2040
      9 C          -4.0793    3.8754   25.9972 C.3     1  UNL1        0.0361
     10 C          -1.7431    4.2130   24.2205 C.3     1  UNL1        0.0385
     11 C          -1.6340    4.0627   22.7320 C.3     1  UNL1        0.0586
     12 C          -2.8412    3.6846   21.9259 C.3     1  UNL1        0.2277
     13 N          -4.1574    3.4567   22.6083 N.2     1  UNL1       -0.0699
     14 C          -4.2665    3.6070   24.0967 C.2     1  UNL1        0.3086
     15 N          -5.5827    3.3791   24.7791 N.pl3   1  UNL1       -0.2488
     16 H          -6.3750    3.1309   24.2501 H       1  UNL1        0.2881
     17 H          -5.6543    3.4777   25.7560 H       1  UNL1        0.2881
     18 S          -2.2064    4.3252   26.0890 S.O2    1  UNL1       -0.0026
     19 O          -1.7108    2.9103   26.1383 O.2     1  UNL1       -0.1725
     20 O          -2.7020    5.7400   26.0397 O.2     1  UNL1       -0.1725
     21 C          -1.4585    6.0197   27.9108 C.3     1  UNL1        0.0271
     22 C          -1.3535    4.6652   27.2752 C.3     1  UNL1        0.1514
     23 C          -3.6941    3.3445   20.7398 C.3     1  UNL1        0.2460
     24 F          -5.0121    2.6559   20.9365 F       1  UNL1       -0.2293
     25 N           0.8079    1.5009   18.9399 N.am    1  UNL1       -0.2791
     26 C           2.0885    1.1852   19.6541 C.2     1  UNL1        0.2673
     27 O           2.5647    2.0710   20.7670 O.2     1  UNL1       -0.2682
     28 H           0.4953    0.9195   18.2095 H       1  UNL1        0.1552
     29 C           2.8930   -0.0165   19.2554 C.ar    1  UNL1        0.1380
     30 C           2.5072   -1.3770   19.7555 C.ar    1  UNL1        0.0641
     31 C           3.3117   -2.5785   19.3568 C.ar    1  UNL1        0.1849
     32 C           4.5021   -2.4196   18.4581 C.ar    1  UNL1        0.2007
     33 C           4.8879   -1.0591   17.9580 C.ar    1  UNL1        0.1392
     34 N           4.0834    0.1425   18.3567 N.ar    1  UNL1       -0.2359
     35 O           5.0998   -3.7773   18.2360 O.3     1  UNL1       -0.3932
     36 C           4.2789   -4.7754   18.9975 C.3     1  UNL1        0.5892
     37 F           5.2550   -5.7683   18.4396 F       1  UNL1       -0.1252
     38 F           3.6620   -5.9810   19.6425 F       1  UNL1       -0.1252
     39 O           3.1738   -4.0345   19.6902 O.3     1  UNL1       -0.3947
@<TRIPOS>BOND
     1    21    22    1
     2    22    18    1
     3    18    19    2
     4    18    20    2
     5    18     8    1
     6     8     9    1
     7     8    10    1
     8    10    11    1
     9    11    12    1
    10    12    23    1
    11    23    24    1
    12    12     1    1
    13     1     2   ar
    14     2     3   ar
    15     3    25    1
    16    25    26   am
    17    26    27    2
    18    26    29    1
    19    29    30   ar
    20    30    31   ar
    21    31    32   ar
    22    32    33   ar
    23    33    34   ar
    24    32    35    1
    25    35    36    1
    26    36    37    1
    27    36    38    1
    28    36    39    1
    29     3     4   ar
    30     4     5   ar
    31     5     6   ar
    32     6     7    1
    33    12    13    1
    34    13    14    2
    35    14    15    1
    36    14     8    1
    37     6     1   ar
    38    34    29   ar
    39    39    31    1
    40    25    28    1
    41    15    16    1
    42    15    17    1
@<TRIPOS>MOLECULE
*****
 39 42 0 0 0
SMALL
GASTEIGER

@<TRIPOS>ATOM
      1 C           5.3949    1.1233   34.5338 C.ar    1  UNL1        0.0531
      2 C           4.7444    1.4903   33.2330 C.ar    1  UNL1        0.0167
      3 C           4.8579    0.5721   32.0524 C.ar    1  UNL1        0.0505
      4 C           5.6219   -0.7132   32.1725 C.ar    1  UNL1        0.0170
      5 C           6.2723   -1.0802   33.4733 C.ar    1  UNL1        0.0307
      6 C           6.1588   -0.1619   34.6540 C.ar    1  UNL1        0.1402
      7 F           6.8093   -0.5290   35.9549 F       1  UNL1       -0.2044
      8 C           3.5304    2.5041   38.1062 C.3     1  UNL1        0.2040
      9 C           3.4169    3.4223   39.2868 C.3     1  UNL1        0.0361
     10 C           3.2175    1.3900   37.1518 C.3     1  UNL1        0.0385
     11 C           4.0930    1.1587   35.9559 C.3     1  UNL1        0.0586
     12 C           5.2814    2.0416   35.7145 C.3     1  UNL1        0.2277
     13 N           5.5943    3.1556   36.6689 N.2     1  UNL1       -0.0699
     14 C           4.7189    3.3869   37.8647 C.2     1  UNL1        0.3086
     15 N           5.0318    4.5010   38.8191 N.pl3   1  UNL1       -0.2488
     16 H           5.8118    5.0804   38.6606 H       1  UNL1        0.2881
     17 H           4.4572    4.6528   39.6040 H       1  UNL1        0.2881
     18 S           2.3026    1.9402   38.7577 S.O2    1  UNL1       -0.0026
     19 O           1.4470    2.8724   37.9522 O.2     1  UNL1       -0.1725
     20 O           3.1583    1.0080   39.5632 O.2     1  UNL1       -0.1725
     21 C           0.9711   -0.0982   39.6644 C.3     1  UNL1        0.0271
     22 C           1.0748    1.3763   39.4092 C.3     1  UNL1        0.1514
     23 C           6.5092    2.6055   35.0630 C.3     1  UNL1        0.2460
     24 F           7.8395    2.4947   35.7473 F       1  UNL1       -0.2293
     25 N           4.2074    0.9392   30.7515 N.am    1  UNL1       -0.2791
     26 C           2.9735    0.2159   30.2996 C.2     1  UNL1        0.2673
     27 O           2.3899   -0.8744   31.1486 O.2     1  UNL1       -0.2682
     28 H           4.5904    1.6548   30.1943 H       1  UNL1        0.1552
     29 C           2.3230    0.5830   28.9988 C.ar    1  UNL1        0.1380
     30 C           0.9899    1.2706   28.9946 C.ar    1  UNL1        0.0641
     31 C           0.3395    1.6376   27.6937 C.ar    1  UNL1        0.1849
     32 C           1.0221    1.3171   26.3971 C.ar    1  UNL1        0.2007
     33 C           2.3552    0.6295   26.4013 C.ar    1  UNL1        0.1392
     34 N           3.0056    0.2625   27.7021 N.ar    1  UNL1       -0.2359
     35 O           0.1439    1.7971   25.2799 O.3     1  UNL1       -0.3932
     36 C          -1.0815    2.4144   25.8859 C.3     1  UNL1        0.5892
     37 F          -1.4758    2.6524   24.4584 F       1  UNL1       -0.1252
     38 F          -2.3894    3.0813   26.1936 F       1  UNL1       -0.1252
     39 O          -0.9607    2.3158   27.3778 O.3     1  UNL1       -0.3947
@<TRIPOS>BOND
     1    21    22    1
     2    22    18    1
     3    18    19    2
     4    18    20    2
     5    18     8    1
     6     8     9    1
     7     8    10    1
     8    10    11    1
     9    11    12    1
    10    12    23    1
    11    23    24    1
    12    12     1    1
    13     1     2   ar
    14     2     3   ar
    15     3    25    1
    16    25    26   am
    17    26    27    2
    18    26    29    1
    19    29    30   ar
    20    30    31   ar
    21    31    32   ar
    22    32    33   ar
    23    33    34   ar
    24    32    35    1
    25    35    36    1
    26    36    37    1
    27    36    38    1
    28    36    39    1
    29     3     4   ar
    30     4     5   ar
    31     5     6   ar
    32     6     7    1
    33    12    13    1
    34    13    14    2
    35    14    15    1
    36    14     8    1
    37     6     1   ar
    38    34    29   ar
    39    39    31    1
    40    25    28    1
    41    15    16    1
    42    15    17    1
@<TRIPOS>MOLECULE
*****
 39 42 0 0 0
SMALL
GASTEIGER

@<TRIPOS>ATOM
      1 C           2.9530    0.5917   21.2241 C.ar    1  UNL1        0.0531
      2 C           2.7746    0.5809   22.7134 C.ar    1  UNL1        0.0167
      3 C           2.5988    1.8716   23.4571 C.ar    1  UNL1        0.0505
      4 C           2.6014    3.1731   22.7116 C.ar    1  UNL1        0.0170
      5 C           2.7798    3.1840   21.2223 C.ar    1  UNL1        0.0307
      6 C           2.9556    1.8933   20.4785 C.ar    1  UNL1        0.1402
      7 F           3.1340    1.9042   18.9892 F       1  UNL1       -0.2044
      8 C           5.2968   -2.3565   19.2344 C.3     1  UNL1        0.2040
      9 C           5.4726   -3.6472   18.4907 C.3     1  UNL1        0.0361
     10 C           5.6367   -1.0586   19.9050 C.3     1  UNL1        0.0385
     11 C           4.5527   -0.2298   20.5280 C.3     1  UNL1        0.0586
     12 C           3.1288   -0.6990   20.4803 C.3     1  UNL1        0.2277
     13 N           2.7888   -1.9969   19.8098 N.2     1  UNL1       -0.0699
     14 C           3.8728   -2.8258   19.1868 C.2     1  UNL1        0.3086
     15 N           3.5329   -4.1237   18.5162 N.pl3   1  UNL1       -0.2488
     16 H           2.5983   -4.4317   18.4850 H       1  UNL1        0.2881
     17 H           4.2443   -4.6677   18.1074 H       1  UNL1        0.2881
     18 S           6.7818   -2.3356   19.0237 S.O2    1  UNL1       -0.0026
     19 O           6.5719   -1.9924   17.5787 O.2     1  UNL1       -0.1725
     20 O           6.9915   -2.6788   20.4688 O.2     1  UNL1       -0.1725
     21 C           9.1924   -2.4799   19.9816 C.3     1  UNL1        0.0271
     22 C           8.2667   -2.3147   18.8130 C.3     1  UNL1        0.1514
     23 C           1.6438   -0.7199   20.6910 C.3     1  UNL1        0.2460
     24 F           0.7220   -0.3364   19.5715 F       1  UNL1       -0.2293
     25 N           2.4204    1.8607   24.9465 N.am    1  UNL1       -0.2791
     26 C           1.1207    1.4079   25.5428 C.2     1  UNL1        0.2673
     27 O          -0.0007    0.9659   24.6499 O.2     1  UNL1       -0.2682
     28 H           3.1563    2.1507   25.5325 H       1  UNL1        0.1552
     29 C           0.9423    1.3969   27.0322 C.ar    1  UNL1        0.1380
     30 C           2.0362    1.9077   27.9224 C.ar    1  UNL1        0.0641
     31 C           1.8578    1.8967   29.4116 C.ar    1  UNL1        0.1849
     32 C           0.5854    1.3751   30.0108 C.ar    1  UNL1        0.2007
     33 C          -0.5086    0.8644   29.1206 C.ar    1  UNL1        0.1392
     34 N          -0.3301    0.8753   27.6313 N.ar    1  UNL1       -0.2359
     35 O           0.6949    1.4884   31.5025 O.3     1  UNL1       -0.3932
     36 C           2.0350    2.0800   31.8253 C.3     1  UNL1        0.5892
     37 F           1.5764    1.9454   33.2471 F       1  UNL1       -0.1252
     38 F           3.2792    2.6435   32.4453 F       1  UNL1       -0.1252
     39 O           2.7536    2.3324   30.5331 O.3     1  UNL1       -0.3947
@<TRIPOS>BOND
     1    21    22    1
     2    22    18    1
     3    18    19    2
     4    18    20    2
     5    18     8    1
     6     8     9    1
     7     8    10    1
     8    10    11    1
     9    11    12    1
    10    12    23    1
    11    23    24    1
    12    12     1    1
    13     1     2   ar
    14     2     3   ar
    15     3    25    1
    16    25    26   am
    17    26    27    2
    18    26    29    1
    19    29    30   ar
    20    30    31   ar
    21    31    32   ar
    22    32    33   ar
    23    33    34   ar
    24    32    35    1
    25    35    36    1
    26    36    37    1
    27    36    38    1
    28    36    39    1
    29     3     4   ar
    30     4     5   ar
    31     5     6   ar
    32     6     7    1
    33    12    13    1
    34    13    14    2
    35    14    15    1
    36    14     8    1
    37     6     1   ar
    38    34    29   ar
    39    39    31    1
    40    25    28    1
    41    15    16    1
    42    15    17    1
@<TRIPOS>MOLECULE
*****
 39 42 0 0 0
SMALL
GASTEIGER

@<TRIPOS>ATOM
      1 C           4.3814   -1.5046   19.7751 C.ar    1  UNL1        0.0531
      2 C           4.6553   -1.7679   21.2262 C.ar    1  UNL1        0.0167
      3 C           4.6731   -3.1761   21.7425 C.ar    1  UNL1        0.0505
      4 C           4.4170   -4.3210   20.8078 C.ar    1  UNL1        0.0170
      5 C           4.1431   -4.0576   19.3568 C.ar    1  UNL1        0.0307
      6 C           4.1253   -2.6494   18.8404 C.ar    1  UNL1        0.1402
      7 F           3.8514   -2.3861   17.3893 F       1  UNL1       -0.2044
      8 C           2.4619    2.1960   18.9001 C.3     1  UNL1        0.2040
      9 C           2.4441    3.6042   18.3837 C.3     1  UNL1        0.0361
     10 C           1.9799    0.9086   19.5003 C.3     1  UNL1        0.0385
     11 C           2.9308   -0.2376   19.6797 C.3     1  UNL1        0.0586
     12 C           4.3636   -0.0964   19.2587 C.3     1  UNL1        0.2277
     13 N           4.8455    1.1910   18.6585 N.2     1  UNL1       -0.0699
     14 C           3.8947    2.3372   18.4791 C.2     1  UNL1        0.3086
     15 N           4.3767    3.6246   17.8789 N.pl3   1  UNL1       -0.2488
     16 H           5.3170    3.7173   17.6026 H       1  UNL1        0.2881
     17 H           3.7526    4.3768   17.7612 H       1  UNL1        0.2881
     18 S           1.0229    2.5439   19.1417 S.O2    1  UNL1       -0.0026
     19 O           1.4453    3.6584   20.0524 O.2     1  UNL1       -0.1725
     20 O           0.6007    1.4293   18.2309 O.2     1  UNL1       -0.1725
     21 C          -0.9816    2.8227   20.7708 C.3     1  UNL1        0.0271
     22 C          -0.4161    2.8917   19.3832 C.3     1  UNL1        0.1514
     23 C           5.8025   -0.4443   19.0172 C.3     1  UNL1        0.2460
     24 F           6.3207   -0.5603   17.6143 F       1  UNL1       -0.2293
     25 N           4.9470   -3.4395   23.1937 N.am    1  UNL1       -0.2791
     26 C           6.3104   -3.8868   23.6304 C.2     1  UNL1        0.2673
     27 O           7.4000   -4.0709   22.6161 O.2     1  UNL1       -0.2682
     28 H           4.2318   -3.3186   23.8594 H       1  UNL1        0.1552
     29 C           6.5843   -4.1502   25.0815 C.ar    1  UNL1        0.1380
     30 C           7.2820   -5.4116   25.4962 C.ar    1  UNL1        0.0641
     31 C           7.5559   -5.6748   26.9473 C.ar    1  UNL1        0.1849
     32 C           7.1320   -4.6767   27.9837 C.ar    1  UNL1        0.2007
     33 C           6.4344   -3.4153   27.5690 C.ar    1  UNL1        0.1392
     34 N           6.1605   -3.1520   26.1179 N.ar    1  UNL1       -0.2359
     35 O           7.5346   -5.2055   29.3284 O.3     1  UNL1       -0.3932
     36 C           8.2072   -6.5304   29.1232 C.3     1  UNL1        0.5892
     37 F           8.3404   -6.5167   30.6172 F       1  UNL1       -0.1252
     38 F           8.9076   -7.8525   29.2303 F       1  UNL1       -0.1252
     39 O           8.2203   -6.8205   27.6516 O.3     1  UNL1       -0.3947
@<TRIPOS>BOND
     1    21    22    1
     2    22    18    1
     3    18    19    2
     4    18    20    2
     5    18     8    1
     6     8     9    1
     7     8    10    1
     8    10    11    1
     9    11    12    1
    10    12    23    1
    11    23    24    1
    12    12     1    1
    13     1     2   ar
    14     2     3   ar
    15     3    25    1
    16    25    26   am
    17    26    27    2
    18    26    29    1
    19    29    30   ar
    20    30    31   ar
    21    31    32   ar
    22    32    33   ar
    23    33    34   ar
    24    32    35    1
    25    35    36    1
    26    36    37    1
    27    36    38    1
    28    36    39    1
    29     3     4   ar
    30     4     5   ar
    31     5     6   ar
    32     6     7    1
    33    12    13    1
    34    13    14    2
    35    14    15    1
    36    14     8    1
    37     6     1   ar
    38    34    29   ar
    39    39    31    1
    40    25    28    1
    41    15    16    1
    42    15    17    1
@<TRIPOS>MOLECULE
*****
 39 42 0 0 0
SMALL
GASTEIGER

@<TRIPOS>ATOM
      1 C           4.6730    2.4134   33.8319 C.ar    1  UNL1        0.0531
      2 C           5.4086    1.1918   33.3666 C.ar    1  UNL1        0.0167
      3 C           5.2239    0.6940   31.9638 C.ar    1  UNL1        0.0505
      4 C           4.3036    1.4177   31.0262 C.ar    1  UNL1        0.0170
      5 C           3.5680    2.6393   31.4914 C.ar    1  UNL1        0.0307
      6 C           3.7527    3.1371   32.8943 C.ar    1  UNL1        0.1402
      7 F           3.0170    4.3588   33.3596 F       1  UNL1       -0.2044
      8 C           3.5393    2.7454   37.9244 C.3     1  UNL1        0.2040
      9 C           3.7240    3.2432   39.3273 C.3     1  UNL1        0.0361
     10 C           2.9397    2.0306   36.7499 C.3     1  UNL1        0.0385
     11 C           3.5989    2.1135   35.4051 C.3     1  UNL1        0.0586
     12 C           4.8577    2.9112   35.2348 C.3     1  UNL1        0.2277
     13 N           5.4573    3.6260   36.4093 N.2     1  UNL1       -0.0699
     14 C           4.7982    3.5432   37.7541 C.2     1  UNL1        0.3086
     15 N           5.3977    4.2580   38.9286 N.pl3   1  UNL1       -0.2488
     16 H           6.2239    4.7816   38.8168 H       1  UNL1        0.2881
     17 H           4.9651    4.2036   39.8112 H       1  UNL1        0.2881
     18 S           2.3446    2.1206   38.5820 S.O2    1  UNL1       -0.0026
     19 O           3.2414    1.1436   39.2829 O.2     1  UNL1       -0.1725
     20 O           1.4479    3.0976   37.8810 O.2     1  UNL1       -0.1725
     21 C           1.1890    0.0540   39.6514 C.3     1  UNL1        0.0271
     22 C           1.1500    1.4958   39.2395 C.3     1  UNL1        0.1514
     23 C           6.0524    3.5360   34.5772 C.3     1  UNL1        0.2460
     24 F           6.0599    5.0056   34.2764 F       1  UNL1       -0.2293
     25 N           5.9596   -0.5277   31.4985 N.am    1  UNL1       -0.2791
     26 C           5.3395   -1.8838   31.6607 C.2     1  UNL1        0.2673
     27 O           3.9837   -2.0184   32.2881 O.2     1  UNL1       -0.2682
     28 H           6.8495   -0.4394   31.0867 H       1  UNL1        0.1552
     29 C           6.0752   -3.1055   31.1954 C.ar    1  UNL1        0.1380
     30 C           6.4552   -3.2476   29.7513 C.ar    1  UNL1        0.0641
     31 C           7.1908   -4.4692   29.2861 C.ar    1  UNL1        0.1849
     32 C           7.5465   -5.5487   30.2650 C.ar    1  UNL1        0.2007
     33 C           7.1665   -5.4066   31.7091 C.ar    1  UNL1        0.1392
     34 N           6.4308   -4.1850   32.1743 N.ar    1  UNL1       -0.2359
     35 O           8.2690   -6.6311   29.5191 O.3     1  UNL1       -0.3932
     36 C           8.3599   -6.2206   28.0792 C.3     1  UNL1        0.5892
     37 F           9.0765   -7.5280   27.9150 F       1  UNL1       -0.1252
     38 F           8.6006   -6.0834   26.6050 F       1  UNL1       -0.1252
     39 O           7.6935   -4.8844   27.9353 O.3     1  UNL1       -0.3947
@<TRIPOS>BOND
     1    21    22    1
     2    22    18    1
     3    18    19    2
     4    18    20    2
     5    18     8    1
     6     8     9    1
     7     8    10    1
     8    10    11    1
     9    11    12    1
    10    12    23    1
    11    23    24    1
    12    12     1    1
    13     1     2   ar
    14     2     3   ar
    15     3    25    1
    16    25    26   am
    17    26    27    2
    18    26    29    1
    19    29    30   ar
    20    30    31   ar
    21    31    32   ar
    22    32    33   ar
    23    33    34   ar
    24    32    35    1
    25    35    36    1
    26    36    37    1
    27    36    38    1
    28    36    39    1
    29     3     4   ar
    30     4     5   ar
    31     5     6   ar
    32     6     7    1
    33    12    13    1
    34    13    14    2
    35    14    15    1
    36    14     8    1
    37     6     1   ar
    38    34    29   ar
    39    39    31    1
    40    25    28    1
    41    15    16    1
    42    15    17    1
@<TRIPOS>MOLECULE
*****
 39 42 0 0 0
SMALL
GASTEIGER

@<TRIPOS>ATOM
      1 C           2.7269    0.3019   21.7841 C.ar    1  UNL1        0.0531
      2 C           2.6818   -0.1526   23.2128 C.ar    1  UNL1        0.0167
      3 C           2.1727    0.7722   24.2784 C.ar    1  UNL1        0.0505
      4 C           1.7086    2.1516   23.9152 C.ar    1  UNL1        0.0170
      5 C           1.7536    2.6061   22.4865 C.ar    1  UNL1        0.0307
      6 C           2.2628    1.6813   21.4209 C.ar    1  UNL1        0.1402
      7 F           2.3078    2.1358   19.9921 F       1  UNL1       -0.2044
      8 C           5.8171   -1.4402   19.4262 C.3     1  UNL1        0.2040
      9 C           6.3263   -2.3651   18.3606 C.3     1  UNL1        0.0361
     10 C           5.8178   -0.4117   20.5180 C.3     1  UNL1        0.0385
     11 C           4.5272   -0.0030   21.1642 C.3     1  UNL1        0.0586
     12 C           3.2361   -0.6229   20.7185 C.3     1  UNL1        0.2277
     13 N           3.2354   -1.6515   19.6268 N.2     1  UNL1       -0.0699
     14 C           4.5259   -2.0602   18.9806 C.2     1  UNL1        0.3086
     15 N           4.5252   -3.0887   17.8888 N.pl3   1  UNL1       -0.2488
     16 H           3.6778   -3.4956   17.5963 H       1  UNL1        0.2881
     17 H           5.3722   -3.3570   17.4647 H       1  UNL1        0.2881
     18 S           7.2851   -1.1415   19.5017 S.O2    1  UNL1       -0.0026
     19 O           7.1368   -0.1343   18.4001 O.2     1  UNL1       -0.1725
     20 O           7.4333   -2.1488   20.6033 O.2     1  UNL1       -0.1725
     21 C           9.2821    0.4573   19.0483 C.3     1  UNL1        0.0271
     22 C           8.7531   -0.8428   19.5772 C.3     1  UNL1        0.1514
     23 C           1.7681   -0.9216   20.6430 C.3     1  UNL1        0.2460
     24 F           0.9912   -0.5586   19.4123 F       1  UNL1       -0.2293
     25 N           2.1276    0.3177   25.7072 N.am    1  UNL1       -0.2791
     26 C           3.3314    0.4860   26.5861 C.2     1  UNL1        0.2673
     27 O           4.5802    1.1090   26.0363 O.2     1  UNL1       -0.2682
     28 H           1.3080   -0.0912   26.0681 H       1  UNL1        0.1552
     29 C           3.2863    0.0315   28.0149 C.ar    1  UNL1        0.1380
     30 C           4.5145   -0.5396   28.6594 C.ar    1  UNL1        0.0641
     31 C           4.4694   -0.9942   30.0881 C.ar    1  UNL1        0.1849
     32 C           3.1961   -0.8776   30.8724 C.ar    1  UNL1        0.2007
     33 C           1.9679   -0.3066   30.2280 C.ar    1  UNL1        0.1392
     34 N           2.0130    0.1480   28.7992 N.ar    1  UNL1       -0.2359
     35 O           3.4523   -1.4048   32.2531 O.3     1  UNL1       -0.3932
     36 C           4.8840   -1.8471   32.3222 C.3     1  UNL1        0.5892
     37 F           4.5396   -2.2092   33.7365 F       1  UNL1       -0.1252
     38 F           6.2436   -2.3652   32.6869 F       1  UNL1       -0.1252
     39 O           5.5125   -1.5933   30.9841 O.3     1  UNL1       -0.3947
@<TRIPOS>BOND
     1    21    22    1
     2    22    18    1
     3    18    19    2
     4    18    20    2
     5    18     8    1
     6     8     9    1
     7     8    10    1
     8    10    11    1
     9    11    12    1
    10    12    23    1
    11    23    24    1
    12    12     1    1
    13     1     2   ar
    14     2     3   ar
    15     3    25    1
    16    25    26   am
    17    26    27    2
    18    26    29    1
    19    29    30   ar
    20    30    31   ar
    21    31    32   ar
    22    32    33   ar
    23    33    34   ar
    24    32    35    1
    25    35    36    1
    26    36    37    1
    27    36    38    1
    28    36    39    1
    29     3     4   ar
    30     4     5   ar
    31     5     6   ar
    32     6     7    1
    33    12    13    1
    34    13    14    2
    35    14    15    1
    36    14     8    1
    37     6     1   ar
    38    34    29   ar
    39    39    31    1
    40    25    28    1
    41    15    16    1
    42    15    17    1
@<TRIPOS>MOLECULE
*****
 39 42 0 0 0
SMALL
GASTEIGER

@<TRIPOS>ATOM
      1 C           5.5084   -2.8736   21.5201 C.ar    1  UNL1        0.0531
      2 C           4.7974   -2.4075   22.7559 C.ar    1  UNL1        0.0167
      3 C           5.2780   -2.8451   24.1078 C.ar    1  UNL1        0.0505
      4 C           6.4695   -3.7488   24.2239 C.ar    1  UNL1        0.0170
      5 C           7.1805   -4.2149   22.9881 C.ar    1  UNL1        0.0307
      6 C           6.6999   -3.7773   21.6362 C.ar    1  UNL1        0.1402
      7 F           7.4109   -4.2435   20.4004 F       1  UNL1       -0.2044
      8 C           5.4929   -0.2584   18.1579 C.3     1  UNL1        0.2040
      9 C           5.0123    0.1792   16.8060 C.3     1  UNL1        0.0361
     10 C           6.2641   -0.2687   19.4443 C.3     1  UNL1        0.0385
     11 C           6.0315   -1.3575   20.4496 C.3     1  UNL1        0.0586
     12 C           5.0278   -2.4360   20.1683 C.3     1  UNL1        0.2277
     13 N           4.2566   -2.4258   18.8818 N.2     1  UNL1       -0.0699
     14 C           4.4891   -1.3371   17.8765 C.2     1  UNL1        0.3086
     15 N           3.7179   -1.3268   16.5901 N.pl3   1  UNL1       -0.2488
     16 H           3.0591   -2.0347   16.4054 H       1  UNL1        0.2881
     17 H           3.8705   -0.6122   15.9303 H       1  UNL1        0.2881
     18 S           6.3297    0.9721   17.9697 S.O2    1  UNL1       -0.0026
     19 O           7.2356    0.2146   17.0446 O.2     1  UNL1       -0.1725
     20 O           5.4239    1.7295   18.8947 O.2     1  UNL1       -0.1725
     21 C           6.6949    3.5202   18.3214 C.3     1  UNL1        0.0271
     22 C           7.1666    2.2027   17.7814 C.3     1  UNL1        0.1514
     23 C           4.1909   -3.6666   20.3565 C.3     1  UNL1        0.2460
     24 F           4.2903   -4.7982   19.3768 F       1  UNL1       -0.2293
     25 N           4.5670   -2.3789   25.3436 N.am    1  UNL1       -0.2791
     26 C           5.3416   -1.7437   26.4600 C.2     1  UNL1        0.2673
     27 O           6.8273   -1.5746   26.3407 O.2     1  UNL1       -0.2682
     28 H           3.5919   -2.4899   25.4220 H       1  UNL1        0.1552
     29 C           4.6306   -1.2775   27.6959 C.ar    1  UNL1        0.1380
     30 C           5.3948   -1.0799   28.9713 C.ar    1  UNL1        0.0641
     31 C           4.6838   -0.6137   30.2071 C.ar    1  UNL1        0.1849
     32 C           3.2085   -0.3452   30.1673 C.ar    1  UNL1        0.2007
     33 C           2.4443   -0.5429   28.8919 C.ar    1  UNL1        0.1392
     34 N           3.1553   -1.0090   27.6561 N.ar    1  UNL1       -0.2359
     35 O           2.7819    0.1023   31.5340 O.3     1  UNL1       -0.3932
     36 C           3.9934    0.1103   32.4184 C.3     1  UNL1        0.5892
     37 F           3.0291    0.5748   33.4693 F       1  UNL1       -0.1252
     38 F           5.0034    0.2155   33.5224 F       1  UNL1       -0.1252
     39 O           5.1688   -0.3322   31.5983 O.3     1  UNL1       -0.3947
@<TRIPOS>BOND
     1    21    22    1
     2    22    18    1
     3    18    19    2
     4    18    20    2
     5    18     8    1
     6     8     9    1
     7     8    10    1
     8    10    11    1
     9    11    12    1
    10    12    23    1
    11    23    24    1
    12    12     1    1
    13     1     2   ar
    14     2     3   ar
    15     3    25    1
    16    25    26   am
    17    26    27    2
    18    26    29    1
    19    29    30   ar
    20    30    31   ar
    21    31    32   ar
    22    32    33   ar
    23    33    34   ar
    24    32    35    1
    25    35    36    1
    26    36    37    1
    27    36    38    1
    28    36    39    1
    29     3     4   ar
    30     4     5   ar
    31     5     6   ar
    32     6     7    1
    33    12    13    1
    34    13    14    2
    35    14    15    1
    36    14     8    1
    37     6     1   ar
    38    34    29   ar
    39    39    31    1
    40    25    28    1
    41    15    16    1
    42    15    17    1
@<TRIPOS>MOLECULE
*****
 39 42 0 0 0
SMALL
GASTEIGER

@<TRIPOS>ATOM
      1 C           1.9492    1.5191   21.6249 C.ar    1  UNL1        0.0531
      2 C           0.4636    1.6681   21.7685 C.ar    1  UNL1        0.0167
      3 C          -0.2332    2.8517   21.1655 C.ar    1  UNL1        0.0505
      4 C           0.5556    3.8863   20.4190 C.ar    1  UNL1        0.0170
      5 C           2.0412    3.7373   20.2753 C.ar    1  UNL1        0.0307
      6 C           2.7380    2.5537   20.8783 C.ar    1  UNL1        0.1402
      7 F           4.2237    2.4047   20.7346 F       1  UNL1       -0.2044
      8 C           4.1314   -2.1313   21.3860 C.3     1  UNL1        0.2040
      9 C           4.8282   -3.3149   21.9890 C.3     1  UNL1        0.0361
     10 C           3.5877   -1.1930   20.3498 C.3     1  UNL1        0.0385
     11 C           2.8451    0.0405   20.7706 C.3     1  UNL1        0.0586
     12 C           2.6461    0.3355   22.2278 C.3     1  UNL1        0.2277
     13 N           3.1897   -0.6028   23.2641 N.2     1  UNL1       -0.0699
     14 C           3.9324   -1.8362   22.8433 C.2     1  UNL1        0.3086
     15 N           4.4761   -2.7745   23.8795 N.pl3   1  UNL1       -0.2488
     16 H           4.3455   -2.5809   24.8359 H       1  UNL1        0.2881
     17 H           4.9635   -3.5841   23.6033 H       1  UNL1        0.2881
     18 S           4.5724   -2.8374   20.1383 S.O2    1  UNL1       -0.0026
     19 O           3.1844   -3.3746   19.9517 O.2     1  UNL1       -0.1725
     20 O           5.9604   -2.3002   20.3250 O.2     1  UNL1       -0.1725
     21 C           4.6136   -4.9699   18.6548 C.3     1  UNL1        0.0271
     22 C           5.0134   -3.5436   18.8905 C.3     1  UNL1        0.1514
     23 C           2.2051    1.0417   23.4756 C.3     1  UNL1        0.2460
     24 F           3.2238    1.6539   24.3908 F       1  UNL1       -0.2293
     25 N          -1.7189    3.0007   21.3092 N.am    1  UNL1       -0.2791
     26 C          -2.2844    3.8613   22.3999 C.2     1  UNL1        0.2673
     27 O          -1.3642    4.5729   23.3470 O.2     1  UNL1       -0.2682
     28 H          -2.3229    2.5337   20.6876 H       1  UNL1        0.1552
     29 C          -3.7701    4.0102   22.5436 C.ar    1  UNL1        0.1380
     30 C          -4.3439    4.6584   23.7685 C.ar    1  UNL1        0.0641
     31 C          -5.8295    4.8074   23.9121 C.ar    1  UNL1        0.1849
     32 C          -6.7413    4.3082   22.8308 C.ar    1  UNL1        0.2007
     33 C          -6.1676    3.6600   21.6058 C.ar    1  UNL1        0.1392
     34 N          -4.6819    3.5110   21.4622 N.ar    1  UNL1       -0.2359
     35 O          -8.1540    4.5916   23.2482 O.3     1  UNL1       -0.3932
     36 C          -8.1152    5.2660   24.5874 C.3     1  UNL1        0.5892
     37 F          -9.6089    5.2740   24.4511 F       1  UNL1       -0.1252
     38 F          -8.3887    5.9421   25.8982 F       1  UNL1       -0.1252
     39 O          -6.6786    5.3994   24.9978 O.3     1  UNL1       -0.3947
@<TRIPOS>BOND
     1    21    22    1
     2    22    18    1
     3    18    19    2
     4    18    20    2
     5    18     8    1
     6     8     9    1
     7     8    10    1
     8    10    11    1
     9    11    12    1
    10    12    23    1
    11    23    24    1
    12    12     1    1
    13     1     2   ar
    14     2     3   ar
    15     3    25    1
    16    25    26   am
    17    26    27    2
    18    26    29    1
    19    29    30   ar
    20    30    31   ar
    21    31    32   ar
    22    32    33   ar
    23    33    34   ar
    24    32    35    1
    25    35    36    1
    26    36    37    1
    27    36    38    1
    28    36    39    1
    29     3     4   ar
    30     4     5   ar
    31     5     6   ar
    32     6     7    1
    33    12    13    1
    34    13    14    2
    35    14    15    1
    36    14     8    1
    37     6     1   ar
    38    34    29   ar
    39    39    31    1
    40    25    28    1
    41    15    16    1
    42    15    17    1
