@<TRIPOS>MOLECULE
*****
 40 45 0 0 0
SMALL
GASTEIGER

@<TRIPOS>ATOM
      1 C           4.6357   -0.9091   35.0055 C.3     1  UNL1        0.1164
      2 N           4.1397   -0.0425   33.8863 N.am    1  UNL1       -0.2625
      3 C           3.8272   -0.6487   32.5503 C.2     1  UNL1        0.3073
      4 O           4.0109   -2.1215   32.3335 O.2     1  UNL1       -0.2523
      5 N           3.3311    0.2180   31.4310 N.am    1  UNL1       -0.2621
      6 C           3.0996    1.6985   31.4984 C.3     1  UNL1        0.0970
      7 C           2.6048    2.1518   30.1569 C.3     1  UNL1        0.0460
      8 C           2.5305    0.9515   29.2604 C.3     1  UNL1        0.1114
      9 C           2.9793   -0.2437   30.0478 C.3     1  UNL1        0.1176
     10 N           2.0854    0.9471   27.8279 N.ar    1  UNL1       -0.2779
     11 C           0.6872    1.3602   27.4757 C.ar    1  UNL1        0.1808
     12 N           0.2421    1.3559   26.0432 N.ar    1  UNL1       -0.2247
     13 C           1.1954    0.9384   24.9629 C.ar    1  UNL1        0.0941
     14 C           1.0424    0.8345   23.4744 C.ar    1  UNL1        0.0263
     15 C           2.3461    0.3572   22.9067 C.ar    1  UNL1        0.0312
     16 S           3.3049    0.1661   24.0443 S.2     1  UNL1       -0.0807
     17 C           2.5937    0.5253   25.3152 C.ar    1  UNL1        0.1033
     18 C           3.0387    0.5297   26.7476 C.ar    1  UNL1        0.2694
     19 O           4.4371    0.1166   27.0999 O.2     1  UNL1       -0.2663
     20 C           2.6396    0.1136   21.4559 C.ar    1  UNL1        0.0061
     21 C           2.8228   -1.2875   20.9527 C.ar    1  UNL1        0.0014
     22 C           3.1163   -1.5309   19.5020 C.ar    1  UNL1        0.0114
     23 C           3.2266   -0.3733   18.5545 C.ar    1  UNL1        0.0577
     24 CL          3.5201   -0.6168   17.1037 Cl      1  UNL1       -0.0822
     25 C           3.0434    1.0278   19.0577 C.ar    1  UNL1        0.0114
     26 C           2.7499    1.2712   20.5084 C.ar    1  UNL1        0.0014
     27 C           3.9560    1.4303   34.1030 C.3     1  UNL1        0.0942
     28 C           5.0308    2.4737   34.0253 C.3     1  UNL1        0.0386
     29 C           4.4044    3.8066   34.3097 C.3     1  UNL1        0.0739
     30 N           2.9423    3.5870   34.5632 N.3     1  UNL1       -0.2712
     31 C           2.6652    2.1184   34.4354 C.3     1  UNL1        0.0922
     32 C           1.9344    4.6495   34.8875 C.3     1  UNL1        0.0725
     33 C           1.3512    4.7340   36.2669 C.3     1  UNL1        0.0220
     34 C           2.1807    4.3511   37.4566 C.3     1  UNL1        0.0278
     35 C           1.9642    3.0268   38.1269 C.ar    1  UNL1       -0.0221
     36 C           3.0094    1.9555   38.0267 C.ar    1  UNL1       -0.0043
     37 C           2.7929    0.6312   38.6970 C.ar    1  UNL1       -0.0003
     38 C           1.5310    0.3781   39.4675 C.ar    1  UNL1       -0.0000
     39 C           0.4859    1.4493   39.5678 C.ar    1  UNL1       -0.0003
     40 C           0.7024    2.7736   38.8975 C.ar    1  UNL1       -0.0043
@<TRIPOS>BOND
     1     1     2    1
     2     2     3   am
     3     3     4    2
     4     3     5   am
     5     5     6    1
     6     6     7    1
     7     7     8    1
     8     8    10    1
     9    10    11   ar
    10    11    12   ar
    11    12    13   ar
    12    13    14   ar
    13    14    15   ar
    14    15    20    1
    15    20    21   ar
    16    21    22   ar
    17    22    23   ar
    18    23    24    1
    19    23    25   ar
    20    25    26   ar
    21    15    16   ar
    22    16    17   ar
    23    17    18   ar
    24    18    19    2
    25     8     9    1
    26    27     2    1
    27    27    28    1
    28    28    29    1
    29    29    30    1
    30    30    32    1
    31    32    33    1
    32    33    34    1
    33    34    35    1
    34    35    36   ar
    35    36    37   ar
    36    37    38   ar
    37    38    39   ar
    38    39    40   ar
    39    30    31    1
    40     9     5    1
    41    31    27    1
    42    18    10   ar
    43    40    35   ar
    44    17    13   ar
    45    26    20   ar
@<TRIPOS>MOLECULE
*****
 40 45 0 0 0
SMALL
GASTEIGER

@<TRIPOS>ATOM
      1 C           3.8682   -0.8636   16.7976 C.3     1  UNL1        0.1164
      2 N           3.8798   -1.0493   18.2859 N.am    1  UNL1       -0.2625
      3 C           3.0246   -0.1777   19.1571 C.2     1  UNL1        0.3073
      4 O           2.1577    0.8794   18.5399 O.2     1  UNL1       -0.2523
      5 N           3.0362   -0.3634   20.6455 N.am    1  UNL1       -0.2621
      6 C           3.8473   -1.3734   21.4018 C.3     1  UNL1        0.0970
      7 C           3.5511   -1.2058   22.8626 C.3     1  UNL1        0.0460
      8 C           2.5569   -0.0923   23.0093 C.3     1  UNL1        0.1114
      9 C           2.2386    0.4284   21.6390 C.3     1  UNL1        0.1176
     10 N           1.9818    0.4121   24.2997 N.ar    1  UNL1       -0.2779
     11 C           0.5948    0.9820   24.3307 C.ar    1  UNL1        0.1808
     12 N           0.0198    1.4863   25.6212 N.ar    1  UNL1       -0.2247
     13 C           0.8320    1.4206   26.8805 C.ar    1  UNL1        0.0941
     14 C           0.5336    1.8376   28.2901 C.ar    1  UNL1        0.0263
     15 C           1.7363    1.5253   29.1303 C.ar    1  UNL1        0.0312
     16 S           2.7781    0.9154   28.2399 S.2     1  UNL1       -0.0807
     17 C           2.2191    0.8507   26.8494 C.ar    1  UNL1        0.1033
     18 C           2.7941    0.3464   25.5590 C.ar    1  UNL1        0.2694
     19 O           4.1812   -0.2236   25.5280 O.2     1  UNL1       -0.2663
     20 C           1.8733    1.7786   30.6024 C.ar    1  UNL1        0.0061
     21 C           2.7793    0.9164   31.4306 C.ar    1  UNL1        0.0014
     22 C           2.9162    1.1697   32.9028 C.ar    1  UNL1        0.0114
     23 C           2.1473    2.2851   33.5467 C.ar    1  UNL1        0.0577
     24 CL          2.2843    2.5383   35.0188 Cl      1  UNL1       -0.0822
     25 C           1.2414    3.1473   32.7184 C.ar    1  UNL1        0.0114
     26 C           1.1044    2.8940   31.2463 C.ar    1  UNL1        0.0014
     27 C           4.7466   -2.1064   18.9031 C.3     1  UNL1        0.0942
     28 C           4.3606   -3.5368   19.1381 C.3     1  UNL1        0.0386
     29 C           5.5270   -4.2333   19.7740 C.3     1  UNL1        0.0739
     30 N           6.6339   -3.2334   19.9320 N.3     1  UNL1       -0.2712
     31 C           6.1516   -1.9189   19.3938 C.3     1  UNL1        0.0922
     32 C           7.9858   -3.5009   20.5243 C.3     1  UNL1        0.0725
     33 C           8.1321   -4.4887   21.6437 C.3     1  UNL1        0.0220
     34 C           7.4412   -4.2462   22.9529 C.3     1  UNL1        0.0278
     35 C           7.5105   -5.2777   24.0397 C.ar    1  UNL1       -0.0221
     36 C           6.8880   -5.0019   25.3764 C.ar    1  UNL1       -0.0043
     37 C           6.9573   -6.0334   26.4632 C.ar    1  UNL1       -0.0003
     38 C           7.6490   -7.3408   26.2133 C.ar    1  UNL1       -0.0000
     39 C           8.2714   -7.6166   24.8768 C.ar    1  UNL1       -0.0003
     40 C           8.2022   -6.5851   23.7899 C.ar    1  UNL1       -0.0043
@<TRIPOS>BOND
     1     1     2    1
     2     2     3   am
     3     3     4    2
     4     3     5   am
     5     5     6    1
     6     6     7    1
     7     7     8    1
     8     8    10    1
     9    10    11   ar
    10    11    12   ar
    11    12    13   ar
    12    13    14   ar
    13    14    15   ar
    14    15    20    1
    15    20    21   ar
    16    21    22   ar
    17    22    23   ar
    18    23    24    1
    19    23    25   ar
    20    25    26   ar
    21    15    16   ar
    22    16    17   ar
    23    17    18   ar
    24    18    19    2
    25     8     9    1
    26    27     2    1
    27    27    28    1
    28    28    29    1
    29    29    30    1
    30    30    32    1
    31    32    33    1
    32    33    34    1
    33    34    35    1
    34    35    36   ar
    35    36    37   ar
    36    37    38   ar
    37    38    39   ar
    38    39    40   ar
    39    30    31    1
    40     9     5    1
    41    31    27    1
    42    18    10   ar
    43    40    35   ar
    44    17    13   ar
    45    26    20   ar
@<TRIPOS>MOLECULE
*****
 40 45 0 0 0
SMALL
GASTEIGER

@<TRIPOS>ATOM
      1 C           9.5241   -0.6357   22.7909 C.3     1  UNL1        0.1164
      2 N           8.0393   -0.7945   22.9313 N.am    1  UNL1       -0.2625
      3 C           7.2738    0.1001   23.8607 C.2     1  UNL1        0.3073
      4 O           7.9932    1.1535   24.6497 O.2     1  UNL1       -0.2523
      5 N           5.7888   -0.0588   24.0010 N.am    1  UNL1       -0.2621
      6 C           4.9375   -1.0620   23.2808 C.3     1  UNL1        0.0970
      7 C           3.5170   -0.8656   23.7209 C.3     1  UNL1        0.0460
      8 C           3.4905    0.2591   24.7130 C.3     1  UNL1        0.1114
      9 C           4.8945    0.7578   24.8862 C.3     1  UNL1        0.1176
     10 N           2.2734    0.7917   25.4097 N.ar    1  UNL1       -0.2779
     11 C           2.0970    0.5734   26.8832 C.ar    1  UNL1        0.1808
     12 N           0.8800    1.1060   27.5799 N.ar    1  UNL1       -0.2247
     13 C          -0.1606    1.8568   26.8030 C.ar    1  UNL1        0.0941
     14 C          -1.4547    2.4940   27.2143 C.ar    1  UNL1        0.0263
     15 C          -2.0780    3.1061   25.9950 C.ar    1  UNL1        0.0312
     16 S          -1.1692    2.8472   24.8301 S.2     1  UNL1       -0.0807
     17 C           0.0159    2.0750   25.3295 C.ar    1  UNL1        0.1033
     18 C           1.2329    1.5425   24.6328 C.ar    1  UNL1        0.2694
     19 O           1.4094    1.7607   23.1593 O.2     1  UNL1       -0.2663
     20 C          -3.3814    3.8470   25.9486 C.ar    1  UNL1        0.0061
     21 C          -3.7044    4.8632   27.0036 C.ar    1  UNL1        0.0014
     22 C          -5.0079    5.6042   26.9571 C.ar    1  UNL1        0.0114
     23 C          -5.9883    5.3289   25.8558 C.ar    1  UNL1        0.0577
     24 CL         -7.2917    6.0699   25.8094 Cl      1  UNL1       -0.0822
     25 C          -5.6653    4.3127   24.8008 C.ar    1  UNL1        0.0114
     26 C          -4.3619    3.5718   24.8472 C.ar    1  UNL1        0.0014
     27 C           7.3198   -1.8479   22.1422 C.3     1  UNL1        0.0942
     28 C           7.0308   -3.2475   22.5981 C.3     1  UNL1        0.0386
     29 C           6.2954   -3.9513   21.4964 C.3     1  UNL1        0.0739
     30 N           6.1297   -2.9868   20.3597 N.3     1  UNL1       -0.2712
     31 C           6.7628   -1.6868   20.7588 C.3     1  UNL1        0.0922
     32 C           5.4503   -3.2721   19.0532 C.3     1  UNL1        0.0725
     33 C           3.9603   -3.1424   18.9387 C.3     1  UNL1        0.0220
     34 C           3.1886   -2.4037   19.9918 C.3     1  UNL1        0.0278
     35 C           2.4862   -1.1239   19.6475 C.ar    1  UNL1       -0.0221
     36 C           1.2156   -0.7524   20.3529 C.ar    1  UNL1       -0.0043
     37 C           0.5131    0.5275   20.0087 C.ar    1  UNL1       -0.0003
     38 C           1.0814    1.4360   18.9590 C.ar    1  UNL1       -0.0000
     39 C           2.3520    1.0645   18.2536 C.ar    1  UNL1       -0.0003
     40 C           3.0544   -0.2153   18.5979 C.ar    1  UNL1       -0.0043
@<TRIPOS>BOND
     1     1     2    1
     2     2     3   am
     3     3     4    2
     4     3     5   am
     5     5     6    1
     6     6     7    1
     7     7     8    1
     8     8    10    1
     9    10    11   ar
    10    11    12   ar
    11    12    13   ar
    12    13    14   ar
    13    14    15   ar
    14    15    20    1
    15    20    21   ar
    16    21    22   ar
    17    22    23   ar
    18    23    24    1
    19    23    25   ar
    20    25    26   ar
    21    15    16   ar
    22    16    17   ar
    23    17    18   ar
    24    18    19    2
    25     8     9    1
    26    27     2    1
    27    27    28    1
    28    28    29    1
    29    29    30    1
    30    30    32    1
    31    32    33    1
    32    33    34    1
    33    34    35    1
    34    35    36   ar
    35    36    37   ar
    36    37    38   ar
    37    38    39   ar
    38    39    40   ar
    39    30    31    1
    40     9     5    1
    41    31    27    1
    42    18    10   ar
    43    40    35   ar
    44    17    13   ar
    45    26    20   ar
@<TRIPOS>MOLECULE
*****
 40 45 0 0 0
SMALL
GASTEIGER

@<TRIPOS>ATOM
      1 C           9.3847   -7.2908   27.2795 C.3     1  UNL1        0.1164
      2 N           8.6539   -6.0646   27.7402 N.am    1  UNL1       -0.2625
      3 C           8.3481   -5.8766   29.1966 C.2     1  UNL1        0.3073
      4 O           8.7731   -6.9147   30.1923 O.2     1  UNL1       -0.2523
      5 N           7.6172   -4.6504   29.6573 N.am    1  UNL1       -0.2621
      6 C           7.1319   -3.5325   28.7828 C.3     1  UNL1        0.0970
      7 C           6.4581   -2.5180   29.6584 C.3     1  UNL1        0.0460
      8 C           6.5270   -3.0089   31.0741 C.3     1  UNL1        0.1114
      9 C           7.2433   -4.3267   31.0735 C.3     1  UNL1        0.1176
     10 N           5.9761   -2.3053   32.2790 N.ar    1  UNL1       -0.2779
     11 C           4.5165   -2.4117   32.6076 C.ar    1  UNL1        0.1808
     12 N           3.9656   -1.7082   33.8125 N.ar    1  UNL1       -0.2247
     13 C           4.8746   -0.8982   34.6887 C.ar    1  UNL1        0.0941
     14 C           4.6201   -0.1000   35.9329 C.ar    1  UNL1        0.0263
     15 C           5.9225    0.4998   36.3732 C.ar    1  UNL1        0.0312
     16 S           6.9820    0.0723   35.4012 S.2     1  UNL1       -0.0807
     17 C           6.3342   -0.7917   34.3600 C.ar    1  UNL1        0.1033
     18 C           6.8850   -1.4953   33.1552 C.ar    1  UNL1        0.2694
     19 O           8.3447   -1.3889   32.8266 O.2     1  UNL1       -0.2663
     20 C           6.1293    1.3737   37.5747 C.ar    1  UNL1        0.0061
     21 C           7.5186    1.6698   38.0566 C.ar    1  UNL1        0.0014
     22 C           7.7253    2.5437   39.2581 C.ar    1  UNL1        0.0114
     23 C           6.5428    3.1214   39.9778 C.ar    1  UNL1        0.0577
     24 CL          6.7496    3.9953   41.1793 Cl      1  UNL1       -0.0822
     25 C           5.1535    2.8253   39.4959 C.ar    1  UNL1        0.0114
     26 C           4.9468    1.9514   38.2944 C.ar    1  UNL1        0.0014
     27 C           8.2288   -5.0264   26.7445 C.3     1  UNL1        0.0942
     28 C           9.0296   -3.8308   26.3211 C.3     1  UNL1        0.0386
     29 C           8.2241   -3.0669   25.3123 C.3     1  UNL1        0.0739
     30 N           6.9255   -3.7905   25.1123 N.3     1  UNL1       -0.2712
     31 C           6.9284   -5.0015   25.9974 C.3     1  UNL1        0.0922
     32 C           5.8183   -3.3758   24.1891 C.3     1  UNL1        0.0725
     33 C           5.7919   -3.8787   22.7762 C.3     1  UNL1        0.0220
     34 C           4.5133   -3.8463   21.9924 C.3     1  UNL1        0.0278
     35 C           4.4701   -3.1671   20.6557 C.ar    1  UNL1       -0.0221
     36 C           3.5492   -2.0038   20.4348 C.ar    1  UNL1       -0.0043
     37 C           3.5060   -1.3246   19.0981 C.ar    1  UNL1       -0.0003
     38 C           4.3838   -1.8086   17.9822 C.ar    1  UNL1       -0.0000
     39 C           5.3047   -2.9718   18.2031 C.ar    1  UNL1       -0.0003
     40 C           5.3479   -3.6510   19.5398 C.ar    1  UNL1       -0.0043
@<TRIPOS>BOND
     1     1     2    1
     2     2     3   am
     3     3     4    2
     4     3     5   am
     5     5     6    1
     6     6     7    1
     7     7     8    1
     8     8    10    1
     9    10    11   ar
    10    11    12   ar
    11    12    13   ar
    12    13    14   ar
    13    14    15   ar
    14    15    20    1
    15    20    21   ar
    16    21    22   ar
    17    22    23   ar
    18    23    24    1
    19    23    25   ar
    20    25    26   ar
    21    15    16   ar
    22    16    17   ar
    23    17    18   ar
    24    18    19    2
    25     8     9    1
    26    27     2    1
    27    27    28    1
    28    28    29    1
    29    29    30    1
    30    30    32    1
    31    32    33    1
    32    33    34    1
    33    34    35    1
    34    35    36   ar
    35    36    37   ar
    36    37    38   ar
    37    38    39   ar
    38    39    40   ar
    39    30    31    1
    40     9     5    1
    41    31    27    1
    42    18    10   ar
    43    40    35   ar
    44    17    13   ar
    45    26    20   ar
@<TRIPOS>MOLECULE
*****
 40 45 0 0 0
SMALL
GASTEIGER

@<TRIPOS>ATOM
      1 C           7.2335   -3.3339   32.1077 C.3     1  UNL1        0.1164
      2 N           6.2619   -2.1945   32.0213 N.am    1  UNL1       -0.2625
      3 C           5.7004   -1.7868   30.6914 C.2     1  UNL1        0.3073
      4 O           6.1106   -2.5186   29.4480 O.2     1  UNL1       -0.2523
      5 N           4.7287   -0.6474   30.6050 N.am    1  UNL1       -0.2621
      6 C           4.2282    0.1738   31.7561 C.3     1  UNL1        0.0970
      7 C           3.2772    1.1997   31.2148 C.3     1  UNL1        0.0460
      8 C           3.1898    1.0125   29.7291 C.3     1  UNL1        0.1114
      9 C           4.0869   -0.1290   29.3522 C.3     1  UNL1        0.1176
     10 N           2.3524    1.8244   28.7859 N.ar    1  UNL1       -0.2779
     11 C           2.9790    2.9285   27.9871 C.ar    1  UNL1        0.1808
     12 N           2.1415    3.7404   27.0439 N.ar    1  UNL1       -0.2247
     13 C           0.6774    3.4481   26.8996 C.ar    1  UNL1        0.0941
     14 C          -0.3928    4.0745   26.0556 C.ar    1  UNL1        0.0263
     15 C          -1.6808    3.3575   26.3328 C.ar    1  UNL1        0.0312
     16 S          -1.4067    2.2879   27.3481 S.2     1  UNL1       -0.0807
     17 C           0.0507    2.3439   27.6984 C.ar    1  UNL1        0.1033
     18 C           0.8882    1.5320   28.6416 C.ar    1  UNL1        0.2694
     19 O           0.2616    0.4278   29.4404 O.2     1  UNL1       -0.2663
     20 C          -3.0096    3.6574   25.7050 C.ar    1  UNL1        0.0061
     21 C          -4.1131    4.2489   26.5311 C.ar    1  UNL1        0.0014
     22 C          -5.4419    4.5488   25.9031 C.ar    1  UNL1        0.0114
     23 C          -5.6674    4.2572   24.4491 C.ar    1  UNL1        0.0577
     24 CL         -6.9962    4.5571   23.8213 Cl      1  UNL1       -0.0822
     25 C          -4.5639    3.6657   23.6230 C.ar    1  UNL1        0.0114
     26 C          -3.2351    3.3658   24.2510 C.ar    1  UNL1        0.0014
     27 C           5.8516   -1.4626   33.2647 C.3     1  UNL1        0.0942
     28 C           4.6007   -1.7026   34.0569 C.3     1  UNL1        0.0386
     29 C           4.5962   -0.7506   35.2160 C.3     1  UNL1        0.0739
     30 N           5.8444    0.0777   35.1403 N.3     1  UNL1       -0.2712
     31 C           6.6204   -0.3623   33.9343 C.3     1  UNL1        0.0922
     32 C           6.2463    1.1567   36.1018 C.3     1  UNL1        0.0725
     33 C           5.4036    1.4357   37.3109 C.3     1  UNL1        0.0220
     34 C           4.2323    2.3674   37.2100 C.3     1  UNL1        0.0278
     35 C           2.9732    2.0742   37.9707 C.ar    1  UNL1       -0.0221
     36 C           2.7713    0.7256   38.5959 C.ar    1  UNL1       -0.0043
     37 C           1.5121    0.4324   39.3565 C.ar    1  UNL1       -0.0003
     38 C           0.4549    1.4878   39.4920 C.ar    1  UNL1       -0.0000
     39 C           0.6567    2.8363   38.8669 C.ar    1  UNL1       -0.0003
     40 C           1.9159    3.1295   38.1062 C.ar    1  UNL1       -0.0043
@<TRIPOS>BOND
     1     1     2    1
     2     2     3   am
     3     3     4    2
     4     3     5   am
     5     5     6    1
     6     6     7    1
     7     7     8    1
     8     8    10    1
     9    10    11   ar
    10    11    12   ar
    11    12    13   ar
    12    13    14   ar
    13    14    15   ar
    14    15    20    1
    15    20    21   ar
    16    21    22   ar
    17    22    23   ar
    18    23    24    1
    19    23    25   ar
    20    25    26   ar
    21    15    16   ar
    22    16    17   ar
    23    17    18   ar
    24    18    19    2
    25     8     9    1
    26    27     2    1
    27    27    28    1
    28    28    29    1
    29    29    30    1
    30    30    32    1
    31    32    33    1
    32    33    34    1
    33    34    35    1
    34    35    36   ar
    35    36    37   ar
    36    37    38   ar
    37    38    39   ar
    38    39    40   ar
    39    30    31    1
    40     9     5    1
    41    31    27    1
    42    18    10   ar
    43    40    35   ar
    44    17    13   ar
    45    26    20   ar
@<TRIPOS>MOLECULE
*****
 40 45 0 0 0
SMALL
GASTEIGER

@<TRIPOS>ATOM
      1 C           7.7202    1.0898   17.9080 C.3     1  UNL1        0.1164
      2 N           6.2760    0.8262   18.2155 N.am    1  UNL1       -0.2625
      3 C           5.2963    1.9616   18.2458 C.2     1  UNL1        0.3073
      4 O           5.7608    3.3607   17.9686 O.2     1  UNL1       -0.2523
      5 N           3.8520    1.6980   18.5534 N.am    1  UNL1       -0.2621
      6 C           3.2437    0.3593   18.8495 C.3     1  UNL1        0.0970
      7 C           1.7783    0.5607   19.0980 C.3     1  UNL1        0.0460
      8 C           1.4808    2.0240   18.9554 C.3     1  UNL1        0.1114
      9 C           2.7625    2.7270   18.6189 C.3     1  UNL1        0.1176
     10 N           0.1375    2.6708   19.1205 N.ar    1  UNL1       -0.2779
     11 C          -0.5642    3.2565   17.9312 C.ar    1  UNL1        0.1808
     12 N          -1.9075    3.9033   18.0962 N.ar    1  UNL1       -0.2247
     13 C          -2.5491    3.9644   19.4507 C.ar    1  UNL1        0.0941
     14 C          -3.8558    4.5340   19.9175 C.ar    1  UNL1        0.0263
     15 C          -3.9617    4.3004   21.3954 C.ar    1  UNL1        0.0312
     16 S          -2.7205    3.5864   21.8420 S.2     1  UNL1       -0.0807
     17 C          -1.8474    3.3787   20.6401 C.ar    1  UNL1        0.1033
     18 C          -0.5041    2.7319   20.4749 C.ar    1  UNL1        0.2694
     19 O           0.1976    2.1462   21.6643 O.2     1  UNL1       -0.2663
     20 C          -5.1077    4.7091   22.2727 C.ar    1  UNL1        0.0061
     21 C          -6.3958    3.9417   22.2300 C.ar    1  UNL1        0.0014
     22 C          -7.5418    4.3504   23.1074 C.ar    1  UNL1        0.0114
     23 C          -7.3996    5.5265   24.0275 C.ar    1  UNL1        0.0577
     24 CL         -8.5456    5.9351   24.9049 Cl      1  UNL1       -0.0822
     25 C          -6.1115    6.2939   24.0703 C.ar    1  UNL1        0.0114
     26 C          -4.9656    5.8851   23.1929 C.ar    1  UNL1        0.0014
     27 C           5.8115   -0.5728   18.4928 C.3     1  UNL1        0.0942
     28 C           5.0425   -1.4497   17.5495 C.3     1  UNL1        0.0386
     29 C           4.7901   -2.7594   18.2356 C.3     1  UNL1        0.0739
     30 N           5.4030   -2.6920   19.6030 N.3     1  UNL1       -0.2712
     31 C           6.0343   -1.3406   19.7619 C.3     1  UNL1        0.0922
     32 C           5.3875   -3.7842   20.6310 C.3     1  UNL1        0.0725
     33 C           4.3583   -3.7726   21.7222 C.3     1  UNL1        0.0220
     34 C           4.6616   -3.1074   23.0320 C.3     1  UNL1        0.0278
     35 C           3.9293   -1.8591   23.4264 C.ar    1  UNL1       -0.0221
     36 C           3.9656   -1.3861   24.8495 C.ar    1  UNL1       -0.0043
     37 C           3.2334   -0.1378   25.2439 C.ar    1  UNL1       -0.0003
     38 C           2.4649    0.6376   24.2152 C.ar    1  UNL1       -0.0000
     39 C           2.4286    0.1646   22.7922 C.ar    1  UNL1       -0.0003
     40 C           3.1608   -1.0837   22.3978 C.ar    1  UNL1       -0.0043
@<TRIPOS>BOND
     1     1     2    1
     2     2     3   am
     3     3     4    2
     4     3     5   am
     5     5     6    1
     6     6     7    1
     7     7     8    1
     8     8    10    1
     9    10    11   ar
    10    11    12   ar
    11    12    13   ar
    12    13    14   ar
    13    14    15   ar
    14    15    20    1
    15    20    21   ar
    16    21    22   ar
    17    22    23   ar
    18    23    24    1
    19    23    25   ar
    20    25    26   ar
    21    15    16   ar
    22    16    17   ar
    23    17    18   ar
    24    18    19    2
    25     8     9    1
    26    27     2    1
    27    27    28    1
    28    28    29    1
    29    29    30    1
    30    30    32    1
    31    32    33    1
    32    33    34    1
    33    34    35    1
    34    35    36   ar
    35    36    37   ar
    36    37    38   ar
    37    38    39   ar
    38    39    40   ar
    39    30    31    1
    40     9     5    1
    41    31    27    1
    42    18    10   ar
    43    40    35   ar
    44    17    13   ar
    45    26    20   ar
@<TRIPOS>MOLECULE
*****
 40 45 0 0 0
SMALL
GASTEIGER

@<TRIPOS>ATOM
      1 C           7.9809   -2.1525   18.5773 C.3     1  UNL1        0.1164
      2 N           7.1657   -2.3967   19.8124 N.am    1  UNL1       -0.2625
      3 C           7.8411   -2.5059   21.1473 C.2     1  UNL1        0.3073
      4 O           9.3316   -2.3709   21.2470 O.2     1  UNL1       -0.2523
      5 N           7.0259   -2.7502   22.3826 N.am    1  UNL1       -0.2621
      6 C           5.5351   -2.9058   22.4386 C.3     1  UNL1        0.0970
      7 C           5.1462   -3.1334   23.8693 C.3     1  UNL1        0.0460
      8 C           6.3968   -3.1185   24.6975 C.3     1  UNL1        0.1114
      9 C           7.5585   -2.8817   23.7787 C.3     1  UNL1        0.1176
     10 N           6.4723   -3.3074   26.1837 N.ar    1  UNL1       -0.2779
     11 C           6.9581   -4.6082   26.7508 C.ar    1  UNL1        0.1808
     12 N           7.0336   -4.7971   28.2370 N.ar    1  UNL1       -0.2247
     13 C           6.6232   -3.6849   29.1560 C.ar    1  UNL1        0.0941
     14 C           6.5895   -3.5800   30.6520 C.ar    1  UNL1        0.0263
     15 C           6.0828   -2.2141   31.0094 C.ar    1  UNL1        0.0312
     16 S           5.8034   -1.4750   29.7344 S.2     1  UNL1       -0.0807
     17 C           6.1374   -2.3840   28.5890 C.ar    1  UNL1        0.1033
     18 C           6.0619   -2.1952   27.1028 C.ar    1  UNL1        0.2694
     19 O           5.5761   -0.8943   26.5357 O.2     1  UNL1       -0.2663
     20 C           5.8894   -1.6810   32.3981 C.ar    1  UNL1        0.0061
     21 C           4.5648   -1.8382   33.0842 C.ar    1  UNL1        0.0014
     22 C           4.3715   -1.3051   34.4729 C.ar    1  UNL1        0.0114
     23 C           5.5028   -0.6147   35.1755 C.ar    1  UNL1        0.0577
     24 CL          5.3094   -0.0816   36.5641 Cl      1  UNL1       -0.0822
     25 C           6.8274   -0.4575   34.4894 C.ar    1  UNL1        0.0114
     26 C           7.0207   -0.9907   33.1007 C.ar    1  UNL1        0.0014
     27 C           5.6751   -2.5317   19.7128 C.3     1  UNL1        0.0942
     28 C           4.9218   -3.7959   19.4222 C.3     1  UNL1        0.0386
     29 C           3.4573   -3.4718   19.4161 C.3     1  UNL1        0.0739
     30 N           3.3055   -2.0073   19.7030 N.3     1  UNL1       -0.2712
     31 C           4.6761   -1.4263   19.8864 C.3     1  UNL1        0.0922
     32 C           2.0103   -1.2558   19.7910 C.3     1  UNL1        0.0725
     33 C           1.9964    0.1587   20.2899 C.3     1  UNL1        0.0220
     34 C           1.0031    0.5762   21.3336 C.3     1  UNL1        0.0278
     35 C           1.4213    0.6726   22.7709 C.ar    1  UNL1       -0.0221
     36 C           2.5549   -0.1674   23.2802 C.ar    1  UNL1       -0.0043
     37 C           2.9731   -0.0710   24.7175 C.ar    1  UNL1       -0.0003
     38 C           2.2576    0.8655   25.6455 C.ar    1  UNL1       -0.0000
     39 C           1.1240    1.7054   25.1362 C.ar    1  UNL1       -0.0003
     40 C           0.7059    1.6090   23.6989 C.ar    1  UNL1       -0.0043
@<TRIPOS>BOND
     1     1     2    1
     2     2     3   am
     3     3     4    2
     4     3     5   am
     5     5     6    1
     6     6     7    1
     7     7     8    1
     8     8    10    1
     9    10    11   ar
    10    11    12   ar
    11    12    13   ar
    12    13    14   ar
    13    14    15   ar
    14    15    20    1
    15    20    21   ar
    16    21    22   ar
    17    22    23   ar
    18    23    24    1
    19    23    25   ar
    20    25    26   ar
    21    15    16   ar
    22    16    17   ar
    23    17    18   ar
    24    18    19    2
    25     8     9    1
    26    27     2    1
    27    27    28    1
    28    28    29    1
    29    29    30    1
    30    30    32    1
    31    32    33    1
    32    33    34    1
    33    34    35    1
    34    35    36   ar
    35    36    37   ar
    36    37    38   ar
    37    38    39   ar
    38    39    40   ar
    39    30    31    1
    40     9     5    1
    41    31    27    1
    42    18    10   ar
    43    40    35   ar
    44    17    13   ar
    45    26    20   ar
@<TRIPOS>MOLECULE
*****
 40 45 0 0 0
SMALL
GASTEIGER

@<TRIPOS>ATOM
      1 C           8.8578   -6.2865   23.1066 C.3     1  UNL1        0.1164
      2 N           8.1329   -5.0618   23.5802 N.am    1  UNL1       -0.2625
      3 C           7.5631   -5.0169   24.9671 C.2     1  UNL1        0.3073
      4 O           7.7183   -6.1967   25.8802 O.2     1  UNL1       -0.2523
      5 N           6.8381   -3.7921   25.4408 N.am    1  UNL1       -0.2621
      6 C           6.6056   -2.5421   24.6449 C.3     1  UNL1        0.0970
      7 C           5.8422   -1.5798   25.5057 C.3     1  UNL1        0.0460
      8 C           5.6028   -2.2351   26.8336 C.3     1  UNL1        0.1114
      9 C           6.2183   -3.6024   26.7935 C.3     1  UNL1        0.1176
     10 N           4.8755   -1.6293   27.9974 N.ar    1  UNL1       -0.2779
     11 C           3.4811   -1.1060   27.8203 C.ar    1  UNL1        0.1808
     12 N           2.7538   -0.5002   28.9841 N.ar    1  UNL1       -0.2247
     13 C           3.4212   -0.4179   30.3249 C.ar    1  UNL1        0.0941
     14 C           2.9574    0.1216   31.6454 C.ar    1  UNL1        0.0263
     15 C           4.0652   -0.0683   32.6386 C.ar    1  UNL1        0.0312
     16 S           5.2138   -0.7252   31.9320 S.2     1  UNL1       -0.0807
     17 C           4.8157   -0.9413   30.5020 C.ar    1  UNL1        0.1033
     18 C           5.5429   -1.5470   29.3382 C.ar    1  UNL1        0.2694
     19 O           6.9374   -2.0704   29.5153 O.2     1  UNL1       -0.2663
     20 C           4.0307    0.3289   34.0846 C.ar    1  UNL1        0.0061
     21 C           4.6941   -0.5351   35.1158 C.ar    1  UNL1        0.0014
     22 C           4.6595   -0.1377   36.5619 C.ar    1  UNL1        0.0114
     23 C           3.9616    1.1235   36.9767 C.ar    1  UNL1        0.0577
     24 CL          3.9271    1.5207   38.4228 Cl      1  UNL1       -0.0822
     25 C           3.2982    1.9875   35.9455 C.ar    1  UNL1        0.0114
     26 C           3.3328    1.5902   34.4995 C.ar    1  UNL1        0.0014
     27 C           7.9777   -3.8819   22.6671 C.3     1  UNL1        0.0942
     28 C           8.8962   -2.6984   22.5920 C.3     1  UNL1        0.0386
     29 C           8.3629   -1.7634   21.5473 C.3     1  UNL1        0.0739
     30 N           7.1149   -2.3691   20.9767 N.3     1  UNL1       -0.2712
     31 C           6.8768   -3.6784   21.6688 C.3     1  UNL1        0.0922
     32 C           6.2558   -1.7706   19.9026 C.3     1  UNL1        0.0725
     33 C           4.9763   -2.4440   19.5033 C.3     1  UNL1        0.0220
     34 C           3.7136   -2.1663   20.2639 C.3     1  UNL1        0.0278
     35 C           2.7890   -1.0760   19.8099 C.ar    1  UNL1       -0.0221
     36 C           3.1928   -0.1704   18.6842 C.ar    1  UNL1       -0.0043
     37 C           2.2682    0.9200   18.2301 C.ar    1  UNL1       -0.0003
     38 C           0.9397    1.1048   18.9018 C.ar    1  UNL1       -0.0000
     39 C           0.5359    0.1993   20.0274 C.ar    1  UNL1       -0.0003
     40 C           1.4605   -0.8910   20.4814 C.ar    1  UNL1       -0.0043
@<TRIPOS>BOND
     1     1     2    1
     2     2     3   am
     3     3     4    2
     4     3     5   am
     5     5     6    1
     6     6     7    1
     7     7     8    1
     8     8    10    1
     9    10    11   ar
    10    11    12   ar
    11    12    13   ar
    12    13    14   ar
    13    14    15   ar
    14    15    20    1
    15    20    21   ar
    16    21    22   ar
    17    22    23   ar
    18    23    24    1
    19    23    25   ar
    20    25    26   ar
    21    15    16   ar
    22    16    17   ar
    23    17    18   ar
    24    18    19    2
    25     8     9    1
    26    27     2    1
    27    27    28    1
    28    28    29    1
    29    29    30    1
    30    30    32    1
    31    32    33    1
    32    33    34    1
    33    34    35    1
    34    35    36   ar
    35    36    37   ar
    36    37    38   ar
    37    38    39   ar
    38    39    40   ar
    39    30    31    1
    40     9     5    1
    41    31    27    1
    42    18    10   ar
    43    40    35   ar
    44    17    13   ar
    45    26    20   ar
@<TRIPOS>MOLECULE
*****
 40 45 0 0 0
SMALL
GASTEIGER

@<TRIPOS>ATOM
      1 C           0.5750    5.0738   33.9750 C.3     1  UNL1        0.1164
      2 N           1.4734    4.2882   33.0665 N.am    1  UNL1       -0.2625
      3 C           1.2378    4.3000   31.5851 C.2     1  UNL1        0.3073
      4 O           0.1038    5.0974   31.0124 O.2     1  UNL1       -0.2523
      5 N           2.1363    3.5144   30.6765 N.am    1  UNL1       -0.2621
      6 C           3.3042    2.6747   31.1019 C.3     1  UNL1        0.0970
      7 C           3.9143    2.0719   29.8713 C.3     1  UNL1        0.0460
      8 C           3.1235    2.5391   28.6854 C.3     1  UNL1        0.1114
      9 C           2.0246    3.4306   29.1830 C.3     1  UNL1        0.1176
     10 N           3.3856    2.1781   27.2532 N.ar    1  UNL1       -0.2779
     11 C           3.8044    3.2373   26.2773 C.ar    1  UNL1        0.1808
     12 N           4.0665    2.8763   24.8451 N.ar    1  UNL1       -0.2247
     13 C           3.9098    1.4559   24.3890 C.ar    1  UNL1        0.0941
     14 C           4.0972    0.8052   23.0506 C.ar    1  UNL1        0.0263
     15 C           3.7941   -0.6563   23.1994 C.ar    1  UNL1        0.0312
     16 S           3.4195   -0.9088   24.6297 S.2     1  UNL1       -0.0807
     17 C           3.4910    0.3967   25.3650 C.ar    1  UNL1        0.1033
     18 C           3.2289    0.7577   26.7971 C.ar    1  UNL1        0.2694
     19 O           2.8101   -0.3016   27.7731 O.2     1  UNL1       -0.2663
     20 C           3.8550   -1.6848   22.1092 C.ar    1  UNL1        0.0061
     21 C           3.2694   -1.3846   20.7613 C.ar    1  UNL1        0.0014
     22 C           3.3303   -2.4132   19.6711 C.ar    1  UNL1        0.0114
     23 C           3.9767   -3.7419   19.9289 C.ar    1  UNL1        0.0577
     24 CL          4.0376   -4.7705   18.8387 Cl      1  UNL1       -0.0822
     25 C           4.5623   -4.0422   21.2768 C.ar    1  UNL1        0.0114
     26 C           4.5014   -3.0136   22.3670 C.ar    1  UNL1        0.0014
     27 C           2.6075    3.4908   33.6392 C.3     1  UNL1        0.0942
     28 C           4.0206    3.9643   33.8094 C.3     1  UNL1        0.0386
     29 C           4.8141    2.8461   34.4176 C.3     1  UNL1        0.0739
     30 N           3.8913    1.6815   34.6233 N.3     1  UNL1       -0.2712
     31 C           2.5276    2.0799   34.1422 C.3     1  UNL1        0.0922
     32 C           4.2665    0.3518   35.2075 C.3     1  UNL1        0.0725
     33 C           4.6374    0.2473   36.6572 C.3     1  UNL1        0.0220
     34 C           4.3911    1.4043   37.5796 C.3     1  UNL1        0.0278
     35 C           3.0198    1.6372   38.1410 C.ar    1  UNL1       -0.0221
     36 C           2.3171    2.9383   37.8892 C.ar    1  UNL1       -0.0043
     37 C           0.9458    3.1712   38.4506 C.ar    1  UNL1       -0.0003
     38 C           0.2770    2.1028   39.2638 C.ar    1  UNL1       -0.0000
     39 C           0.9796    0.8017   39.5156 C.ar    1  UNL1       -0.0003
     40 C           2.3509    0.5688   38.9542 C.ar    1  UNL1       -0.0043
@<TRIPOS>BOND
     1     1     2    1
     2     2     3   am
     3     3     4    2
     4     3     5   am
     5     5     6    1
     6     6     7    1
     7     7     8    1
     8     8    10    1
     9    10    11   ar
    10    11    12   ar
    11    12    13   ar
    12    13    14   ar
    13    14    15   ar
    14    15    20    1
    15    20    21   ar
    16    21    22   ar
    17    22    23   ar
    18    23    24    1
    19    23    25   ar
    20    25    26   ar
    21    15    16   ar
    22    16    17   ar
    23    17    18   ar
    24    18    19    2
    25     8     9    1
    26    27     2    1
    27    27    28    1
    28    28    29    1
    29    29    30    1
    30    30    32    1
    31    32    33    1
    32    33    34    1
    33    34    35    1
    34    35    36   ar
    35    36    37   ar
    36    37    38   ar
    37    38    39   ar
    38    39    40   ar
    39    30    31    1
    40     9     5    1
    41    31    27    1
    42    18    10   ar
    43    40    35   ar
    44    17    13   ar
    45    26    20   ar
