@<TRIPOS>MOLECULE
*****
 37 41 0 0 0
SMALL
GASTEIGER

@<TRIPOS>ATOM
      1 C           6.2265   -2.7846   28.1942 C.ar    1  UNL1        0.0564
      2 C           5.9189   -2.0412   29.4602 C.ar    1  UNL1        0.0237
      3 C           6.1863   -2.6818   30.7899 C.ar    1  UNL1        0.0814
      4 N           6.7611   -4.0658   30.8537 N.ar    1  UNL1       -0.2454
      5 C           7.0687   -4.8092   29.5876 C.ar    1  UNL1        0.0815
      6 C           7.6436   -6.1932   29.6514 C.ar    1  UNL1        0.0214
      7 C           7.9512   -6.9366   28.3854 C.ar    1  UNL1        0.0312
      8 C           7.6839   -6.2960   27.0556 C.ar    1  UNL1        0.1402
      9 F           7.9915   -7.0394   25.7896 F       1  UNL1       -0.2042
     10 C           7.1090   -4.9120   26.9919 C.ar    1  UNL1        0.0313
     11 C           6.8014   -4.1686   28.2579 C.ar    1  UNL1        0.0243
     12 C           5.8787   -1.9384   32.0560 C.ar    1  UNL1        0.0177
     13 C           6.7596   -0.8060   32.4937 C.ar    1  UNL1        0.0029
     14 C           6.4520   -0.0627   33.7596 C.ar    1  UNL1        0.0200
     15 C           5.2634   -0.4517   34.5879 C.ar    1  UNL1        0.1222
     16 C           4.3825   -1.5841   34.1502 C.ar    1  UNL1        0.0200
     17 C           4.6901   -2.3274   32.8842 C.ar    1  UNL1        0.0029
     18 S           4.9558    0.2918   35.8539 S.O2    1  UNL1        0.0634
     19 O           5.9515   -0.5531   36.5920 O.2     1  UNL1       -0.1528
     20 O           3.9602    1.1366   35.1159 O.2     1  UNL1       -0.1528
     21 N           4.6482    1.0352   37.1199 N.3     1  UNL1       -0.1504
     22 C           5.7480    1.7270   37.8694 C.3     1  UNL1        0.1279
     23 C           5.4404    2.4705   39.1355 C.3     1  UNL1        0.1613
     24 O           4.0330    2.5221   39.6518 O.3     1  UNL1       -0.3507
     25 C           2.9332    1.8302   38.9022 C.3     1  UNL1        0.1613
     26 C           3.2409    1.0868   37.6363 C.3     1  UNL1        0.1279
     27 O           7.0754   -1.4802   26.1138 O.2     1  UNL1       -0.2701
     28 C           5.9592   -2.1440   26.8645 C.2     1  UNL1        0.2460
     29 N           4.5757   -2.1672   26.2854 N.am    1  UNL1       -0.2994
     30 H           3.8431   -2.6028   26.7781 H       1  UNL1        0.1498
     31 C           4.3084   -1.5266   24.9557 C.3     1  UNL1        0.1070
     32 C           4.6346   -2.2621   23.6897 C.3     1  UNL1        0.0936
     33 N           3.9210   -1.9166   22.4164 N.3     1  UNL1       -0.2712
     34 C           2.8535   -0.8746   22.2588 C.3     1  UNL1        0.0722
     35 C           2.4222   -0.8664   20.8221 C.3     1  UNL1        0.0188
     36 C           3.2232   -1.9033   20.0918 C.3     1  UNL1        0.0188
     37 C           4.1495   -2.5524   21.0771 C.3     1  UNL1        0.0722
@<TRIPOS>BOND
     1    27    28    2
     2    28    29   am
     3    29    31    1
     4    31    32    1
     5    32    33    1
     6    33    34    1
     7    34    35    1
     8    35    36    1
     9    36    37    1
    10    28     1    1
    11     1     2   ar
    12     2     3   ar
    13     3    12    1
    14    12    13   ar
    15    13    14   ar
    16    14    15   ar
    17    15    18    1
    18    18    19    2
    19    18    20    2
    20    18    21    1
    21    21    22    1
    22    22    23    1
    23    23    24    1
    24    24    25    1
    25    25    26    1
    26    15    16   ar
    27    16    17   ar
    28     3     4   ar
    29     4     5   ar
    30     5     6   ar
    31     6     7   ar
    32     7     8   ar
    33     8     9    1
    34     8    10   ar
    35    10    11   ar
    36    37    33    1
    37    11     1   ar
    38    17    12   ar
    39    11     5   ar
    40    26    21    1
    41    29    30    1
@<TRIPOS>MOLECULE
*****
 37 41 0 0 0
SMALL
GASTEIGER

@<TRIPOS>ATOM
      1 C           4.2528   -2.1359   21.4143 C.ar    1  UNL1        0.0564
      2 C           4.0267   -1.7720   22.8518 C.ar    1  UNL1        0.0237
      3 C           3.2244   -0.5533   23.1997 C.ar    1  UNL1        0.0814
      4 N           2.6483    0.3016   22.1101 N.ar    1  UNL1       -0.2454
      5 C           2.8744   -0.0623   20.6725 C.ar    1  UNL1        0.0815
      6 C           2.2982    0.7926   19.5830 C.ar    1  UNL1        0.0214
      7 C           2.5243    0.4287   18.1455 C.ar    1  UNL1        0.0312
      8 C           3.3266   -0.7900   17.7976 C.ar    1  UNL1        0.1402
      9 F           3.5527   -1.1538   16.3600 F       1  UNL1       -0.2042
     10 C           3.9028   -1.6449   18.8871 C.ar    1  UNL1        0.0313
     11 C           3.6766   -1.2810   20.3246 C.ar    1  UNL1        0.0243
     12 C           2.9983   -0.1894   24.6373 C.ar    1  UNL1        0.0177
     13 C           3.7208   -0.9326   25.7216 C.ar    1  UNL1        0.0029
     14 C           3.4946   -0.5687   27.1591 C.ar    1  UNL1        0.0200
     15 C           2.5461    0.5383   27.5122 C.ar    1  UNL1        0.1222
     16 C           1.8237    1.2815   26.4280 C.ar    1  UNL1        0.0200
     17 C           2.0498    0.9176   24.9905 C.ar    1  UNL1        0.0029
     18 S           2.3200    0.9021   28.9498 S.O2    1  UNL1        0.0634
     19 O           2.4673    2.3546   28.6054 O.2     1  UNL1       -0.1528
     20 O           2.1728   -0.5503   29.2942 O.2     1  UNL1       -0.1528
     21 N           2.0939    1.2659   30.3874 N.3     1  UNL1       -0.1504
     22 C           0.9706    2.1874   30.7600 C.3     1  UNL1        0.1279
     23 C           0.7445    2.5513   32.1976 C.3     1  UNL1        0.1613
     24 O           1.6417    1.9935   33.2625 O.3     1  UNL1       -0.3507
     25 C           2.7650    1.0719   32.8897 C.3     1  UNL1        0.1613
     26 C           2.9911    0.7082   31.4522 C.3     1  UNL1        0.1279
     27 O           4.3628   -4.6605   20.8108 O.2     1  UNL1       -0.2701
     28 C           5.0551   -3.3546   21.0663 C.2     1  UNL1        0.2460
     29 N           6.5497   -3.2674   20.9739 N.am    1  UNL1       -0.2994
     30 H           7.0041   -2.4103   21.1416 H       1  UNL1        0.1498
     31 C           7.3520   -4.4861   20.6260 C.3     1  UNL1        0.1070
     32 C           8.5307   -4.8739   21.4689 C.3     1  UNL1        0.0936
     33 N           8.3247   -5.6591   22.7303 N.3     1  UNL1       -0.2712
     34 C           7.6024   -5.1844   23.9562 C.3     1  UNL1        0.0722
     35 C           7.6362   -6.2887   24.9709 C.3     1  UNL1        0.0188
     36 C           8.3794   -7.4458   24.3720 C.3     1  UNL1        0.0188
     37 C           8.8050   -7.0567   22.9872 C.3     1  UNL1        0.0722
@<TRIPOS>BOND
     1    27    28    2
     2    28    29   am
     3    29    31    1
     4    31    32    1
     5    32    33    1
     6    33    34    1
     7    34    35    1
     8    35    36    1
     9    36    37    1
    10    28     1    1
    11     1     2   ar
    12     2     3   ar
    13     3    12    1
    14    12    13   ar
    15    13    14   ar
    16    14    15   ar
    17    15    18    1
    18    18    19    2
    19    18    20    2
    20    18    21    1
    21    21    22    1
    22    22    23    1
    23    23    24    1
    24    24    25    1
    25    25    26    1
    26    15    16   ar
    27    16    17   ar
    28     3     4   ar
    29     4     5   ar
    30     5     6   ar
    31     6     7   ar
    32     7     8   ar
    33     8     9    1
    34     8    10   ar
    35    10    11   ar
    36    37    33    1
    37    11     1   ar
    38    17    12   ar
    39    11     5   ar
    40    26    21    1
    41    29    30    1
@<TRIPOS>MOLECULE
*****
 37 41 0 0 0
SMALL
GASTEIGER

@<TRIPOS>ATOM
      1 C           3.6496   -1.4938   22.1271 C.ar    1  UNL1        0.0564
      2 C           2.7098   -0.6538   22.9401 C.ar    1  UNL1        0.0237
      3 C           1.8674    0.3912   22.2704 C.ar    1  UNL1        0.0814
      4 N           1.9649    0.5960   20.7876 N.ar    1  UNL1       -0.2454
      5 C           2.9047   -0.2441   19.9746 C.ar    1  UNL1        0.0815
      6 C           3.0021   -0.0393   18.4919 C.ar    1  UNL1        0.0214
      7 C           3.9419   -0.8793   17.6789 C.ar    1  UNL1        0.0312
      8 C           4.7843   -1.9243   18.3486 C.ar    1  UNL1        0.1402
      9 F           5.7242   -2.7644   17.5355 F       1  UNL1       -0.2042
     10 C           4.6869   -2.1291   19.8313 C.ar    1  UNL1        0.0313
     11 C           3.7471   -1.2890   20.6443 C.ar    1  UNL1        0.0243
     12 C           0.9276    1.2313   23.0834 C.ar    1  UNL1        0.0177
     13 C           0.7342    0.9420   24.5425 C.ar    1  UNL1        0.0029
     14 C          -0.2056    1.7820   25.3555 C.ar    1  UNL1        0.0200
     15 C          -0.9520    2.9114   24.7094 C.ar    1  UNL1        0.1222
     16 C          -0.7586    3.2007   23.2504 C.ar    1  UNL1        0.0200
     17 C           0.1812    2.3607   22.4374 C.ar    1  UNL1        0.0029
     18 S          -1.8918    3.7515   25.5225 S.O2    1  UNL1        0.0634
     19 O          -0.7580    4.1525   26.4189 O.2     1  UNL1       -0.1528
     20 O          -3.0257    3.3505   24.6261 O.2     1  UNL1       -0.1528
     21 N          -2.8317    4.5916   26.3355 N.3     1  UNL1       -0.1504
     22 C          -4.3103    4.3518   26.2575 C.3     1  UNL1        0.1279
     23 C          -5.2502    5.1919   27.0706 C.3     1  UNL1        0.1613
     24 O          -4.7114    6.2717   27.9615 O.3     1  UNL1       -0.3507
     25 C          -3.2327    6.5114   28.0394 C.3     1  UNL1        0.1613
     26 C          -2.2929    5.6714   27.2264 C.3     1  UNL1        0.1279
     27 O           4.2640   -3.9909   22.4978 O.2     1  UNL1       -0.2701
     28 C           4.4920   -2.5387   22.7969 C.2     1  UNL1        0.2460
     29 N           5.5624   -2.1316   23.7656 N.am    1  UNL1       -0.2994
     30 H           5.7120   -1.1785   23.9618 H       1  UNL1        0.1498
     31 C           6.4047   -3.1765   24.4353 C.3     1  UNL1        0.1070
     32 C           7.6463   -3.6831   23.7630 C.3     1  UNL1        0.0936
     33 N           7.9976   -5.1396   23.8359 N.3     1  UNL1       -0.2712
     34 C           8.7581   -5.9160   22.8021 C.3     1  UNL1        0.0722
     35 C           8.8806   -7.3316   23.2827 C.3     1  UNL1        0.0188
     36 C           8.1957   -7.4302   24.6136 C.3     1  UNL1        0.0188
     37 C           7.6500   -6.0754   24.9556 C.3     1  UNL1        0.0722
@<TRIPOS>BOND
     1    27    28    2
     2    28    29   am
     3    29    31    1
     4    31    32    1
     5    32    33    1
     6    33    34    1
     7    34    35    1
     8    35    36    1
     9    36    37    1
    10    28     1    1
    11     1     2   ar
    12     2     3   ar
    13     3    12    1
    14    12    13   ar
    15    13    14   ar
    16    14    15   ar
    17    15    18    1
    18    18    19    2
    19    18    20    2
    20    18    21    1
    21    21    22    1
    22    22    23    1
    23    23    24    1
    24    24    25    1
    25    25    26    1
    26    15    16   ar
    27    16    17   ar
    28     3     4   ar
    29     4     5   ar
    30     5     6   ar
    31     6     7   ar
    32     7     8   ar
    33     8     9    1
    34     8    10   ar
    35    10    11   ar
    36    37    33    1
    37    11     1   ar
    38    17    12   ar
    39    11     5   ar
    40    26    21    1
    41    29    30    1
@<TRIPOS>MOLECULE
*****
 37 41 0 0 0
SMALL
GASTEIGER

@<TRIPOS>ATOM
      1 C           7.1816   -3.3489   25.4804 C.ar    1  UNL1        0.0564
      2 C           6.7489   -2.6470   26.7334 C.ar    1  UNL1        0.0237
      3 C           6.5533   -3.4260   28.0002 C.ar    1  UNL1        0.0814
      4 N           6.7905   -4.9071   28.0140 N.ar    1  UNL1       -0.2454
      5 C           7.2233   -5.6091   26.7610 C.ar    1  UNL1        0.0815
      6 C           7.4604   -7.0901   26.7749 C.ar    1  UNL1        0.0214
      7 C           7.8932   -7.7921   25.5220 C.ar    1  UNL1        0.0312
      8 C           8.0887   -7.0131   24.2551 C.ar    1  UNL1        0.1402
      9 F           8.5214   -7.7151   23.0021 F       1  UNL1       -0.2042
     10 C           7.8515   -5.5320   24.2413 C.ar    1  UNL1        0.0313
     11 C           7.4188   -4.8301   25.4942 C.ar    1  UNL1        0.0243
     12 C           6.1206   -2.7240   29.2532 C.ar    1  UNL1        0.0177
     13 C           5.3378   -1.4474   29.1655 C.ar    1  UNL1        0.0029
     14 C           4.9051   -0.7455   30.4184 C.ar    1  UNL1        0.0200
     15 C           5.2552   -1.3200   31.7591 C.ar    1  UNL1        0.1222
     16 C           6.0379   -2.5965   31.8468 C.ar    1  UNL1        0.0200
     17 C           6.4706   -3.2985   30.5938 C.ar    1  UNL1        0.0029
     18 S           4.8224   -0.6180   33.0121 S.O2    1  UNL1        0.0634
     19 O           6.2300   -0.6705   33.5277 O.2     1  UNL1       -0.1528
     20 O           3.4149   -0.5654   32.4965 O.2     1  UNL1       -0.1528
     21 N           4.3897    0.0841   34.2650 N.3     1  UNL1       -0.1504
     22 C           3.5305    1.3105   34.1789 C.3     1  UNL1        0.1279
     23 C           3.0977    2.0126   35.4318 C.3     1  UNL1        0.1613
     24 O           3.5241    1.4882   36.7709 O.3     1  UNL1       -0.3507
     25 C           4.3833    0.2616   36.8570 C.3     1  UNL1        0.1613
     26 C           4.8161   -0.4404   35.6041 C.3     1  UNL1        0.1279
     27 O           8.6471   -1.8025   23.9935 O.2     1  UNL1       -0.2701
     28 C           7.3771   -2.5699   24.2136 C.2     1  UNL1        0.2460
     29 N           6.3028   -2.5582   23.1669 N.am    1  UNL1       -0.2994
     30 H           5.4693   -3.0618   23.3114 H       1  UNL1        0.1498
     31 C           6.4983   -1.7791   21.9001 C.3     1  UNL1        0.1070
     32 C           5.3514   -1.5886   20.9522 C.3     1  UNL1        0.0936
     33 N           4.8032   -2.7604   20.1931 N.3     1  UNL1       -0.2712
     34 C           3.3911   -2.9167   19.7119 C.3     1  UNL1        0.0722
     35 C           3.2860   -4.2346   19.0033 C.3     1  UNL1        0.0188
     36 C           4.6332   -4.8928   19.0464 C.3     1  UNL1        0.0188
     37 C           5.5709   -3.9817   19.7817 C.3     1  UNL1        0.0722
@<TRIPOS>BOND
     1    27    28    2
     2    28    29   am
     3    29    31    1
     4    31    32    1
     5    32    33    1
     6    33    34    1
     7    34    35    1
     8    35    36    1
     9    36    37    1
    10    28     1    1
    11     1     2   ar
    12     2     3   ar
    13     3    12    1
    14    12    13   ar
    15    13    14   ar
    16    14    15   ar
    17    15    18    1
    18    18    19    2
    19    18    20    2
    20    18    21    1
    21    21    22    1
    22    22    23    1
    23    23    24    1
    24    24    25    1
    25    25    26    1
    26    15    16   ar
    27    16    17   ar
    28     3     4   ar
    29     4     5   ar
    30     5     6   ar
    31     6     7   ar
    32     7     8   ar
    33     8     9    1
    34     8    10   ar
    35    10    11   ar
    36    37    33    1
    37    11     1   ar
    38    17    12   ar
    39    11     5   ar
    40    26    21    1
    41    29    30    1
@<TRIPOS>MOLECULE
*****
 37 41 0 0 0
SMALL
GASTEIGER

@<TRIPOS>ATOM
      1 C           3.6080   -1.0223   22.2727 C.ar    1  UNL1        0.0564
      2 C           3.8006   -1.0113   23.7602 C.ar    1  UNL1        0.0237
      3 C           2.8582   -0.2365   24.6328 C.ar    1  UNL1        0.0814
      4 N           1.7232    0.5274   24.0180 N.ar    1  UNL1       -0.2454
      5 C           1.5305    0.5165   22.5304 C.ar    1  UNL1        0.0815
      6 C           0.3955    1.2804   21.9155 C.ar    1  UNL1        0.0214
      7 C           0.2028    1.2694   20.4280 C.ar    1  UNL1        0.0312
      8 C           1.1452    0.4946   19.5554 C.ar    1  UNL1        0.1402
      9 F           0.9526    0.4836   18.0678 F       1  UNL1       -0.2042
     10 C           2.2803   -0.2693   20.1702 C.ar    1  UNL1        0.0313
     11 C           2.4729   -0.2584   21.6577 C.ar    1  UNL1        0.0243
     12 C           3.0509   -0.2255   26.1204 C.ar    1  UNL1        0.0177
     13 C           4.0198   -1.1765   26.7582 C.ar    1  UNL1        0.0029
     14 C           4.2124   -1.1655   28.2457 C.ar    1  UNL1        0.0200
     15 C           3.4361   -0.2036   29.0954 C.ar    1  UNL1        0.1222
     16 C           2.4672    0.7474   28.4577 C.ar    1  UNL1        0.0200
     17 C           2.2746    0.7364   26.9702 C.ar    1  UNL1        0.0029
     18 S           3.6288   -0.1926   30.5830 S.O2    1  UNL1        0.0634
     19 O           5.1100   -0.3321   30.3923 O.2     1  UNL1       -0.1528
     20 O           2.1476   -0.0531   30.7738 O.2     1  UNL1       -0.1528
     21 N           3.8214   -0.1817   32.0705 N.3     1  UNL1       -0.1504
     22 C           3.5136    1.0576   32.8575 C.3     1  UNL1        0.1279
     23 C           3.7062    1.0686   34.3451 C.3     1  UNL1        0.1613
     24 O           4.2067   -0.1598   35.0456 O.3     1  UNL1       -0.3507
     25 C           4.5145   -1.3991   34.2586 C.3     1  UNL1        0.1613
     26 C           4.3219   -1.4100   32.7711 C.3     1  UNL1        0.1279
     27 O           5.9288   -1.2699   21.1314 O.2     1  UNL1       -0.2701
     28 C           4.5504   -1.7971   21.4001 C.2     1  UNL1        0.2460
     29 N           4.1145   -3.0991   20.7962 N.am    1  UNL1       -0.2994
     30 H           3.2098   -3.4451   20.9725 H       1  UNL1        0.1498
     31 C           5.0569   -3.8740   19.9236 C.3     1  UNL1        0.1070
     32 C           5.0804   -3.6306   18.4436 C.3     1  UNL1        0.0936
     33 N           5.3007   -2.2442   17.9149 N.3     1  UNL1       -0.2712
     34 C           4.2460   -1.3358   17.3559 C.3     1  UNL1        0.0722
     35 C           4.9079   -0.0530   16.9480 C.3     1  UNL1        0.0188
     36 C           6.3716   -0.1686   17.2548 C.3     1  UNL1        0.0188
     37 C           6.6144   -1.5228   17.8525 C.3     1  UNL1        0.0722
@<TRIPOS>BOND
     1    27    28    2
     2    28    29   am
     3    29    31    1
     4    31    32    1
     5    32    33    1
     6    33    34    1
     7    34    35    1
     8    35    36    1
     9    36    37    1
    10    28     1    1
    11     1     2   ar
    12     2     3   ar
    13     3    12    1
    14    12    13   ar
    15    13    14   ar
    16    14    15   ar
    17    15    18    1
    18    18    19    2
    19    18    20    2
    20    18    21    1
    21    21    22    1
    22    22    23    1
    23    23    24    1
    24    24    25    1
    25    25    26    1
    26    15    16   ar
    27    16    17   ar
    28     3     4   ar
    29     4     5   ar
    30     5     6   ar
    31     6     7   ar
    32     7     8   ar
    33     8     9    1
    34     8    10   ar
    35    10    11   ar
    36    37    33    1
    37    11     1   ar
    38    17    12   ar
    39    11     5   ar
    40    26    21    1
    41    29    30    1
@<TRIPOS>MOLECULE
*****
 37 41 0 0 0
SMALL
GASTEIGER

@<TRIPOS>ATOM
      1 C           4.2132   -1.8329   23.8418 C.ar    1  UNL1        0.0564
      2 C           4.3096   -1.6490   25.3274 C.ar    1  UNL1        0.0237
      3 C           3.4717   -0.6092   26.0104 C.ar    1  UNL1        0.0814
      4 N           2.5373    0.2469   25.2078 N.ar    1  UNL1       -0.2454
      5 C           2.4408    0.0630   23.7222 C.ar    1  UNL1        0.0815
      6 C           1.5065    0.9191   22.9197 C.ar    1  UNL1        0.0214
      7 C           1.4101    0.7352   21.4341 C.ar    1  UNL1        0.0312
      8 C           2.2480   -0.3046   20.7511 C.ar    1  UNL1        0.1402
      9 F           2.1516   -0.4884   19.2655 F       1  UNL1       -0.2042
     10 C           3.1824   -1.1607   21.5537 C.ar    1  UNL1        0.0313
     11 C           3.2788   -0.9768   23.0392 C.ar    1  UNL1        0.0243
     12 C           3.5681   -0.4254   27.4960 C.ar    1  UNL1        0.0177
     13 C           4.9074   -0.2278   28.1419 C.ar    1  UNL1        0.0029
     14 C           5.0038   -0.0440   29.6274 C.ar    1  UNL1        0.0200
     15 C           3.7609   -0.0578   30.4671 C.ar    1  UNL1        0.1222
     16 C           2.4216   -0.2554   29.8212 C.ar    1  UNL1        0.0200
     17 C           2.3252   -0.4392   28.3356 C.ar    1  UNL1        0.0029
     18 S           3.8573    0.1261   31.9527 S.O2    1  UNL1        0.0634
     19 O           3.4830   -1.3123   32.1550 O.2     1  UNL1       -0.1528
     20 O           4.2316    1.5644   31.7504 O.2     1  UNL1       -0.1528
     21 N           3.9537    0.3099   33.4382 N.3     1  UNL1       -0.1504
     22 C           3.3683    1.5315   34.0823 C.3     1  UNL1        0.1279
     23 C           3.4647    1.7154   35.5679 C.3     1  UNL1        0.1613
     24 O           4.1466    0.6777   36.4094 O.3     1  UNL1       -0.3507
     25 C           4.7321   -0.5440   35.7652 C.3     1  UNL1        0.1613
     26 C           4.6356   -0.7279   34.2797 C.3     1  UNL1        0.1279
     27 O           4.4251   -4.1545   22.6950 O.2     1  UNL1       -0.2701
     28 C           5.0512   -2.8727   23.1588 C.2     1  UNL1        0.2460
     29 N           6.5152   -2.6309   22.9397 N.am    1  UNL1       -0.2994
     30 H           6.9262   -1.7897   23.2441 H       1  UNL1        0.1498
     31 C           7.3532   -3.6708   22.2567 C.3     1  UNL1        0.1070
     32 C           7.6005   -3.5833   20.7798 C.3     1  UNL1        0.0936
     33 N           6.5043   -3.1309   19.8613 N.3     1  UNL1       -0.2712
     34 C           5.3014   -3.9332   19.4619 C.3     1  UNL1        0.0722
     35 C           4.4721   -3.0950   18.5347 C.3     1  UNL1        0.0188
     36 C           5.1624   -1.7746   18.3610 C.3     1  UNL1        0.0188
     37 C           6.4184   -1.7968   19.1809 C.3     1  UNL1        0.0722
@<TRIPOS>BOND
     1    27    28    2
     2    28    29   am
     3    29    31    1
     4    31    32    1
     5    32    33    1
     6    33    34    1
     7    34    35    1
     8    35    36    1
     9    36    37    1
    10    28     1    1
    11     1     2   ar
    12     2     3   ar
    13     3    12    1
    14    12    13   ar
    15    13    14   ar
    16    14    15   ar
    17    15    18    1
    18    18    19    2
    19    18    20    2
    20    18    21    1
    21    21    22    1
    22    22    23    1
    23    23    24    1
    24    24    25    1
    25    25    26    1
    26    15    16   ar
    27    16    17   ar
    28     3     4   ar
    29     4     5   ar
    30     5     6   ar
    31     6     7   ar
    32     7     8   ar
    33     8     9    1
    34     8    10   ar
    35    10    11   ar
    36    37    33    1
    37    11     1   ar
    38    17    12   ar
    39    11     5   ar
    40    26    21    1
    41    29    30    1
@<TRIPOS>MOLECULE
*****
 37 41 0 0 0
SMALL
GASTEIGER

@<TRIPOS>ATOM
      1 C          -1.6561    3.4670   23.5661 C.ar    1  UNL1        0.0564
      2 C          -0.8138    2.9930   24.7132 C.ar    1  UNL1        0.0237
      3 C          -1.4180    2.8507   26.0787 C.ar    1  UNL1        0.0814
      4 N          -2.8644    3.1825   26.2972 N.ar    1  UNL1       -0.2454
      5 C          -3.7067    3.6565   25.1501 C.ar    1  UNL1        0.0815
      6 C          -5.1532    3.9882   25.3685 C.ar    1  UNL1        0.0214
      7 C          -5.9954    4.4622   24.2215 C.ar    1  UNL1        0.0312
      8 C          -5.3913    4.6045   22.8559 C.ar    1  UNL1        0.1402
      9 F          -6.2336    5.0786   21.7088 F       1  UNL1       -0.2042
     10 C          -3.9448    4.2728   22.6374 C.ar    1  UNL1        0.0313
     11 C          -3.1026    3.7988   23.7845 C.ar    1  UNL1        0.0243
     12 C          -0.5756    2.3767   27.2259 C.ar    1  UNL1        0.0177
     13 C          -0.9827    1.1598   28.0027 C.ar    1  UNL1        0.0029
     14 C          -0.1404    0.6859   29.1497 C.ar    1  UNL1        0.0200
     15 C           1.1090    1.4287   29.5200 C.ar    1  UNL1        0.1222
     16 C           1.5161    2.6456   28.7431 C.ar    1  UNL1        0.0200
     17 C           0.6738    3.1196   27.5961 C.ar    1  UNL1        0.0029
     18 S           1.9514    0.9547   30.6671 S.O2    1  UNL1        0.0634
     19 O           2.2336    2.3778   31.0480 O.2     1  UNL1       -0.1528
     20 O           1.6692   -0.4684   30.2861 O.2     1  UNL1       -0.1528
     21 N           2.7937    0.4806   31.8141 N.3     1  UNL1       -0.1504
     22 C           3.4674   -0.8578   31.7469 C.3     1  UNL1        0.1279
     23 C           4.3098   -1.3319   32.8940 C.3     1  UNL1        0.1613
     24 O           4.4783   -0.4676   34.1082 O.3     1  UNL1       -0.3507
     25 C           3.8045    0.8710   34.1754 C.3     1  UNL1        0.1613
     26 C           2.9622    1.3450   33.0284 C.3     1  UNL1        0.1279
     27 O          -0.4235    4.9081   21.7901 O.2     1  UNL1       -0.2701
     28 C          -1.0519    3.6093   22.2005 C.2     1  UNL1        0.2460
     29 N          -1.0762    2.4530   21.2455 N.am    1  UNL1       -0.2994
     30 H          -1.4886    1.6006   21.5149 H       1  UNL1        0.1498
     31 C          -0.4720    2.5953   19.8799 C.3     1  UNL1        0.1070
     32 C           0.9929    2.3433   19.6779 C.3     1  UNL1        0.0936
     33 N           1.6048    1.0576   20.1495 N.3     1  UNL1       -0.2712
     34 C           2.3078    0.8431   21.4571 C.3     1  UNL1        0.0722
     35 C           2.7586   -0.5865   21.5121 C.3     1  UNL1        0.0188
     36 C           2.3341   -1.2556   20.2385 C.3     1  UNL1        0.0188
     37 C           1.6210   -0.2396   19.3964 C.3     1  UNL1        0.0722
@<TRIPOS>BOND
     1    27    28    2
     2    28    29   am
     3    29    31    1
     4    31    32    1
     5    32    33    1
     6    33    34    1
     7    34    35    1
     8    35    36    1
     9    36    37    1
    10    28     1    1
    11     1     2   ar
    12     2     3   ar
    13     3    12    1
    14    12    13   ar
    15    13    14   ar
    16    14    15   ar
    17    15    18    1
    18    18    19    2
    19    18    20    2
    20    18    21    1
    21    21    22    1
    22    22    23    1
    23    23    24    1
    24    24    25    1
    25    25    26    1
    26    15    16   ar
    27    16    17   ar
    28     3     4   ar
    29     4     5   ar
    30     5     6   ar
    31     6     7   ar
    32     7     8   ar
    33     8     9    1
    34     8    10   ar
    35    10    11   ar
    36    37    33    1
    37    11     1   ar
    38    17    12   ar
    39    11     5   ar
    40    26    21    1
    41    29    30    1
@<TRIPOS>MOLECULE
*****
 37 41 0 0 0
SMALL
GASTEIGER

@<TRIPOS>ATOM
      1 C           3.8371   -0.9255   24.8791 C.ar    1  UNL1        0.0564
      2 C           2.8322   -0.0780   24.1568 C.ar    1  UNL1        0.0237
      3 C           2.5832   -0.2930   22.6934 C.ar    1  UNL1        0.0814
      4 N           3.3390   -1.3557   21.9522 N.ar    1  UNL1       -0.2454
      5 C           4.3440   -2.2033   22.6745 C.ar    1  UNL1        0.0815
      6 C           5.0999   -3.2660   21.9333 C.ar    1  UNL1        0.0214
      7 C           6.1048   -4.1135   22.6556 C.ar    1  UNL1        0.0312
      8 C           6.3538   -3.8985   24.1191 C.ar    1  UNL1        0.1402
      9 F           7.3588   -4.7461   24.8414 F       1  UNL1       -0.2042
     10 C           5.5979   -2.8358   24.8602 C.ar    1  UNL1        0.0313
     11 C           4.5930   -1.9882   24.1380 C.ar    1  UNL1        0.0243
     12 C           1.5782    0.5546   21.9711 C.ar    1  UNL1        0.0177
     13 C           0.7685    1.5660   22.7270 C.ar    1  UNL1        0.0029
     14 C          -0.2364    2.4135   22.0047 C.ar    1  UNL1        0.0200
     15 C          -0.4316    2.2497   20.5265 C.ar    1  UNL1        0.1222
     16 C           0.3781    1.2384   19.7706 C.ar    1  UNL1        0.0200
     17 C           1.3830    0.3908   20.4929 C.ar    1  UNL1        0.0029
     18 S          -1.4366    3.0974   19.8042 S.O2    1  UNL1        0.0634
     19 O          -0.3815    3.5110   18.8215 O.2     1  UNL1       -0.1528
     20 O          -2.4917    2.6838   20.7869 O.2     1  UNL1       -0.1528
     21 N          -2.4416    3.9450   19.0820 N.3     1  UNL1       -0.1504
     22 C          -2.0016    4.8374   17.9596 C.3     1  UNL1        0.1279
     23 C          -3.0065    5.6851   17.2373 C.3     1  UNL1        0.1613
     24 O          -4.4515    5.6402   17.6375 O.3     1  UNL1       -0.3507
     25 C          -4.8914    4.7477   18.7600 C.3     1  UNL1        0.1613
     26 C          -3.8865    3.9001   19.4823 C.3     1  UNL1        0.1279
     27 O           5.3683   -0.0809   26.8006 O.2     1  UNL1       -0.2701
     28 C           4.0861   -0.7105   26.3426 C.2     1  UNL1        0.2460
     29 N           3.0530   -1.1249   27.3480 N.am    1  UNL1       -0.2994
     30 H           2.2115   -1.5380   27.0474 H       1  UNL1        0.1498
     31 C           3.3021   -0.9098   28.8115 C.3     1  UNL1        0.1070
     32 C           2.1983   -0.4072   29.6942 C.3     1  UNL1        0.0936
     33 N           1.0153    0.2912   29.0917 N.3     1  UNL1       -0.2712
     34 C          -0.3564   -0.2900   28.9163 C.3     1  UNL1        0.0722
     35 C          -1.2232    0.7529   28.2751 C.3     1  UNL1        0.0188
     36 C          -0.3872    1.9786   28.0542 C.3     1  UNL1        0.0188
     37 C           0.9963    1.6933   28.5589 C.3     1  UNL1        0.0722
@<TRIPOS>BOND
     1    27    28    2
     2    28    29   am
     3    29    31    1
     4    31    32    1
     5    32    33    1
     6    33    34    1
     7    34    35    1
     8    35    36    1
     9    36    37    1
    10    28     1    1
    11     1     2   ar
    12     2     3   ar
    13     3    12    1
    14    12    13   ar
    15    13    14   ar
    16    14    15   ar
    17    15    18    1
    18    18    19    2
    19    18    20    2
    20    18    21    1
    21    21    22    1
    22    22    23    1
    23    23    24    1
    24    24    25    1
    25    25    26    1
    26    15    16   ar
    27    16    17   ar
    28     3     4   ar
    29     4     5   ar
    30     5     6   ar
    31     6     7   ar
    32     7     8   ar
    33     8     9    1
    34     8    10   ar
    35    10    11   ar
    36    37    33    1
    37    11     1   ar
    38    17    12   ar
    39    11     5   ar
    40    26    21    1
    41    29    30    1
@<TRIPOS>MOLECULE
*****
 37 41 0 0 0
SMALL
GASTEIGER

@<TRIPOS>ATOM
      1 C           2.8081   -0.2767   22.6768 C.ar    1  UNL1        0.0564
      2 C           2.7658    0.0795   24.1332 C.ar    1  UNL1        0.0237
      3 C           3.4961   -0.7665   25.1337 C.ar    1  UNL1        0.0814
      4 N           4.2687   -1.9686   24.6777 N.ar    1  UNL1       -0.2454
      5 C           4.3110   -2.3249   23.2212 C.ar    1  UNL1        0.0815
      6 C           5.0835   -3.5270   22.7652 C.ar    1  UNL1        0.0214
      7 C           5.1258   -3.8831   21.3088 C.ar    1  UNL1        0.0312
      8 C           4.3955   -3.0372   20.3083 C.ar    1  UNL1        0.1402
      9 F           4.4378   -3.3934   18.8518 F       1  UNL1       -0.2042
     10 C           3.6229   -1.8350   20.7643 C.ar    1  UNL1        0.0313
     11 C           3.5807   -1.4789   22.2207 C.ar    1  UNL1        0.0243
     12 C           3.4538   -0.4103   26.5902 C.ar    1  UNL1        0.0177
     13 C           2.5535    0.6906   27.0673 C.ar    1  UNL1        0.0029
     14 C           2.5113    1.0467   28.5237 C.ar    1  UNL1        0.0200
     15 C           3.3692    0.3020   29.5031 C.ar    1  UNL1        0.1222
     16 C           4.2695   -0.7989   29.0261 C.ar    1  UNL1        0.0200
     17 C           4.3117   -1.1550   27.5697 C.ar    1  UNL1        0.0029
     18 S           3.3269    0.6582   30.9597 S.O2    1  UNL1        0.0634
     19 O           1.8619    0.3384   30.9954 O.2     1  UNL1       -0.1528
     20 O           4.7920    0.9780   30.9240 O.2     1  UNL1       -0.1528
     21 N           3.2847    1.0144   32.4161 N.3     1  UNL1       -0.1504
     22 C           2.2988    2.0306   32.9114 C.3     1  UNL1        0.1279
     23 C           2.2565    2.3869   34.3679 C.3     1  UNL1        0.1613
     24 O           3.2001    1.7269   35.3291 O.3     1  UNL1       -0.3507
     25 C           4.1861    0.7106   34.8338 C.3     1  UNL1        0.1613
     26 C           4.2283    0.3544   33.3773 C.3     1  UNL1        0.1279
     27 O           2.2357    2.0609   21.6978 O.2     1  UNL1       -0.2701
     28 C           2.0778    0.5693   21.6763 C.2     1  UNL1        0.2460
     29 N           1.1896   -0.0762   20.6543 N.am    1  UNL1       -0.2994
     30 H           1.0860   -1.0551   20.6402 H       1  UNL1        0.1498
     31 C           0.4593    0.7698   19.6538 C.3     1  UNL1        0.1070
     32 C           1.1930    1.3409   18.4767 C.3     1  UNL1        0.0936
     33 N           2.6062    0.9219   18.1986 N.3     1  UNL1       -0.2712
     34 C           3.0321   -0.3402   17.5088 C.3     1  UNL1        0.0722
     35 C           4.5307   -0.3507   17.4453 C.3     1  UNL1        0.0188
     36 C           5.0311    0.9048   18.0958 C.3     1  UNL1        0.0188
     37 C           3.8417    1.6914   18.5614 C.3     1  UNL1        0.0722
@<TRIPOS>BOND
     1    27    28    2
     2    28    29   am
     3    29    31    1
     4    31    32    1
     5    32    33    1
     6    33    34    1
     7    34    35    1
     8    35    36    1
     9    36    37    1
    10    28     1    1
    11     1     2   ar
    12     2     3   ar
    13     3    12    1
    14    12    13   ar
    15    13    14   ar
    16    14    15   ar
    17    15    18    1
    18    18    19    2
    19    18    20    2
    20    18    21    1
    21    21    22    1
    22    22    23    1
    23    23    24    1
    24    24    25    1
    25    25    26    1
    26    15    16   ar
    27    16    17   ar
    28     3     4   ar
    29     4     5   ar
    30     5     6   ar
    31     6     7   ar
    32     7     8   ar
    33     8     9    1
    34     8    10   ar
    35    10    11   ar
    36    37    33    1
    37    11     1   ar
    38    17    12   ar
    39    11     5   ar
    40    26    21    1
    41    29    30    1
