@<TRIPOS>MOLECULE
*****
 40 43 0 0 0
SMALL
GASTEIGER

@<TRIPOS>ATOM
      1 C           5.4394   -1.4652   18.6382 C.ar    1  UNL1        0.1368
      2 C           6.4388   -1.7443   19.7215 C.ar    1  UNL1        0.0691
      3 C           6.6083   -3.1400   20.2441 C.ar    1  UNL1        0.1432
      4 N           5.7784   -4.2567   19.6835 N.ar    1  UNL1       -0.2085
      5 C           4.7791   -3.9777   18.6003 C.ar    1  UNL1        0.2012
      6 N           4.6096   -2.5819   18.0776 N.ar    1  UNL1       -0.2088
      7 N           7.6076   -3.4191   21.3274 N.am    1  UNL1       -0.2261
      8 C           9.0519   -3.0691   21.1237 C.3     1  UNL1        0.1231
      9 C           7.1627   -4.0482   22.6143 C.2     1  UNL1        0.3126
     10 O           5.7184   -4.3982   22.8181 O.2     1  UNL1       -0.2519
     11 N           8.1620   -4.3273   23.6976 N.am    1  UNL1       -0.2663
     12 H           9.1100   -4.0975   23.5638 H       1  UNL1        0.1565
     13 C           7.7171   -4.9564   24.9846 C.ar    1  UNL1        0.0788
     14 C           7.7691   -6.4465   25.1483 C.ar    1  UNL1        0.1060
     15 CL          8.2661   -7.3075   24.0251 Cl      1  UNL1       -0.0777
     16 C           7.3242   -7.0755   26.4353 C.ar    1  UNL1        0.1535
     17 C           6.8273   -6.2144   27.5585 C.ar    1  UNL1        0.0756
     18 C           6.7753   -4.7243   27.3948 C.ar    1  UNL1        0.1535
     19 C           7.2202   -4.0953   26.1078 C.ar    1  UNL1        0.1060
     20 CL          7.1682   -2.6051   25.9440 Cl      1  UNL1       -0.0777
     21 O           7.3763   -8.5657   26.5991 O.3     1  UNL1       -0.4704
     22 C           8.3638   -9.1822   27.5449 C.3     1  UNL1        0.2525
     23 O           6.2783   -3.8633   28.5180 O.3     1  UNL1       -0.4704
     24 C           7.0620   -3.7682   29.7934 C.3     1  UNL1        0.2525
     25 N           5.2699   -0.0695   18.1156 N.pl3   1  UNL1       -0.2978
     26 H           6.0186    0.3804   17.6614 H       1  UNL1        0.1536
     27 C           1.3393    2.0617   18.6241 C.ar    1  UNL1        0.0480
     28 C           1.3643    0.5812   18.3847 C.ar    1  UNL1        0.0158
     29 C           2.6745   -0.1292   18.2152 C.ar    1  UNL1        0.0159
     30 C           3.9597    0.6409   18.2851 C.ar    1  UNL1        0.0494
     31 C           3.9348    2.1214   18.5246 C.ar    1  UNL1        0.0159
     32 C           2.6246    2.8318   18.6940 C.ar    1  UNL1        0.0158
     33 N          -2.5913    4.1929   19.1326 N.3     1  UNL1       -0.2698
     34 C          -2.0077    3.4133   20.2735 C.3     1  UNL1        0.0938
     35 C          -0.6975    2.7029   20.1040 C.3     1  UNL1        0.1081
     36 N           0.0291    2.7721   18.7936 N.pl3   1  UNL1       -0.3046
     37 C          -0.5544    3.5517   17.6527 C.3     1  UNL1        0.1081
     38 C          -1.8646    4.2621   17.8222 C.3     1  UNL1        0.0938
     39 C          -4.9337    4.3584   20.2442 C.3     1  UNL1        0.0188
     40 C          -3.9015    4.9033   19.3021 C.3     1  UNL1        0.0722
@<TRIPOS>BOND
     1    39    40    1
     2    40    33    1
     3    33    34    1
     4    34    35    1
     5    35    36    1
     6    36    27    1
     7    27    28   ar
     8    28    29   ar
     9    29    30   ar
    10    30    25    1
    11    25     1    1
    12     1     2   ar
    13     2     3   ar
    14     3     7    1
    15     7     8    1
    16     7     9   am
    17     9    10    2
    18     9    11   am
    19    11    13    1
    20    13    14   ar
    21    14    15    1
    22    14    16   ar
    23    16    21    1
    24    21    22    1
    25    16    17   ar
    26    17    18   ar
    27    18    23    1
    28    23    24    1
    29    18    19   ar
    30    19    20    1
    31     3     4   ar
    32     4     5   ar
    33     5     6   ar
    34    30    31   ar
    35    31    32   ar
    36    36    37    1
    37    37    38    1
    38    38    33    1
    39    32    27   ar
    40     6     1   ar
    41    19    13   ar
    42    25    26    1
    43    11    12    1
@<TRIPOS>MOLECULE
*****
 40 43 0 0 0
SMALL
GASTEIGER

@<TRIPOS>ATOM
      1 C           5.3967   -1.4650   18.6181 C.ar    1  UNL1        0.1368
      2 C           6.3940   -1.7215   19.7089 C.ar    1  UNL1        0.0691
      3 C           6.5729   -3.1087   20.2507 C.ar    1  UNL1        0.1432
      4 N           5.7545   -4.2396   19.7017 N.ar    1  UNL1       -0.2085
      5 C           4.7573   -3.9832   18.6110 C.ar    1  UNL1        0.2012
      6 N           4.5784   -2.5959   18.0691 N.ar    1  UNL1       -0.2088
      7 N           7.5702   -3.3651   21.3415 N.am    1  UNL1       -0.2261
      8 C           9.0046   -2.9684   21.1546 C.3     1  UNL1        0.1231
      9 C           7.1330   -4.0182   22.6191 C.2     1  UNL1        0.3126
     10 O           5.6985   -4.4149   22.8059 O.2     1  UNL1       -0.2519
     11 N           8.1302   -4.2746   23.7098 N.am    1  UNL1       -0.2663
     12 H           9.0717   -4.0142   23.5871 H       1  UNL1        0.1565
     13 C           7.6930   -4.9277   24.9874 C.ar    1  UNL1        0.0788
     14 C           7.1440   -4.0934   26.1066 C.ar    1  UNL1        0.1060
     15 CL          7.0321   -2.6060   25.9481 Cl      1  UNL1       -0.0777
     16 C           6.7068   -4.7466   27.3841 C.ar    1  UNL1        0.1535
     17 C           6.8188   -6.2340   27.5426 C.ar    1  UNL1        0.0756
     18 C           7.3678   -7.0682   26.4235 C.ar    1  UNL1        0.1535
     19 C           7.8050   -6.4151   25.1459 C.ar    1  UNL1        0.1060
     20 CL          8.3541   -7.2494   24.0267 Cl      1  UNL1       -0.0777
     21 O           6.1577   -3.9123   28.5034 O.3     1  UNL1       -0.4704
     22 C           7.0903   -3.2673   29.4853 C.3     1  UNL1        0.2525
     23 O           7.4798   -8.5556   26.5820 O.3     1  UNL1       -0.4704
     24 C           8.4047   -9.1326   27.6123 C.3     1  UNL1        0.2525
     25 N           5.2179   -0.0778   18.0764 N.pl3   1  UNL1       -0.2978
     26 H           5.9601    0.3666   17.6064 H       1  UNL1        0.1536
     27 C           1.2887    2.0526   18.5990 C.ar    1  UNL1        0.0480
     28 C           1.3158    0.5650   18.4083 C.ar    1  UNL1        0.0158
     29 C           2.6255   -0.1451   18.2341 C.ar    1  UNL1        0.0159
     30 C           3.9082    0.6323   18.2506 C.ar    1  UNL1        0.0494
     31 C           3.8811    2.1199   18.4412 C.ar    1  UNL1        0.0159
     32 C           2.5714    2.8300   18.6154 C.ar    1  UNL1        0.0158
     33 N          -2.6404    4.1830   19.1216 N.3     1  UNL1       -0.2698
     34 C          -2.0773    3.3621   20.2436 C.3     1  UNL1        0.0938
     35 C          -0.7676    2.6520   20.0694 C.3     1  UNL1        0.1081
     36 N          -0.0210    2.7627   18.7732 N.pl3   1  UNL1       -0.3046
     37 C          -0.5841    3.5836   17.6511 C.3     1  UNL1        0.1081
     38 C          -1.8938    4.2937   17.8253 C.3     1  UNL1        0.0938
     39 C          -5.2268    4.2252   18.8786 C.3     1  UNL1        0.0188
     40 C          -3.9501    4.8931   19.2958 C.3     1  UNL1        0.0722
@<TRIPOS>BOND
     1    39    40    1
     2    40    33    1
     3    33    34    1
     4    34    35    1
     5    35    36    1
     6    36    27    1
     7    27    28   ar
     8    28    29   ar
     9    29    30   ar
    10    30    25    1
    11    25     1    1
    12     1     2   ar
    13     2     3   ar
    14     3     7    1
    15     7     8    1
    16     7     9   am
    17     9    10    2
    18     9    11   am
    19    11    13    1
    20    13    14   ar
    21    14    15    1
    22    14    16   ar
    23    16    21    1
    24    21    22    1
    25    16    17   ar
    26    17    18   ar
    27    18    23    1
    28    23    24    1
    29    18    19   ar
    30    19    20    1
    31     3     4   ar
    32     4     5   ar
    33     5     6   ar
    34    30    31   ar
    35    31    32   ar
    36    36    37    1
    37    37    38    1
    38    38    33    1
    39    32    27   ar
    40     6     1   ar
    41    19    13   ar
    42    25    26    1
    43    11    12    1
@<TRIPOS>MOLECULE
*****
 40 43 0 0 0
SMALL
GASTEIGER

@<TRIPOS>ATOM
      1 C           6.8525   -3.8729   30.0813 C.ar    1  UNL1        0.1368
      2 C           6.5285   -2.5724   29.4076 C.ar    1  UNL1        0.0691
      3 C           6.2816   -2.5351   27.9285 C.ar    1  UNL1        0.1432
      4 N           6.3586   -3.7982   27.1232 N.ar    1  UNL1       -0.2085
      5 C           6.6825   -5.0987   27.7968 C.ar    1  UNL1        0.2012
      6 N           6.9295   -5.1360   29.2760 N.ar    1  UNL1       -0.2088
      7 N           5.9577   -1.2346   27.2548 N.am    1  UNL1       -0.2261
      8 C           7.0581   -0.2787   26.9011 C.3     1  UNL1        0.1231
      9 C           4.5333   -0.8902   26.9347 C.2     1  UNL1        0.3126
     10 O           3.4328   -1.8461   27.2883 O.2     1  UNL1       -0.2519
     11 N           4.2094    0.4103   26.2610 N.am    1  UNL1       -0.2663
     12 H           4.9317    1.0377   26.0289 H       1  UNL1        0.1565
     13 C           2.7850    0.7548   25.9409 C.ar    1  UNL1        0.0788
     14 C           1.8295    1.0960   27.0456 C.ar    1  UNL1        0.1060
     15 CL          2.2982    1.0927   28.4704 Cl      1  UNL1       -0.0777
     16 C           0.4051    1.4405   26.7254 C.ar    1  UNL1        0.1535
     17 C          -0.0637    1.4438   25.3006 C.ar    1  UNL1        0.0756
     18 C           0.8919    1.1026   24.1959 C.ar    1  UNL1        0.1535
     19 C           2.3162    0.7581   24.5160 C.ar    1  UNL1        0.1060
     20 CL          3.2719    0.4169   23.4112 Cl      1  UNL1       -0.0777
     21 O          -0.5505    1.7817   27.8302 O.3     1  UNL1       -0.4704
     22 C          -1.3221    0.6942   28.5170 C.3     1  UNL1        0.2525
     23 O           0.4231    1.1059   22.7710 O.3     1  UNL1       -0.4704
     24 C           0.0428    2.3973   22.1096 C.3     1  UNL1        0.2525
     25 N           7.0994   -3.9102   31.5603 N.pl3   1  UNL1       -0.2978
     26 H           7.6910   -4.5976   31.9435 H       1  UNL1        0.1536
     27 C           5.1361   -0.8803   34.2465 C.ar    1  UNL1        0.0480
     28 C           6.5693   -0.7051   33.8398 C.ar    1  UNL1        0.0158
     29 C           7.2237   -1.7150   32.9444 C.ar    1  UNL1        0.0159
     30 C           6.4450   -2.9003   32.4557 C.ar    1  UNL1        0.0494
     31 C           5.0119   -3.0755   32.8624 C.ar    1  UNL1        0.0159
     32 C           4.3574   -2.0655   33.7578 C.ar    1  UNL1        0.0158
     33 N           3.1729    2.1496   36.9326 N.3     1  UNL1       -0.2698
     34 C           3.0118    2.2504   35.4447 C.3     1  UNL1        0.0938
     35 C           3.6663    1.2405   34.5493 C.3     1  UNL1        0.1081
     36 N           4.4817    0.1297   35.1418 N.pl3   1  UNL1       -0.3046
     37 C           4.6428    0.0289   36.6297 C.3     1  UNL1        0.1081
     38 C           3.9884    1.0388   37.5251 C.3     1  UNL1        0.0938
     39 C           1.5957    2.7070   38.9204 C.3     1  UNL1        0.0188
     40 C           2.5185    3.1596   37.8279 C.3     1  UNL1        0.0722
@<TRIPOS>BOND
     1    39    40    1
     2    40    33    1
     3    33    34    1
     4    34    35    1
     5    35    36    1
     6    36    27    1
     7    27    28   ar
     8    28    29   ar
     9    29    30   ar
    10    30    25    1
    11    25     1    1
    12     1     2   ar
    13     2     3   ar
    14     3     7    1
    15     7     8    1
    16     7     9   am
    17     9    10    2
    18     9    11   am
    19    11    13    1
    20    13    14   ar
    21    14    15    1
    22    14    16   ar
    23    16    21    1
    24    21    22    1
    25    16    17   ar
    26    17    18   ar
    27    18    23    1
    28    23    24    1
    29    18    19   ar
    30    19    20    1
    31     3     4   ar
    32     4     5   ar
    33     5     6   ar
    34    30    31   ar
    35    31    32   ar
    36    36    37    1
    37    37    38    1
    38    38    33    1
    39    32    27   ar
    40     6     1   ar
    41    19    13   ar
    42    25    26    1
    43    11    12    1
@<TRIPOS>MOLECULE
*****
 40 43 0 0 0
SMALL
GASTEIGER

@<TRIPOS>ATOM
      1 C           4.8603   -1.7486   19.1082 C.ar    1  UNL1        0.1368
      2 C           5.9930   -2.0414   20.0471 C.ar    1  UNL1        0.0691
      3 C           6.3236   -3.4603   20.4040 C.ar    1  UNL1        0.1432
      4 N           5.5216   -4.5864   19.8221 N.ar    1  UNL1       -0.2085
      5 C           4.3890   -4.2937   18.8833 C.ar    1  UNL1        0.2012
      6 N           4.0583   -2.8748   18.5263 N.ar    1  UNL1       -0.2088
      7 N           7.4563   -3.7531   21.3429 N.am    1  UNL1       -0.2261
      8 C           8.8718   -3.5136   20.9081 C.3     1  UNL1        0.1231
      9 C           7.1734   -4.2852   22.7164 C.2     1  UNL1        0.3126
     10 O           5.7579   -4.5247   23.1512 O.2     1  UNL1       -0.2519
     11 N           8.3060   -4.5780   23.6552 N.am    1  UNL1       -0.2663
     12 H           9.2351   -4.4208   23.3699 H       1  UNL1        0.1565
     13 C           8.0232   -5.1102   25.0289 C.ar    1  UNL1        0.0788
     14 C           7.8162   -4.1621   26.1726 C.ar    1  UNL1        0.1060
     15 CL          7.8921   -2.6817   25.9428 Cl      1  UNL1       -0.0777
     16 C           7.5334   -4.6943   27.5462 C.ar    1  UNL1        0.1535
     17 C           7.4576   -6.1747   27.7760 C.ar    1  UNL1        0.0756
     18 C           7.6645   -7.1228   26.6322 C.ar    1  UNL1        0.1535
     19 C           7.9473   -6.5906   25.2587 C.ar    1  UNL1        0.1060
     20 CL          8.1543   -7.5387   24.1149 Cl      1  UNL1       -0.0777
     21 O           7.3264   -3.7462   28.6900 O.3     1  UNL1       -0.4704
     22 C           6.8887   -4.2676   30.0266 C.3     1  UNL1        0.2525
     23 O           7.5887   -8.6031   26.8621 O.3     1  UNL1       -0.4704
     24 C           8.6584   -9.2950   27.6538 C.3     1  UNL1        0.2525
     25 N           4.5297   -0.3298   18.7512 N.pl3   1  UNL1       -0.2978
     26 H           5.0867    0.1570   18.1016 H       1  UNL1        0.1536
     27 C           0.9917    1.7021   20.6498 C.ar    1  UNL1        0.0480
     28 C           2.3016    1.6412   21.3781 C.ar    1  UNL1        0.0158
     29 C           3.4809    0.9639   20.7453 C.ar    1  UNL1        0.0159
     30 C           3.3504    0.3475   19.3841 C.ar    1  UNL1        0.0494
     31 C           2.0405    0.4084   18.6557 C.ar    1  UNL1        0.0159
     32 C           0.8612    1.0857   19.2886 C.ar    1  UNL1        0.0158
     33 N          -2.5462    3.7339   22.5483 N.3     1  UNL1       -0.2698
     34 C          -2.5700    3.3970   21.0869 C.3     1  UNL1        0.0938
     35 C          -1.3907    2.7197   20.4540 C.3     1  UNL1        0.1081
     36 N          -0.1876    2.3794   21.2826 N.pl3   1  UNL1       -0.3046
     37 C          -0.1638    2.7163   22.7441 C.3     1  UNL1        0.1081
     38 C          -1.3431    3.3936   23.3769 C.3     1  UNL1        0.0938
     39 C          -4.5547    3.6807   24.1954 C.3     1  UNL1        0.0188
     40 C          -3.7256    4.4112   23.1811 C.3     1  UNL1        0.0722
@<TRIPOS>BOND
     1    39    40    1
     2    40    33    1
     3    33    34    1
     4    34    35    1
     5    35    36    1
     6    36    27    1
     7    27    28   ar
     8    28    29   ar
     9    29    30   ar
    10    30    25    1
    11    25     1    1
    12     1     2   ar
    13     2     3   ar
    14     3     7    1
    15     7     8    1
    16     7     9   am
    17     9    10    2
    18     9    11   am
    19    11    13    1
    20    13    14   ar
    21    14    15    1
    22    14    16   ar
    23    16    21    1
    24    21    22    1
    25    16    17   ar
    26    17    18   ar
    27    18    23    1
    28    23    24    1
    29    18    19   ar
    30    19    20    1
    31     3     4   ar
    32     4     5   ar
    33     5     6   ar
    34    30    31   ar
    35    31    32   ar
    36    36    37    1
    37    37    38    1
    38    38    33    1
    39    32    27   ar
    40     6     1   ar
    41    19    13   ar
    42    25    26    1
    43    11    12    1
@<TRIPOS>MOLECULE
*****
 40 43 0 0 0
SMALL
GASTEIGER

@<TRIPOS>ATOM
      1 C           6.8168   -3.9194   30.1472 C.ar    1  UNL1        0.1368
      2 C           6.5092   -2.6231   29.4577 C.ar    1  UNL1        0.0691
      3 C           6.3002   -2.5946   27.9727 C.ar    1  UNL1        0.1432
      4 N           6.3986   -3.8623   27.1770 N.ar    1  UNL1       -0.2085
      5 C           6.7061   -5.1586   27.8663 C.ar    1  UNL1        0.2012
      6 N           6.9152   -5.1871   29.3514 N.ar    1  UNL1       -0.2088
      7 N           5.9926   -1.2984   27.2833 N.am    1  UNL1       -0.2261
      8 C           7.1048   -0.3594   26.9209 C.3     1  UNL1        0.1231
      9 C           4.5730   -0.9412   26.9563 C.2     1  UNL1        0.3126
     10 O           3.4608   -1.8802   27.3187 O.2     1  UNL1       -0.2519
     11 N           4.2655    0.3550   26.2669 N.am    1  UNL1       -0.2663
     12 H           4.9955    0.9713   26.0291 H       1  UNL1        0.1565
     13 C           2.8458    0.7123   25.9399 C.ar    1  UNL1        0.0788
     14 C           2.3776    0.6965   24.5150 C.ar    1  UNL1        0.1060
     15 CL          3.3291    0.3235   23.4170 Cl      1  UNL1       -0.0777
     16 C           0.9580    1.0538   24.1880 C.ar    1  UNL1        0.1535
     17 C           0.0065    1.4268   25.2860 C.ar    1  UNL1        0.0756
     18 C           0.4747    1.4426   26.7109 C.ar    1  UNL1        0.1535
     19 C           1.8944    1.0853   27.0379 C.ar    1  UNL1        0.1060
     20 CL          2.3626    1.1011   28.4629 Cl      1  UNL1       -0.0777
     21 O           0.4897    1.0380   22.7630 O.3     1  UNL1       -0.4704
     22 C           0.0686    2.3147   22.0978 C.3     1  UNL1        0.2525
     23 O          -0.4767    1.8156   27.8089 O.3     1  UNL1       -0.4704
     24 C          -1.3155    0.7595   28.4655 C.3     1  UNL1        0.2525
     25 N           7.0259   -3.9478   31.6322 N.pl3   1  UNL1       -0.2978
     26 H           7.5899   -4.6461   32.0366 H       1  UNL1        0.1536
     27 C           5.0752   -0.8416   34.2391 C.ar    1  UNL1        0.0480
     28 C           6.5067   -0.6788   33.8217 C.ar    1  UNL1        0.0158
     29 C           7.1569   -1.7143   32.9527 C.ar    1  UNL1        0.0159
     30 C           6.3756   -2.9124   32.5012 C.ar    1  UNL1        0.0494
     31 C           4.9441   -3.0751   32.9185 C.ar    1  UNL1        0.0159
     32 C           4.2939   -2.0397   33.7875 C.ar    1  UNL1        0.0158
     33 N           3.1245    2.2647   36.8459 N.3     1  UNL1       -0.2698
     34 C           3.8985    1.1412   37.4692 C.3     1  UNL1        0.0938
     35 C           4.5488    0.1058   36.6003 C.3     1  UNL1        0.1081
     36 N           4.4249    0.1939   35.1080 N.pl3   1  UNL1       -0.3046
     37 C           3.6509    1.3173   34.4847 C.3     1  UNL1        0.1081
     38 C           3.0006    2.3528   35.3537 C.3     1  UNL1        0.0938
     39 C           1.6785    4.4090   37.0928 C.3     1  UNL1        0.0188
     40 C           2.4742    3.3001   37.7149 C.3     1  UNL1        0.0722
@<TRIPOS>BOND
     1    39    40    1
     2    40    33    1
     3    33    34    1
     4    34    35    1
     5    35    36    1
     6    36    27    1
     7    27    28   ar
     8    28    29   ar
     9    29    30   ar
    10    30    25    1
    11    25     1    1
    12     1     2   ar
    13     2     3   ar
    14     3     7    1
    15     7     8    1
    16     7     9   am
    17     9    10    2
    18     9    11   am
    19    11    13    1
    20    13    14   ar
    21    14    15    1
    22    14    16   ar
    23    16    21    1
    24    21    22    1
    25    16    17   ar
    26    17    18   ar
    27    18    23    1
    28    23    24    1
    29    18    19   ar
    30    19    20    1
    31     3     4   ar
    32     4     5   ar
    33     5     6   ar
    34    30    31   ar
    35    31    32   ar
    36    36    37    1
    37    37    38    1
    38    38    33    1
    39    32    27   ar
    40     6     1   ar
    41    19    13   ar
    42    25    26    1
    43    11    12    1
@<TRIPOS>MOLECULE
*****
 40 43 0 0 0
SMALL
GASTEIGER

@<TRIPOS>ATOM
      1 C           3.9824   -2.1567   19.1078 C.ar    1  UNL1        0.1368
      2 C           5.0692   -2.1270   20.1413 C.ar    1  UNL1        0.0691
      3 C           5.5161   -3.4002   20.7965 C.ar    1  UNL1        0.1432
      4 N           4.8762   -4.7031   20.4183 N.ar    1  UNL1       -0.2085
      5 C           3.7894   -4.7328   19.3848 C.ar    1  UNL1        0.2012
      6 N           3.3425   -3.4596   18.7295 N.ar    1  UNL1       -0.2088
      7 N           6.6029   -3.3705   21.8300 N.am    1  UNL1       -0.2261
      8 C           8.0397   -3.4675   21.4104 C.3     1  UNL1        0.1231
      9 C           6.2528   -3.2438   23.2830 C.2     1  UNL1        0.3126
     10 O           4.8160   -3.1468   23.7027 O.2     1  UNL1       -0.2519
     11 N           7.3396   -3.2141   24.3164 N.am    1  UNL1       -0.2663
     12 H           8.2826   -3.2778   24.0410 H       1  UNL1        0.1565
     13 C           6.9896   -3.0874   25.7696 C.ar    1  UNL1        0.0788
     14 C           6.7972   -4.3184   26.6048 C.ar    1  UNL1        0.1060
     15 CL          6.9549   -5.6761   25.9869 Cl      1  UNL1       -0.0777
     16 C           6.4472   -4.1917   28.0578 C.ar    1  UNL1        0.1535
     17 C           6.2896   -2.8339   28.6756 C.ar    1  UNL1        0.0756
     18 C           6.4819   -1.6030   27.8404 C.ar    1  UNL1        0.1535
     19 C           6.8319   -1.7297   26.3874 C.ar    1  UNL1        0.1060
     20 CL          7.0243   -0.4987   25.5521 Cl      1  UNL1       -0.0777
     21 O           6.2548   -5.4227   28.8931 O.3     1  UNL1       -0.4704
     22 C           6.9419   -5.5429   30.2210 C.3     1  UNL1        0.2525
     23 O           6.3242   -0.2452   28.4583 O.3     1  UNL1       -0.4704
     24 C           4.9687    0.3928   28.5311 C.3     1  UNL1        0.2525
     25 N           3.5355   -0.8836   18.4526 N.pl3   1  UNL1       -0.2978
     26 H           3.9361   -0.6027   17.5982 H       1  UNL1        0.1536
     27 C           0.3638    1.6521   20.3919 C.ar    1  UNL1        0.0480
     28 C           0.5303    0.2180   20.7988 C.ar    1  UNL1        0.0158
     29 C           1.5875   -0.6272   20.1524 C.ar    1  UNL1        0.0159
     30 C           2.4783   -0.0384   19.0990 C.ar    1  UNL1        0.0494
     31 C           2.3119    1.3957   18.6920 C.ar    1  UNL1        0.0159
     32 C           1.2546    2.2410   19.3385 C.ar    1  UNL1        0.0158
     33 N          -2.8078    4.1878   22.3312 N.3     1  UNL1       -0.2698
     34 C          -1.6322    3.7138   23.1332 C.3     1  UNL1        0.0938
     35 C          -0.5750    2.8686   22.4868 C.3     1  UNL1        0.1081
     36 N          -0.6934    2.4973   21.0383 N.pl3   1  UNL1       -0.3046
     37 C          -1.8689    2.9714   20.2363 C.3     1  UNL1        0.1081
     38 C          -2.9261    3.8166   20.8827 C.3     1  UNL1        0.0938
     39 C          -5.1956    4.4341   23.3250 C.3     1  UNL1        0.0188
     40 C          -3.8650    5.0330   22.9776 C.3     1  UNL1        0.0722
@<TRIPOS>BOND
     1    39    40    1
     2    40    33    1
     3    33    34    1
     4    34    35    1
     5    35    36    1
     6    36    27    1
     7    27    28   ar
     8    28    29   ar
     9    29    30   ar
    10    30    25    1
    11    25     1    1
    12     1     2   ar
    13     2     3   ar
    14     3     7    1
    15     7     8    1
    16     7     9   am
    17     9    10    2
    18     9    11   am
    19    11    13    1
    20    13    14   ar
    21    14    15    1
    22    14    16   ar
    23    16    21    1
    24    21    22    1
    25    16    17   ar
    26    17    18   ar
    27    18    23    1
    28    23    24    1
    29    18    19   ar
    30    19    20    1
    31     3     4   ar
    32     4     5   ar
    33     5     6   ar
    34    30    31   ar
    35    31    32   ar
    36    36    37    1
    37    37    38    1
    38    38    33    1
    39    32    27   ar
    40     6     1   ar
    41    19    13   ar
    42    25    26    1
    43    11    12    1
@<TRIPOS>MOLECULE
*****
 40 43 0 0 0
SMALL
GASTEIGER

@<TRIPOS>ATOM
      1 C           6.0196   -3.7933   20.4108 C.ar    1  UNL1        0.1368
      2 C           5.7013   -2.3315   20.3012 C.ar    1  UNL1        0.0691
      3 C           4.4982   -1.8819   19.5265 C.ar    1  UNL1        0.1432
      4 N           3.6133   -2.8940   18.8612 N.ar    1  UNL1       -0.2085
      5 C           3.9315   -4.3557   18.9707 C.ar    1  UNL1        0.2012
      6 N           5.1347   -4.8054   19.7456 N.ar    1  UNL1       -0.2088
      7 N           4.1800   -0.4201   19.4169 N.am    1  UNL1       -0.2261
      8 C           5.0995    0.4931   18.6614 C.3     1  UNL1        0.1231
      9 C           2.9423    0.1285   20.0628 C.2     1  UNL1        0.3126
     10 O           2.0229   -0.7846   20.8183 O.2     1  UNL1       -0.2519
     11 N           2.6242    1.5902   19.9532 N.am    1  UNL1       -0.2663
     12 H           3.2277    2.1896   19.4573 H       1  UNL1        0.1565
     13 C           1.3865    2.1389   20.5991 C.ar    1  UNL1        0.0788
     14 C           0.1916    2.4821   19.7598 C.ar    1  UNL1        0.1060
     15 CL          0.2344    2.2767   18.2745 Cl      1  UNL1       -0.0777
     16 C          -1.0460    3.0308   20.4057 C.ar    1  UNL1        0.1535
     17 C          -1.0888    3.2362   21.8910 C.ar    1  UNL1        0.0756
     18 C           0.1061    2.8929   22.7303 C.ar    1  UNL1        0.1535
     19 C           1.3437    2.3443   22.0844 C.ar    1  UNL1        0.1060
     20 CL          2.5386    2.0010   22.9237 Cl      1  UNL1       -0.0777
     21 O          -2.2409    3.3740   19.5664 O.3     1  UNL1       -0.4704
     22 C          -3.5981    3.4709   20.1977 C.3     1  UNL1        0.2525
     23 O           0.0633    3.0983   24.2155 O.3     1  UNL1       -0.4704
     24 C          -1.2262    2.9191   24.9606 C.3     1  UNL1        0.2525
     25 N           7.2227   -4.2429   21.1856 N.pl3   1  UNL1       -0.2978
     26 H           8.0467   -4.4981   20.7110 H       1  UNL1        0.1536
     27 C           7.0660   -4.4254   25.6791 C.ar    1  UNL1        0.0480
     28 C           6.2657   -3.3928   24.9421 C.ar    1  UNL1        0.0158
     29 C           6.3180   -3.3320   23.4442 C.ar    1  UNL1        0.0159
     30 C           7.1705   -4.3038   22.6834 C.ar    1  UNL1        0.0494
     31 C           7.9707   -5.3364   23.4205 C.ar    1  UNL1        0.0159
     32 C           7.9185   -5.3972   24.9183 C.ar    1  UNL1        0.0158
     33 N           6.9093   -4.6080   30.1727 N.3     1  UNL1       -0.2698
     34 C           6.6586   -3.3091   29.4656 C.3     1  UNL1        0.0938
     35 C           6.7109   -3.2482   27.9678 C.3     1  UNL1        0.1081
     36 N           7.0137   -4.4863   27.1770 N.pl3   1  UNL1       -0.3046
     37 C           7.2644   -5.7852   27.8840 C.3     1  UNL1        0.1081
     38 C           7.2121   -5.8460   29.3819 C.3     1  UNL1        0.0938
     39 C           6.3341   -3.4994   32.4509 C.3     1  UNL1        0.0188
     40 C           6.8570   -4.6688   31.6705 C.3     1  UNL1        0.0722
@<TRIPOS>BOND
     1    39    40    1
     2    40    33    1
     3    33    34    1
     4    34    35    1
     5    35    36    1
     6    36    27    1
     7    27    28   ar
     8    28    29   ar
     9    29    30   ar
    10    30    25    1
    11    25     1    1
    12     1     2   ar
    13     2     3   ar
    14     3     7    1
    15     7     8    1
    16     7     9   am
    17     9    10    2
    18     9    11   am
    19    11    13    1
    20    13    14   ar
    21    14    15    1
    22    14    16   ar
    23    16    21    1
    24    21    22    1
    25    16    17   ar
    26    17    18   ar
    27    18    23    1
    28    23    24    1
    29    18    19   ar
    30    19    20    1
    31     3     4   ar
    32     4     5   ar
    33     5     6   ar
    34    30    31   ar
    35    31    32   ar
    36    36    37    1
    37    37    38    1
    38    38    33    1
    39    32    27   ar
    40     6     1   ar
    41    19    13   ar
    42    25    26    1
    43    11    12    1
@<TRIPOS>MOLECULE
*****
 40 43 0 0 0
SMALL
GASTEIGER

@<TRIPOS>ATOM
      1 C           1.0759    1.4912   25.8756 C.ar    1  UNL1        0.1368
      2 C           1.0170    1.0321   24.4487 C.ar    1  UNL1        0.0691
      3 C           1.6322    1.8681   23.3659 C.ar    1  UNL1        0.1432
      4 N           2.3064    3.1632   23.7098 N.ar    1  UNL1       -0.2085
      5 C           2.3654    3.6223   25.1365 C.ar    1  UNL1        0.2012
      6 N           1.7501    2.7863   26.2195 N.ar    1  UNL1       -0.2088
      7 N           1.5733    1.4090   21.9390 N.am    1  UNL1       -0.2261
      8 C           0.3369    1.6493   21.1243 C.3     1  UNL1        0.1231
      9 C           2.7506    0.7096   21.3269 C.2     1  UNL1        0.3126
     10 O           3.9869    0.4693   22.1416 O.2     1  UNL1       -0.2519
     11 N           2.6916    0.2505   19.9002 N.am    1  UNL1       -0.2663
     12 H           1.8802    0.4083   19.3655 H       1  UNL1        0.1565
     13 C           3.8690   -0.4489   19.2880 C.ar    1  UNL1        0.0788
     14 C           4.1431   -1.8859   19.6192 C.ar    1  UNL1        0.1060
     15 CL          3.2399   -2.6236   20.5626 Cl      1  UNL1       -0.0777
     16 C           5.3204   -2.5852   19.0071 C.ar    1  UNL1        0.1535
     17 C           6.2237   -1.8475   18.0637 C.ar    1  UNL1        0.0756
     18 C           5.9496   -0.4105   17.7325 C.ar    1  UNL1        0.1535
     19 C           4.7723    0.2888   18.3446 C.ar    1  UNL1        0.1060
     20 CL          4.4981    1.7259   18.0134 Cl      1  UNL1       -0.0777
     21 O           5.5946   -4.0224   19.3383 O.3     1  UNL1       -0.4704
     22 C           4.7449   -5.1048   18.7416 C.3     1  UNL1        0.2525
     23 O           6.8528    0.3272   16.7891 O.3     1  UNL1       -0.4704
     24 C           7.9782    1.1609   17.3261 C.3     1  UNL1        0.2525
     25 N           0.4607    0.6552   26.9584 N.pl3   1  UNL1       -0.2978
     26 H          -0.3885    0.1849   26.7947 H       1  UNL1        0.1536
     27 C           2.4968    0.2971   30.9554 C.ar    1  UNL1        0.0480
     28 C           2.8778   -0.6239   29.8344 C.ar    1  UNL1        0.0158
     29 C           2.1991   -0.5045   28.5021 C.ar    1  UNL1        0.0159
     30 C           1.1394    0.5359   28.2908 C.ar    1  UNL1        0.0494
     31 C           0.7585    1.4568   29.4118 C.ar    1  UNL1        0.0159
     32 C           1.4372    1.3374   30.7441 C.ar    1  UNL1        0.0158
     33 N           4.5329   -0.0611   34.9524 N.3     1  UNL1       -0.2698
     34 C           3.7877    1.1920   34.6000 C.3     1  UNL1        0.0938
     35 C           3.1090    1.3114   33.2677 C.3     1  UNL1        0.1081
     36 N           3.1755    0.1777   32.2878 N.pl3   1  UNL1       -0.3046
     37 C           3.9208   -1.0755   32.6402 C.3     1  UNL1        0.1081
     38 C           4.5995   -1.1949   33.9726 C.3     1  UNL1        0.0938
     39 C           4.8527    0.7605   37.3963 C.3     1  UNL1        0.0188
     40 C           5.2116   -0.1805   36.2848 C.3     1  UNL1        0.0722
@<TRIPOS>BOND
     1    39    40    1
     2    40    33    1
     3    33    34    1
     4    34    35    1
     5    35    36    1
     6    36    27    1
     7    27    28   ar
     8    28    29   ar
     9    29    30   ar
    10    30    25    1
    11    25     1    1
    12     1     2   ar
    13     2     3   ar
    14     3     7    1
    15     7     8    1
    16     7     9   am
    17     9    10    2
    18     9    11   am
    19    11    13    1
    20    13    14   ar
    21    14    15    1
    22    14    16   ar
    23    16    21    1
    24    21    22    1
    25    16    17   ar
    26    17    18   ar
    27    18    23    1
    28    23    24    1
    29    18    19   ar
    30    19    20    1
    31     3     4   ar
    32     4     5   ar
    33     5     6   ar
    34    30    31   ar
    35    31    32   ar
    36    36    37    1
    37    37    38    1
    38    38    33    1
    39    32    27   ar
    40     6     1   ar
    41    19    13   ar
    42    25    26    1
    43    11    12    1
@<TRIPOS>MOLECULE
*****
 40 43 0 0 0
SMALL
GASTEIGER

@<TRIPOS>ATOM
      1 C           4.0092   -2.1689   19.0481 C.ar    1  UNL1        0.1368
      2 C           5.0957   -2.1070   20.0804 C.ar    1  UNL1        0.0691
      3 C           5.5764   -3.3657   20.7396 C.ar    1  UNL1        0.1432
      4 N           4.9707   -4.6863   20.3665 N.ar    1  UNL1       -0.2085
      5 C           3.8842   -4.7481   19.3342 C.ar    1  UNL1        0.2012
      6 N           3.4034   -3.4894   18.6750 N.ar    1  UNL1       -0.2088
      7 N           6.6630   -3.3038   21.7720 N.am    1  UNL1       -0.2261
      8 C           8.1018   -3.3265   21.3487 C.3     1  UNL1        0.1231
      9 C           6.3106   -3.2194   23.2276 C.2     1  UNL1        0.3126
     10 O           4.8717   -3.1968   23.6508 O.2     1  UNL1       -0.2519
     11 N           7.3971   -3.1575   24.2598 N.am    1  UNL1       -0.2663
     12 H           8.3415   -3.1724   23.9820 H       1  UNL1        0.1565
     13 C           7.0448   -3.0731   25.7155 C.ar    1  UNL1        0.0788
     14 C           6.8308   -1.7351   26.3589 C.ar    1  UNL1        0.1060
     15 CL          6.9692   -0.4816   25.5468 Cl      1  UNL1       -0.0777
     16 C           6.4785   -1.6507   27.8145 C.ar    1  UNL1        0.1535
     17 C           6.3402   -2.9043   28.6266 C.ar    1  UNL1        0.0756
     18 C           6.5541   -4.2422   27.9831 C.ar    1  UNL1        0.1535
     19 C           6.9064   -4.3266   26.5276 C.ar    1  UNL1        0.1060
     20 CL          7.1204   -5.6646   25.8840 Cl      1  UNL1       -0.0777
     21 O           6.2646   -0.3127   28.4580 O.3     1  UNL1       -0.4704
     22 C           6.5085   -0.1399   29.9279 C.3     1  UNL1        0.2525
     23 O           6.4158   -5.4957   28.7952 O.3     1  UNL1       -0.4704
     24 C           6.8323   -5.5057   30.2362 C.3     1  UNL1        0.2525
     25 N           3.5284   -0.9102   18.3889 N.pl3   1  UNL1       -0.2978
     26 H           3.8966   -0.6397   17.5168 H       1  UNL1        0.1536
     27 C           0.4034    1.6295   20.3973 C.ar    1  UNL1        0.0480
     28 C           0.5417    0.1814   20.7632 C.ar    1  UNL1        0.0158
     29 C           1.5834   -0.6651   20.0937 C.ar    1  UNL1        0.0159
     30 C           2.4867   -0.0636   19.0584 C.ar    1  UNL1        0.0494
     31 C           2.3484    1.3844   18.6925 C.ar    1  UNL1        0.0159
     32 C           1.3067    2.2310   19.3620 C.ar    1  UNL1        0.0158
     33 N          -2.7217    4.1692   22.4058 N.3     1  UNL1       -0.2698
     34 C          -2.8503    3.8338   20.9495 C.3     1  UNL1        0.0938
     35 C          -1.8086    2.9872   20.2800 C.3     1  UNL1        0.1081
     36 N          -0.6383    2.4761   21.0668 N.pl3   1  UNL1       -0.3046
     37 C          -0.5097    2.8115   22.5231 C.3     1  UNL1        0.1081
     38 C          -1.5514    3.6580   23.1926 C.3     1  UNL1        0.0938
     39 C          -4.3572    4.5805   24.3821 C.3     1  UNL1        0.0188
     40 C          -3.7634    5.0158   23.0753 C.3     1  UNL1        0.0722
@<TRIPOS>BOND
     1    39    40    1
     2    40    33    1
     3    33    34    1
     4    34    35    1
     5    35    36    1
     6    36    27    1
     7    27    28   ar
     8    28    29   ar
     9    29    30   ar
    10    30    25    1
    11    25     1    1
    12     1     2   ar
    13     2     3   ar
    14     3     7    1
    15     7     8    1
    16     7     9   am
    17     9    10    2
    18     9    11   am
    19    11    13    1
    20    13    14   ar
    21    14    15    1
    22    14    16   ar
    23    16    21    1
    24    21    22    1
    25    16    17   ar
    26    17    18   ar
    27    18    23    1
    28    23    24    1
    29    18    19   ar
    30    19    20    1
    31     3     4   ar
    32     4     5   ar
    33     5     6   ar
    34    30    31   ar
    35    31    32   ar
    36    36    37    1
    37    37    38    1
    38    38    33    1
    39    32    27   ar
    40     6     1   ar
    41    19    13   ar
    42    25    26    1
    43    11    12    1
