@<TRIPOS>MOLECULE
*****
 24 26 0 0 0
SMALL
GASTEIGER

@<TRIPOS>ATOM
      1 N          -7.7607  -20.3154   22.4819 N.pl3   1  UNL1       -0.2150
      2 H          -7.8441  -21.1569   22.9860 H       1  UNL1        0.1737
      3 C          -6.4323  -19.9083   21.9163 C.ar    1  UNL1        0.0648
      4 C          -5.7086  -18.7220   22.4808 C.ar    1  UNL1        0.0160
      5 C          -4.3803  -18.3151   21.9152 C.ar    1  UNL1        0.0044
      6 C          -3.7758  -19.0944   20.7851 C.ar    1  UNL1        0.0363
      7 C          -4.4995  -20.2807   20.2206 C.ar    1  UNL1        0.0044
      8 C          -5.8278  -20.6877   20.7862 C.ar    1  UNL1        0.0160
      9 C          -2.4474  -18.6874   20.2195 C.ar    1  UNL1        0.1664
     10 C          -2.1801  -18.2832   18.7999 C.ar    1  UNL1        0.1396
     11 N          -0.7207  -17.9591   18.6772 N.ar    1  UNL1       -0.2026
     12 C          -0.0860  -18.1630   20.0210 C.ar    1  UNL1        0.2851
     13 O          -1.1532  -18.6131   20.9741 O.2     1  UNL1       -0.4311
     14 O          -9.1989  -19.4228   23.7605 O.2     1  UNL1       -0.1499
     15 S          -8.9620  -19.4402   22.2795 S.O2    1  UNL1        0.0736
     16 O          -8.7251  -19.4576   20.7985 O.2     1  UNL1       -0.1499
     17 C         -10.1633  -18.5650   22.0770 C.ar    1  UNL1        0.1268
     18 C         -10.2117  -17.6141   20.9179 C.ar    1  UNL1        0.0316
     19 C         -11.4129  -16.7390   20.7154 C.ar    1  UNL1        0.0599
     20 CL        -11.4613  -15.7881   19.5563 Cl      1  UNL1       -0.0822
     21 C         -12.5658  -16.8147   21.6719 C.ar    1  UNL1        0.0229
     22 C         -12.5175  -17.7656   22.8310 C.ar    1  UNL1        0.0599
     23 CL        -13.6704  -17.8413   23.7876 Cl      1  UNL1       -0.0822
     24 C         -11.3162  -18.6408   23.0335 C.ar    1  UNL1        0.0316
@<TRIPOS>BOND
     1    14    15    2
     2    15    16    2
     3    15     1    1
     4     1     3    1
     5     3     4   ar
     6     4     5   ar
     7     5     6   ar
     8     6     9    1
     9     9    10   ar
    10    10    11   ar
    11    11    12   ar
    12    12    13   ar
    13     6     7   ar
    14     7     8   ar
    15    15    17    1
    16    17    18   ar
    17    18    19   ar
    18    19    20    1
    19    19    21   ar
    20    21    22   ar
    21    22    23    1
    22    22    24   ar
    23     8     3   ar
    24    24    17   ar
    25    13     9   ar
    26     1     2    1
@<TRIPOS>MOLECULE
*****
 24 26 0 0 0
SMALL
GASTEIGER

@<TRIPOS>ATOM
      1 N          -7.7634  -20.3236   22.4647 N.pl3   1  UNL1       -0.2150
      2 H          -7.8443  -21.1652   22.9690 H       1  UNL1        0.1737
      3 C          -6.4360  -19.9124   21.8997 C.ar    1  UNL1        0.0648
      4 C          -5.8207  -20.6998   20.7811 C.ar    1  UNL1        0.0160
      5 C          -4.4934  -20.2886   20.2162 C.ar    1  UNL1        0.0044
      6 C          -3.7814  -19.0901   20.7699 C.ar    1  UNL1        0.0363
      7 C          -4.3966  -18.3028   21.8886 C.ar    1  UNL1        0.0044
      8 C          -5.7239  -18.7140   22.4535 C.ar    1  UNL1        0.0160
      9 C          -2.4540  -18.6790   20.2049 C.ar    1  UNL1        0.1664
     10 C          -2.1861  -18.2794   18.7842 C.ar    1  UNL1        0.1396
     11 N          -0.7281  -17.9488   18.6626 N.ar    1  UNL1       -0.2026
     12 C          -0.0948  -18.1440   20.0084 C.ar    1  UNL1        0.2851
     13 O          -1.1615  -18.5953   20.9615 O.2     1  UNL1       -0.4311
     14 O          -9.2080  -19.4394   23.7418 O.2     1  UNL1       -0.1499
     15 S          -8.9673  -19.4523   22.2614 S.O2    1  UNL1        0.0736
     16 O          -8.7266  -19.4653   20.7809 O.2     1  UNL1       -0.1499
     17 C         -10.1713  -18.5811   22.0579 C.ar    1  UNL1        0.1268
     18 C         -11.3224  -18.6566   23.0168 C.ar    1  UNL1        0.0316
     19 C         -12.5263  -17.7854   22.8134 C.ar    1  UNL1        0.0599
     20 CL        -13.6774  -17.8609   23.7723 Cl      1  UNL1       -0.0822
     21 C         -12.5793  -16.8387   21.6512 C.ar    1  UNL1        0.0229
     22 C         -11.4282  -16.7631   20.6923 C.ar    1  UNL1        0.0599
     23 CL        -11.4812  -15.8163   19.5301 Cl      1  UNL1       -0.0822
     24 C         -10.2243  -17.6343   20.8957 C.ar    1  UNL1        0.0316
@<TRIPOS>BOND
     1    14    15    2
     2    15    16    2
     3    15     1    1
     4     1     3    1
     5     3     4   ar
     6     4     5   ar
     7     5     6   ar
     8     6     9    1
     9     9    10   ar
    10    10    11   ar
    11    11    12   ar
    12    12    13   ar
    13     6     7   ar
    14     7     8   ar
    15    15    17    1
    16    17    18   ar
    17    18    19   ar
    18    19    20    1
    19    19    21   ar
    20    21    22   ar
    21    22    23    1
    22    22    24   ar
    23     8     3   ar
    24    24    17   ar
    25    13     9   ar
    26     1     2    1
@<TRIPOS>MOLECULE
*****
 24 26 0 0 0
SMALL
GASTEIGER

@<TRIPOS>ATOM
      1 N          -7.2251  -20.1543   19.8805 N.pl3   1  UNL1       -0.2150
      2 H          -7.3380  -20.7569   19.1103 H       1  UNL1        0.1737
      3 C          -8.4088  -19.7875   20.7257 C.ar    1  UNL1        0.0648
      4 C          -8.2682  -19.7019   22.2166 C.ar    1  UNL1        0.0160
      5 C          -9.4520  -19.3351   23.0617 C.ar    1  UNL1        0.0044
      6 C         -10.7763  -19.0540   22.4159 C.ar    1  UNL1        0.0363
      7 C         -10.9169  -19.1397   20.9250 C.ar    1  UNL1        0.0044
      8 C          -9.7332  -19.5064   20.0799 C.ar    1  UNL1        0.0160
      9 C         -11.9601  -18.6873   23.2610 C.ar    1  UNL1        0.1664
     10 C         -13.1236  -17.8442   22.8304 C.ar    1  UNL1        0.1396
     11 N         -14.0708  -17.7350   23.9883 N.ar    1  UNL1       -0.2026
     12 C         -13.4927  -18.5107   25.1347 C.ar    1  UNL1        0.2851
     13 O         -12.1882  -19.0992   24.6852 O.2     1  UNL1       -0.4311
     14 O          -5.3121  -20.9950   20.2460 O.2     1  UNL1       -0.1499
     15 S          -5.8694  -19.6029   20.2090 S.O2    1  UNL1        0.0736
     16 O          -6.4266  -18.2107   20.1720 O.2     1  UNL1       -0.1499
     17 C          -4.5136  -19.0514   20.5375 C.ar    1  UNL1        0.1268
     18 C          -4.1485  -18.7577   21.9624 C.ar    1  UNL1        0.0316
     19 C          -2.7928  -18.2062   22.2909 C.ar    1  UNL1        0.0599
     20 CL         -2.4277  -17.9125   23.7159 Cl      1  UNL1       -0.0822
     21 C          -1.8022  -17.9485   21.1945 C.ar    1  UNL1        0.0229
     22 C          -2.1673  -18.2422   19.7696 C.ar    1  UNL1        0.0599
     23 CL         -1.1766  -17.9844   18.6731 Cl      1  UNL1       -0.0822
     24 C          -3.5230  -18.7936   19.4411 C.ar    1  UNL1        0.0316
@<TRIPOS>BOND
     1    14    15    2
     2    15    16    2
     3    15     1    1
     4     1     3    1
     5     3     4   ar
     6     4     5   ar
     7     5     6   ar
     8     6     9    1
     9     9    10   ar
    10    10    11   ar
    11    11    12   ar
    12    12    13   ar
    13     6     7   ar
    14     7     8   ar
    15    15    17    1
    16    17    18   ar
    17    18    19   ar
    18    19    20    1
    19    19    21   ar
    20    21    22   ar
    21    22    23    1
    22    22    24   ar
    23     8     3   ar
    24    24    17   ar
    25    13     9   ar
    26     1     2    1
@<TRIPOS>MOLECULE
*****
 24 26 0 0 0
SMALL
GASTEIGER

@<TRIPOS>ATOM
      1 N          -7.4380  -20.0181   19.8817 N.pl3   1  UNL1       -0.2150
      2 H          -7.5622  -20.5714   19.0769 H       1  UNL1        0.1737
      3 C          -8.6135  -19.6860   20.7523 C.ar    1  UNL1        0.0648
      4 C          -9.9100  -19.2585   20.1309 C.ar    1  UNL1        0.0160
      5 C         -11.0855  -18.9264   21.0015 C.ar    1  UNL1        0.0044
      6 C         -10.9644  -19.0219   22.4936 C.ar    1  UNL1        0.0363
      7 C          -9.6679  -19.4494   23.1150 C.ar    1  UNL1        0.0044
      8 C          -8.4925  -19.7815   22.2444 C.ar    1  UNL1        0.0160
      9 C         -12.1399  -18.6898   23.3642 C.ar    1  UNL1        0.1664
     10 C         -13.3791  -17.9629   22.9328 C.ar    1  UNL1        0.1396
     11 N         -14.2877  -17.8501   24.1210 N.ar    1  UNL1       -0.2026
     12 C         -13.6100  -18.5074   25.2867 C.ar    1  UNL1        0.2851
     13 O         -12.2827  -19.0263   24.8189 O.2     1  UNL1       -0.4311
     14 O          -6.6112  -18.1079   20.2910 O.2     1  UNL1       -0.1499
     15 S          -6.0733  -19.5071   20.2372 S.O2    1  UNL1        0.0736
     16 O          -5.5354  -20.9063   20.1835 O.2     1  UNL1       -0.1499
     17 C          -4.7085  -18.9961   20.5928 C.ar    1  UNL1        0.1268
     18 C          -3.6850  -18.7801   19.5177 C.ar    1  UNL1        0.0316
     19 C          -2.3203  -18.2692   19.8732 C.ar    1  UNL1        0.0599
     20 CL         -1.2968  -18.0531   18.7981 Cl      1  UNL1       -0.0822
     21 C          -1.9790  -17.9743   21.3037 C.ar    1  UNL1        0.0229
     22 C          -3.0025  -18.1903   22.3788 C.ar    1  UNL1        0.0599
     23 CL         -2.6612  -17.8954   23.8094 Cl      1  UNL1       -0.0822
     24 C          -4.3673  -18.7012   22.0233 C.ar    1  UNL1        0.0316
@<TRIPOS>BOND
     1    14    15    2
     2    15    16    2
     3    15     1    1
     4     1     3    1
     5     3     4   ar
     6     4     5   ar
     7     5     6   ar
     8     6     9    1
     9     9    10   ar
    10    10    11   ar
    11    11    12   ar
    12    12    13   ar
    13     6     7   ar
    14     7     8   ar
    15    15    17    1
    16    17    18   ar
    17    18    19   ar
    18    19    20    1
    19    19    21   ar
    20    21    22   ar
    21    22    23    1
    22    22    24   ar
    23     8     3   ar
    24    24    17   ar
    25    13     9   ar
    26     1     2    1
@<TRIPOS>MOLECULE
*****
 24 26 0 0 0
SMALL
GASTEIGER

@<TRIPOS>ATOM
      1 N          -8.2577  -19.0648   20.0175 N.pl3   1  UNL1       -0.2150
      2 H          -8.4341  -19.2249   19.0623 H       1  UNL1        0.1737
      3 C          -9.4002  -18.9578   20.9836 C.ar    1  UNL1        0.0648
      4 C         -10.5654  -18.0663   20.6714 C.ar    1  UNL1        0.0160
      5 C         -11.7078  -17.9593   21.6375 C.ar    1  UNL1        0.0044
      6 C         -11.6850  -18.7438   22.9158 C.ar    1  UNL1        0.0363
      7 C         -10.5198  -19.6353   23.2280 C.ar    1  UNL1        0.0044
      8 C          -9.3774  -19.7423   22.2620 C.ar    1  UNL1        0.0160
      9 C         -12.8275  -18.6368   23.8819 C.ar    1  UNL1        0.1664
     10 C         -12.7550  -18.8680   25.3623 C.ar    1  UNL1        0.1396
     11 N         -14.1257  -18.6539   25.9326 N.ar    1  UNL1       -0.2026
     12 C         -15.0454  -18.2903   24.8047 C.ar    1  UNL1        0.2851
     13 O         -14.2431  -18.2798   23.5374 O.2     1  UNL1       -0.4311
     14 O          -6.5251  -20.2875   19.9607 O.2     1  UNL1       -0.1499
     15 S          -6.8464  -18.9279   20.5068 S.O2    1  UNL1        0.0736
     16 O          -7.1676  -17.5683   21.0530 O.2     1  UNL1       -0.1499
     17 C          -5.4350  -18.7909   20.9962 C.ar    1  UNL1        0.1268
     18 C          -5.1694  -18.4184   22.4247 C.ar    1  UNL1        0.0316
     19 C          -3.7581  -18.2814   22.9141 C.ar    1  UNL1        0.0599
     20 CL         -3.4925  -17.9089   24.3426 Cl      1  UNL1       -0.0822
     21 C          -2.6125  -18.5169   21.9749 C.ar    1  UNL1        0.0229
     22 C          -2.8781  -18.8894   20.5464 C.ar    1  UNL1        0.0599
     23 CL         -1.7324  -19.1249   19.6072 Cl      1  UNL1       -0.0822
     24 C          -4.2894  -19.0264   20.0570 C.ar    1  UNL1        0.0316
@<TRIPOS>BOND
     1    14    15    2
     2    15    16    2
     3    15     1    1
     4     1     3    1
     5     3     4   ar
     6     4     5   ar
     7     5     6   ar
     8     6     9    1
     9     9    10   ar
    10    10    11   ar
    11    11    12   ar
    12    12    13   ar
    13     6     7   ar
    14     7     8   ar
    15    15    17    1
    16    17    18   ar
    17    18    19   ar
    18    19    20    1
    19    19    21   ar
    20    21    22   ar
    21    22    23    1
    22    22    24   ar
    23     8     3   ar
    24    24    17   ar
    25    13     9   ar
    26     1     2    1
@<TRIPOS>MOLECULE
*****
 24 26 0 0 0
SMALL
GASTEIGER

@<TRIPOS>ATOM
      1 N         -14.4486   -9.1006   18.8464 N.pl3   1  UNL1       -0.2150
      2 H         -13.8966   -9.9043   18.9829 H       1  UNL1        0.1737
      3 C         -13.7936   -7.7744   18.5970 C.ar    1  UNL1        0.0648
      4 C         -14.2427   -6.5615   19.3567 C.ar    1  UNL1        0.0160
      5 C         -13.5877   -5.2353   19.1073 C.ar    1  UNL1        0.0044
      6 C         -12.4836   -5.1221   18.0982 C.ar    1  UNL1        0.0363
      7 C         -12.0345   -6.3350   17.3386 C.ar    1  UNL1        0.0044
      8 C         -12.6895   -7.6612   17.5880 C.ar    1  UNL1        0.0160
      9 C         -11.8286   -3.7958   17.8489 C.ar    1  UNL1        0.1664
     10 C         -11.7165   -2.6690   18.8326 C.ar    1  UNL1        0.1396
     11 N         -10.9894   -1.5403   18.1638 N.ar    1  UNL1       -0.2026
     12 C         -10.6520   -1.9697   16.7666 C.ar    1  UNL1        0.2851
     13 O         -11.1707   -3.3636   16.5720 O.2     1  UNL1       -0.4311
     14 O         -15.8813   -9.5372   20.3486 O.2     1  UNL1       -0.1499
     15 S         -15.9445   -9.2023   18.8879 S.O2    1  UNL1        0.0736
     16 O         -16.0078   -8.8675   17.4271 O.2     1  UNL1       -0.1499
     17 C         -17.4406   -9.3040   18.9293 C.ar    1  UNL1        0.1268
     18 C         -18.1750  -10.0105   17.8286 C.ar    1  UNL1        0.0316
     19 C         -19.6710  -10.1122   17.8700 C.ar    1  UNL1        0.0599
     20 CL        -20.4054  -10.8188   16.7694 Cl      1  UNL1       -0.0822
     21 C         -20.4325   -9.5073   19.0120 C.ar    1  UNL1        0.0229
     22 C         -19.6980   -8.8008   20.1126 C.ar    1  UNL1        0.0599
     23 CL        -20.4596   -8.1959   21.2547 Cl      1  UNL1       -0.0822
     24 C         -18.2021   -8.6991   20.0713 C.ar    1  UNL1        0.0316
@<TRIPOS>BOND
     1    14    15    2
     2    15    16    2
     3    15     1    1
     4     1     3    1
     5     3     4   ar
     6     4     5   ar
     7     5     6   ar
     8     6     9    1
     9     9    10   ar
    10    10    11   ar
    11    11    12   ar
    12    12    13   ar
    13     6     7   ar
    14     7     8   ar
    15    15    17    1
    16    17    18   ar
    17    18    19   ar
    18    19    20    1
    19    19    21   ar
    20    21    22   ar
    21    22    23    1
    22    22    24   ar
    23     8     3   ar
    24    24    17   ar
    25    13     9   ar
    26     1     2    1
@<TRIPOS>MOLECULE
*****
 24 26 0 0 0
SMALL
GASTEIGER

@<TRIPOS>ATOM
      1 N         -14.0227   -8.5131   18.9628 N.pl3   1  UNL1       -0.2150
      2 H         -13.4162   -9.2080   19.3072 H       1  UNL1        0.1737
      3 C         -13.4656   -7.2180   18.4507 C.ar    1  UNL1        0.0648
      4 C         -12.5415   -6.4071   19.3100 C.ar    1  UNL1        0.0160
      5 C         -11.9844   -5.1120   18.7979 C.ar    1  UNL1        0.0044
      6 C         -12.3514   -4.6278   17.4265 C.ar    1  UNL1        0.0363
      7 C         -13.2755   -5.4386   16.5672 C.ar    1  UNL1        0.0044
      8 C         -13.8326   -6.7337   17.0793 C.ar    1  UNL1        0.0160
      9 C         -11.7942   -3.3326   16.9144 C.ar    1  UNL1        0.1664
     10 C         -10.3408   -2.9732   16.8219 C.ar    1  UNL1        0.1396
     11 N         -10.2410   -1.5880   16.2553 N.ar    1  UNL1       -0.2026
     12 C         -11.6327   -1.0912   15.9975 C.ar    1  UNL1        0.2851
     13 O         -12.5926   -2.1694   16.4048 O.2     1  UNL1       -0.4311
     14 O         -15.2915  -10.0403   18.2161 O.2     1  UNL1       -0.1499
     15 S         -15.5039   -8.7496   18.9502 S.O2    1  UNL1        0.0736
     16 O         -15.7162   -7.4589   19.6843 O.2     1  UNL1       -0.1499
     17 C         -16.9851   -8.9861   18.9376 C.ar    1  UNL1        0.1268
     18 C         -17.8306   -8.5085   20.0809 C.ar    1  UNL1        0.0316
     19 C         -19.3117   -8.7449   20.0683 C.ar    1  UNL1        0.0599
     20 CL        -20.1572   -8.2673   21.2116 Cl      1  UNL1       -0.0822
     21 C         -19.9474   -9.4589   18.9124 C.ar    1  UNL1        0.0229
     22 C         -19.1020   -9.9365   17.7691 C.ar    1  UNL1        0.0599
     23 CL        -19.7378  -10.6505   16.6132 Cl      1  UNL1       -0.0822
     24 C         -17.6208   -9.7000   17.7817 C.ar    1  UNL1        0.0316
@<TRIPOS>BOND
     1    14    15    2
     2    15    16    2
     3    15     1    1
     4     1     3    1
     5     3     4   ar
     6     4     5   ar
     7     5     6   ar
     8     6     9    1
     9     9    10   ar
    10    10    11   ar
    11    11    12   ar
    12    12    13   ar
    13     6     7   ar
    14     7     8   ar
    15    15    17    1
    16    17    18   ar
    17    18    19   ar
    18    19    20    1
    19    19    21   ar
    20    21    22   ar
    21    22    23    1
    22    22    24   ar
    23     8     3   ar
    24    24    17   ar
    25    13     9   ar
    26     1     2    1
@<TRIPOS>MOLECULE
*****
 24 26 0 0 0
SMALL
GASTEIGER

@<TRIPOS>ATOM
      1 N         -15.0616   -3.1707   20.1970 N.pl3   1  UNL1       -0.2150
      2 H         -15.4461   -2.6932   20.9673 H       1  UNL1        0.1737
      3 C         -15.5332   -4.5544   19.8607 C.ar    1  UNL1        0.0648
      4 C         -14.5360   -5.6473   19.6136 C.ar    1  UNL1        0.0160
      5 C         -15.0077   -7.0309   19.2773 C.ar    1  UNL1        0.0044
      6 C         -16.4766   -7.3216   19.1881 C.ar    1  UNL1        0.0363
      7 C         -17.4737   -6.2286   19.4352 C.ar    1  UNL1        0.0044
      8 C         -17.0021   -4.8450   19.7715 C.ar    1  UNL1        0.0160
      9 C         -16.9482   -8.7053   18.8518 C.ar    1  UNL1        0.1664
     10 C         -18.1662   -9.0503   18.0471 C.ar    1  UNL1        0.1396
     11 N         -18.2555  -10.5450   17.9590 N.ar    1  UNL1       -0.2026
     12 C         -17.0926  -11.1238   18.7094 C.ar    1  UNL1        0.2851
     13 O         -16.2848   -9.9867   19.2611 O.2     1  UNL1       -0.4311
     14 O         -15.0298   -2.1983   18.3120 O.2     1  UNL1       -0.1499
     15 S         -14.0040   -2.5146   19.3597 S.O2    1  UNL1        0.0736
     16 O         -12.9783   -2.8308   20.4074 O.2     1  UNL1       -0.1499
     17 C         -12.9464   -1.8585   18.5224 C.ar    1  UNL1        0.1268
     18 C         -13.0109   -0.3844   18.2524 C.ar    1  UNL1        0.0316
     19 C         -11.9534    0.2717   17.4151 C.ar    1  UNL1        0.0599
     20 CL        -12.0179    1.7458   17.1451 Cl      1  UNL1       -0.0822
     21 C         -10.8313   -0.5462   16.8479 C.ar    1  UNL1        0.0229
     22 C         -10.7667   -2.0203   17.1179 C.ar    1  UNL1        0.0599
     23 CL         -9.6446   -2.8383   16.5506 Cl      1  UNL1       -0.0822
     24 C         -11.8243   -2.6764   17.9552 C.ar    1  UNL1        0.0316
@<TRIPOS>BOND
     1    14    15    2
     2    15    16    2
     3    15     1    1
     4     1     3    1
     5     3     4   ar
     6     4     5   ar
     7     5     6   ar
     8     6     9    1
     9     9    10   ar
    10    10    11   ar
    11    11    12   ar
    12    12    13   ar
    13     6     7   ar
    14     7     8   ar
    15    15    17    1
    16    17    18   ar
    17    18    19   ar
    18    19    20    1
    19    19    21   ar
    20    21    22   ar
    21    22    23    1
    22    22    24   ar
    23     8     3   ar
    24    24    17   ar
    25    13     9   ar
    26     1     2    1
@<TRIPOS>MOLECULE
*****
 24 26 0 0 0
SMALL
GASTEIGER

@<TRIPOS>ATOM
      1 N         -12.6826   -7.6245   18.9932 N.pl3   1  UNL1       -0.2150
      2 H         -12.1448   -8.2405   19.5414 H       1  UNL1        0.1737
      3 C         -14.0847   -7.9930   18.6077 C.ar    1  UNL1        0.0648
      4 C         -15.1671   -6.9549   18.6338 C.ar    1  UNL1        0.0160
      5 C         -16.5691   -7.3234   18.2484 C.ar    1  UNL1        0.0044
      6 C         -16.8887   -8.7300   17.8368 C.ar    1  UNL1        0.0363
      7 C         -15.8062   -9.7681   17.8107 C.ar    1  UNL1        0.0044
      8 C         -14.4043   -9.3996   18.1962 C.ar    1  UNL1        0.0160
      9 C         -18.2907   -9.0985   17.4514 C.ar    1  UNL1        0.1664
     10 C         -19.1013  -10.2164   18.0373 C.ar    1  UNL1        0.1396
     11 N         -20.4398  -10.2226   17.3604 N.ar    1  UNL1       -0.2026
     12 C         -20.4566   -9.1085   16.3561 C.ar    1  UNL1        0.2851
     13 O         -19.1283   -8.4138   16.4124 O.2     1  UNL1       -0.4311
     14 O         -12.3816   -5.7274   19.8933 O.2     1  UNL1       -0.1499
     15 S         -12.1000   -6.3176   18.5434 S.O2    1  UNL1        0.0736
     16 O         -11.8185   -6.9077   17.1934 O.2     1  UNL1       -0.1499
     17 C         -11.5174   -5.0105   18.0935 C.ar    1  UNL1        0.1268
     18 C         -12.1836   -3.7217   18.4744 C.ar    1  UNL1        0.0316
     19 C         -11.6011   -2.4147   18.0245 C.ar    1  UNL1        0.0599
     20 CL        -12.2673   -1.1259   18.4054 Cl      1  UNL1       -0.0822
     21 C         -10.3523   -2.3966   17.1938 C.ar    1  UNL1        0.0229
     22 C          -9.6861   -3.6854   16.8129 C.ar    1  UNL1        0.0599
     23 CL         -8.4372   -3.6672   15.9821 Cl      1  UNL1       -0.0822
     24 C         -10.2686   -4.9924   17.2627 C.ar    1  UNL1        0.0316
@<TRIPOS>BOND
     1    14    15    2
     2    15    16    2
     3    15     1    1
     4     1     3    1
     5     3     4   ar
     6     4     5   ar
     7     5     6   ar
     8     6     9    1
     9     9    10   ar
    10    10    11   ar
    11    11    12   ar
    12    12    13   ar
    13     6     7   ar
    14     7     8   ar
    15    15    17    1
    16    17    18   ar
    17    18    19   ar
    18    19    20    1
    19    19    21   ar
    20    21    22   ar
    21    22    23    1
    22    22    24   ar
    23     8     3   ar
    24    24    17   ar
    25    13     9   ar
    26     1     2    1
