@<TRIPOS>MOLECULE
*****
 40 44 0 0 0
SMALL
GASTEIGER

@<TRIPOS>ATOM
      1 O           2.8985   -0.0916   26.8559 O.2     1  UNL1       -0.2749
      2 C           2.5137    0.6651   25.6192 C.2     1  UNL1        0.2256
      3 N           1.1930    1.3731   25.5536 N.am    1  UNL1       -0.2766
      4 C           0.8081    2.1298   24.3169 C.3     1  UNL1        0.1126
      5 C          -0.5126    2.8378   24.2514 C.3     1  UNL1        0.1173
      6 N          -1.4485    2.7893   25.4225 N.3     1  UNL1       -0.1520
      7 C          -1.0638    2.0327   26.6592 C.3     1  UNL1        0.1173
      8 C           0.2570    1.3246   26.7248 C.3     1  UNL1        0.1126
      9 C           3.4496    0.7136   24.4480 C.3     1  UNL1        0.0811
     10 C           4.4968    1.4334   23.6510 C.3     1  UNL1        0.0142
     11 C           4.0235    0.0779   23.2165 C.3     1  UNL1        0.0314
     12 C           4.0815   -1.0717   22.2547 C.ar    1  UNL1       -0.0220
     13 C           4.3646   -2.4564   22.7571 C.ar    1  UNL1       -0.0043
     14 C           4.4226   -3.6059   21.7953 C.ar    1  UNL1        0.0035
     15 C           4.1975   -3.3708   20.3310 C.ar    1  UNL1        0.0714
     16 C           3.9145   -1.9861   19.8286 C.ar    1  UNL1        0.0035
     17 C           3.8565   -0.8366   20.7904 C.ar    1  UNL1       -0.0043
     18 C           4.2556   -4.5204   19.3692 C.3     1  UNL1        0.4186
     19 F           4.3136   -5.6700   18.4074 F       1  UNL1       -0.1659
     20 F           4.9728   -3.6540   18.3768 F       1  UNL1       -0.1659
     21 F           3.5383   -5.3868   20.3615 F       1  UNL1       -0.1659
     22 S          -2.7692    3.4974   25.3570 S.O2    1  UNL1        0.0634
     23 O          -2.8828    3.4238   26.8509 O.2     1  UNL1       -0.1528
     24 O          -2.6557    3.5709   23.8632 O.2     1  UNL1       -0.1528
     25 C          -4.0900    4.2055   25.2914 C.ar    1  UNL1        0.1222
     26 C          -4.6521    4.8594   26.5187 C.ar    1  UNL1        0.0229
     27 C          -5.9729    5.5674   26.4531 C.ar    1  UNL1        0.0370
     28 C          -6.7314    5.6216   25.1602 C.ar    1  UNL1        0.0070
     29 C          -6.1692    4.9677   23.9329 C.ar    1  UNL1        0.0728
     30 C          -4.8485    4.2596   23.9985 C.ar    1  UNL1        0.0238
     31 C          -6.5351    6.2214   27.6805 C.ar    1  UNL1        0.1632
     32 N          -7.9799    6.2468   28.0827 N.ar    1  UNL1       -0.1289
     33 N          -8.0889    7.0059   29.3718 N.ar    1  UNL1       -0.1258
     34 C          -6.7115    7.4495   29.7663 C.ar    1  UNL1        0.1992
     35 N          -5.7512    6.9647   28.7210 N.ar    1  UNL1       -0.3187
     36 H          -4.7773    7.1090   28.7184 H       1  UNL1        0.1690
     37 C          -6.9278    5.0218   22.6399 C.3     1  UNL1        0.4186
     38 F          -7.6863    5.0759   21.3470 F       1  UNL1       -0.1659
     39 F          -7.9581    4.0898   23.2054 F       1  UNL1       -0.1659
     40 F          -5.8975    5.9538   22.0745 F       1  UNL1       -0.1659
@<TRIPOS>BOND
     1     1     2    2
     2     9     2    1
     3     9    10    1
     4    10    11    1
     5    11    12    1
     6    12    13   ar
     7    13    14   ar
     8    14    15   ar
     9    15    18    1
    10    18    19    1
    11    18    20    1
    12    18    21    1
    13    15    16   ar
    14    16    17   ar
    15     2     3   am
    16     3     4    1
    17     4     5    1
    18     5     6    1
    19     6    22    1
    20    22    23    2
    21    22    24    2
    22    22    25    1
    23    25    26   ar
    24    26    27   ar
    25    27    31    1
    26    31    32   ar
    27    32    33   ar
    28    33    34   ar
    29    34    35   ar
    30    27    28   ar
    31    28    29   ar
    32    29    37    1
    33    37    38    1
    34    37    39    1
    35    37    40    1
    36    29    30   ar
    37     6     7    1
    38     7     8    1
    39    11     9    1
    40    17    12   ar
    41     8     3    1
    42    30    25   ar
    43    35    31   ar
    44    35    36    1
@<TRIPOS>MOLECULE
*****
 40 44 0 0 0
SMALL
GASTEIGER

@<TRIPOS>ATOM
      1 O           6.9314   -2.2679   17.4806 O.2     1  UNL1       -0.2749
      2 C           5.8700   -2.0971   18.5267 C.2     1  UNL1        0.2256
      3 N           6.0826   -2.6441   19.9072 N.am    1  UNL1       -0.2766
      4 C           5.0212   -2.4734   20.9533 C.3     1  UNL1        0.1126
      5 C           5.2338   -3.0203   22.3337 C.3     1  UNL1        0.1173
      6 N           6.5078   -3.7381   22.6680 N.3     1  UNL1       -0.1520
      7 C           7.5692   -3.9089   21.6220 C.3     1  UNL1        0.1173
      8 C           7.3566   -3.3619   20.2415 C.3     1  UNL1        0.1126
      9 C           4.5960   -1.3794   18.1924 C.3     1  UNL1        0.0811
     10 C           3.5960   -0.9131   17.1764 C.3     1  UNL1        0.0142
     11 C           3.3896   -0.6025   18.6293 C.3     1  UNL1        0.0314
     12 C           2.5739    0.0253   19.7205 C.ar    1  UNL1       -0.0220
     13 C           1.0879   -0.1759   19.7563 C.ar    1  UNL1       -0.0043
     14 C           0.2722    0.4519   20.8474 C.ar    1  UNL1        0.0035
     15 C           0.9426    1.2809   21.9027 C.ar    1  UNL1        0.0714
     16 C           2.4286    1.4820   21.8668 C.ar    1  UNL1        0.0035
     17 C           3.2442    0.8542   20.7757 C.ar    1  UNL1       -0.0043
     18 C           0.1269    1.9087   22.9938 C.3     1  UNL1        0.4186
     19 F          -0.6888    2.5365   24.0849 F       1  UNL1       -0.1659
     20 F           0.6896    0.9276   23.9791 F       1  UNL1       -0.1659
     21 F          -0.4358    2.8898   22.0086 F       1  UNL1       -0.1659
     22 S           6.7204   -4.2851   24.0485 S.O2    1  UNL1        0.0634
     23 O           7.5518   -5.3967   23.4800 O.2     1  UNL1       -0.1528
     24 O           5.8891   -3.1735   24.6170 O.2     1  UNL1       -0.1528
     25 C           6.9330   -4.8320   25.4290 C.ar    1  UNL1        0.1222
     26 C           6.6142   -3.9882   26.6273 C.ar    1  UNL1        0.0229
     27 C           6.8268   -4.5352   28.0077 C.ar    1  UNL1        0.0370
     28 C           7.3582   -5.9260   28.1898 C.ar    1  UNL1        0.0070
     29 C           7.6771   -6.7699   26.9914 C.ar    1  UNL1        0.0728
     30 C           7.4645   -6.2229   25.6110 C.ar    1  UNL1        0.0238
     31 C           6.5079   -3.6913   29.2062 C.ar    1  UNL1        0.1632
     32 N           6.1285   -2.2402   29.1871 N.ar    1  UNL1       -0.1289
     33 N           5.8986   -1.8026   30.6033 N.ar    1  UNL1       -0.1258
     34 C           6.1359   -2.9831   31.4976 C.ar    1  UNL1        0.1992
     35 N           6.5124   -4.1504   30.6342 N.ar    1  UNL1       -0.3187
     36 H           6.7252   -5.0585   30.9493 H       1  UNL1        0.1690
     37 C           8.2086   -8.1607   27.1734 C.3     1  UNL1        0.4186
     38 F           8.7400   -9.5515   27.3554 F       1  UNL1       -0.1659
     39 F           8.0253   -8.4225   25.7078 F       1  UNL1       -0.1659
     40 F           8.3918   -7.8989   28.6389 F       1  UNL1       -0.1659
@<TRIPOS>BOND
     1     1     2    2
     2     9     2    1
     3     9    10    1
     4    10    11    1
     5    11    12    1
     6    12    13   ar
     7    13    14   ar
     8    14    15   ar
     9    15    18    1
    10    18    19    1
    11    18    20    1
    12    18    21    1
    13    15    16   ar
    14    16    17   ar
    15     2     3   am
    16     3     4    1
    17     4     5    1
    18     5     6    1
    19     6    22    1
    20    22    23    2
    21    22    24    2
    22    22    25    1
    23    25    26   ar
    24    26    27   ar
    25    27    31    1
    26    31    32   ar
    27    32    33   ar
    28    33    34   ar
    29    34    35   ar
    30    27    28   ar
    31    28    29   ar
    32    29    37    1
    33    37    38    1
    34    37    39    1
    35    37    40    1
    36    29    30   ar
    37     6     7    1
    38     7     8    1
    39    11     9    1
    40    17    12   ar
    41     8     3    1
    42    30    25   ar
    43    35    31   ar
    44    35    36    1
@<TRIPOS>MOLECULE
*****
 40 44 0 0 0
SMALL
GASTEIGER

@<TRIPOS>ATOM
      1 O          -1.2175    2.0851   25.3612 O.2     1  UNL1       -0.2749
      2 C           0.2410    1.7674   25.2132 C.2     1  UNL1        0.2256
      3 N           1.0161    1.2393   26.3838 N.am    1  UNL1       -0.2766
      4 C           2.4747    0.9216   26.2358 C.3     1  UNL1        0.1126
      5 C           3.2497    0.3935   27.4064 C.3     1  UNL1        0.1173
      6 N           2.5664    0.1830   28.7250 N.3     1  UNL1       -0.1520
      7 C           1.1079    0.5007   28.8730 C.3     1  UNL1        0.1173
      8 C           0.3328    1.0288   27.7024 C.3     1  UNL1        0.1126
      9 C           0.9244    1.9778   23.8946 C.3     1  UNL1        0.0811
     10 C           1.4043    2.8993   22.8127 C.3     1  UNL1        0.0142
     11 C           1.6282    1.4209   22.6928 C.3     1  UNL1        0.0314
     12 C           2.1638    0.2458   21.9296 C.ar    1  UNL1       -0.0220
     13 C           1.6086   -0.0856   20.5761 C.ar    1  UNL1       -0.0043
     14 C           2.1442   -1.2607   19.8131 C.ar    1  UNL1        0.0035
     15 C           3.2349   -2.1043   20.4035 C.ar    1  UNL1        0.0714
     16 C           3.7901   -1.7729   21.7569 C.ar    1  UNL1        0.0035
     17 C           3.2545   -0.5978   22.5200 C.ar    1  UNL1       -0.0043
     18 C           3.7705   -3.2794   19.6403 C.3     1  UNL1        0.4186
     19 F           4.3061   -4.4545   18.8772 F       1  UNL1       -0.1659
     20 F           3.5946   -2.5254   18.3556 F       1  UNL1       -0.1659
     21 F           3.9464   -4.0335   20.9250 F       1  UNL1       -0.1659
     22 S           3.3414   -0.3451   29.8956 S.O2    1  UNL1        0.0634
     23 O           4.6211   -0.1434   29.1393 O.2     1  UNL1       -0.1528
     24 O           2.0619   -0.5467   30.6519 O.2     1  UNL1       -0.1528
     25 C           4.1165   -0.8732   31.0663 C.ar    1  UNL1        0.1222
     26 C           5.0377   -2.0437   30.8893 C.ar    1  UNL1        0.0229
     27 C           5.8127   -2.5718   32.0600 C.ar    1  UNL1        0.0370
     28 C           5.6666   -1.9294   33.4075 C.ar    1  UNL1        0.0070
     29 C           4.7454   -0.7589   33.5845 C.ar    1  UNL1        0.0728
     30 C           3.9704   -0.2308   32.4138 C.ar    1  UNL1        0.0238
     31 C           6.7339   -3.7424   31.8831 C.ar    1  UNL1        0.1632
     32 N           8.1338   -3.6895   31.3470 N.ar    1  UNL1       -0.1289
     33 N           8.6820   -5.0858   31.3438 N.ar    1  UNL1       -0.1258
     34 C           7.6208   -6.0015   31.8779 C.ar    1  UNL1        0.1992
     35 N           6.4169   -5.1712   32.2112 N.ar    1  UNL1       -0.3187
     36 H           5.5676   -5.5054   32.5804 H       1  UNL1        0.1690
     37 C           4.5993   -0.1164   34.9320 C.3     1  UNL1        0.4186
     38 F           4.4531    0.5260   36.2796 F       1  UNL1       -0.1659
     39 F           5.7735   -0.9031   35.4344 F       1  UNL1       -0.1659
     40 F           3.4250    0.6702   34.4297 F       1  UNL1       -0.1659
@<TRIPOS>BOND
     1     1     2    2
     2     9     2    1
     3     9    10    1
     4    10    11    1
     5    11    12    1
     6    12    13   ar
     7    13    14   ar
     8    14    15   ar
     9    15    18    1
    10    18    19    1
    11    18    20    1
    12    18    21    1
    13    15    16   ar
    14    16    17   ar
    15     2     3   am
    16     3     4    1
    17     4     5    1
    18     5     6    1
    19     6    22    1
    20    22    23    2
    21    22    24    2
    22    22    25    1
    23    25    26   ar
    24    26    27   ar
    25    27    31    1
    26    31    32   ar
    27    32    33   ar
    28    33    34   ar
    29    34    35   ar
    30    27    28   ar
    31    28    29   ar
    32    29    37    1
    33    37    38    1
    34    37    39    1
    35    37    40    1
    36    29    30   ar
    37     6     7    1
    38     7     8    1
    39    11     9    1
    40    17    12   ar
    41     8     3    1
    42    30    25   ar
    43    35    31   ar
    44    35    36    1
@<TRIPOS>MOLECULE
*****
 40 44 0 0 0
SMALL
GASTEIGER

@<TRIPOS>ATOM
      1 O          -0.7063    5.5667   17.4797 O.2     1  UNL1       -0.2749
      2 C          -1.2374    4.5881   18.4849 C.2     1  UNL1        0.2256
      3 N          -0.3932    3.4269   18.9197 N.am    1  UNL1       -0.2766
      4 C          -0.9243    2.4483   19.9248 C.3     1  UNL1        0.1126
      5 C          -0.0801    1.2871   20.3596 C.3     1  UNL1        0.1173
      6 N           1.2952    1.1046   19.7892 N.3     1  UNL1       -0.1520
      7 C           1.8262    2.0831   18.7841 C.3     1  UNL1        0.1173
      8 C           0.9821    3.2443   18.3493 C.3     1  UNL1        0.1126
      9 C          -2.6126    4.7707   19.0553 C.3     1  UNL1        0.0811
     10 C          -4.0686    5.0761   18.8632 C.3     1  UNL1        0.0142
     11 C          -3.5386    4.7815   20.2352 C.3     1  UNL1        0.0314
     12 C          -3.7673    4.6176   21.7087 C.ar    1  UNL1       -0.0220
     13 C          -4.6737    3.5330   22.2109 C.ar    1  UNL1       -0.0043
     14 C          -4.9023    3.3692   23.6843 C.ar    1  UNL1        0.0035
     15 C          -4.2246    4.2898   24.6554 C.ar    1  UNL1        0.0714
     16 C          -3.3183    5.3744   24.1531 C.ar    1  UNL1        0.0035
     17 C          -3.0897    5.5382   22.6798 C.ar    1  UNL1       -0.0043
     18 C          -4.4533    4.1259   26.1288 C.3     1  UNL1        0.4186
     19 F          -4.6820    3.9621   27.6021 F       1  UNL1       -0.1659
     20 F          -3.0707    3.5647   26.2810 F       1  UNL1       -0.1659
     21 F          -5.8360    4.6872   25.9766 F       1  UNL1       -0.1659
     22 S           2.1393   -0.0566   20.2240 S.O2    1  UNL1        0.0634
     23 O           0.9509   -0.9644   20.1071 O.2     1  UNL1       -0.1528
     24 O           3.3277    0.8512   20.3408 O.2     1  UNL1       -0.1528
     25 C           2.9836   -1.2178   20.6587 C.ar    1  UNL1        0.1222
     26 C           3.5501   -1.2549   22.0471 C.ar    1  UNL1        0.0229
     27 C           4.3943   -2.4161   22.4818 C.ar    1  UNL1        0.0370
     28 C           4.6720   -3.5400   21.5282 C.ar    1  UNL1        0.0070
     29 C           4.1056   -3.5029   20.1398 C.ar    1  UNL1        0.0728
     30 C           3.2613   -2.3418   19.7051 C.ar    1  UNL1        0.0238
     31 C           4.9608   -2.4532   23.8703 C.ar    1  UNL1        0.1632
     32 N           4.7649   -1.4106   24.9307 N.ar    1  UNL1       -0.1289
     33 N           5.5057   -1.8526   26.1578 N.ar    1  UNL1       -0.1258
     34 C           6.1595   -3.1684   25.8558 C.ar    1  UNL1        0.1992
     35 N           5.8227   -3.5396   24.4420 N.ar    1  UNL1       -0.3187
     36 H           6.1158   -4.3534   23.9719 H       1  UNL1        0.1690
     37 C           4.3833   -4.6269   19.1861 C.3     1  UNL1        0.4186
     38 F           4.6610   -5.7509   18.2324 F       1  UNL1       -0.1659
     39 F           3.3739   -5.4791   19.8966 F       1  UNL1       -0.1659
     40 F           5.3927   -3.7746   18.4756 F       1  UNL1       -0.1659
@<TRIPOS>BOND
     1     1     2    2
     2     9     2    1
     3     9    10    1
     4    10    11    1
     5    11    12    1
     6    12    13   ar
     7    13    14   ar
     8    14    15   ar
     9    15    18    1
    10    18    19    1
    11    18    20    1
    12    18    21    1
    13    15    16   ar
    14    16    17   ar
    15     2     3   am
    16     3     4    1
    17     4     5    1
    18     5     6    1
    19     6    22    1
    20    22    23    2
    21    22    24    2
    22    22    25    1
    23    25    26   ar
    24    26    27   ar
    25    27    31    1
    26    31    32   ar
    27    32    33   ar
    28    33    34   ar
    29    34    35   ar
    30    27    28   ar
    31    28    29   ar
    32    29    37    1
    33    37    38    1
    34    37    39    1
    35    37    40    1
    36    29    30   ar
    37     6     7    1
    38     7     8    1
    39    11     9    1
    40    17    12   ar
    41     8     3    1
    42    30    25   ar
    43    35    31   ar
    44    35    36    1
@<TRIPOS>MOLECULE
*****
 40 44 0 0 0
SMALL
GASTEIGER

@<TRIPOS>ATOM
      1 O           1.6136    1.2952   28.8554 O.2     1  UNL1       -0.2749
      2 C           1.2450    1.9148   27.5400 C.2     1  UNL1        0.2256
      3 N           1.7884    1.3442   26.2636 N.am    1  UNL1       -0.2766
      4 C           1.4198    1.9638   24.9482 C.3     1  UNL1        0.1126
      5 C           1.9631    1.3932   23.6719 C.3     1  UNL1        0.1173
      6 N           2.8751    0.2029   23.7109 N.3     1  UNL1       -0.1520
      7 C           3.2437   -0.4167   25.0262 C.3     1  UNL1        0.1173
      8 C           2.7003    0.1539   26.3026 C.3     1  UNL1        0.1126
      9 C           0.3330    3.1051   27.5010 C.3     1  UNL1        0.0811
     10 C          -0.0134    4.4916   27.9564 C.3     1  UNL1        0.0142
     11 C          -0.9002    3.7801   26.9780 C.3     1  UNL1        0.0314
     12 C          -2.1242    3.7591   26.1111 C.ar    1  UNL1       -0.0220
     13 C          -1.9960    3.5037   24.6386 C.ar    1  UNL1       -0.0043
     14 C          -3.2200    3.4826   23.7718 C.ar    1  UNL1        0.0035
     15 C          -4.5721    3.7170   24.3775 C.ar    1  UNL1        0.0714
     16 C          -4.7003    3.9723   25.8500 C.ar    1  UNL1        0.0035
     17 C          -3.4763    3.9934   26.7168 C.ar    1  UNL1       -0.0043
     18 C          -5.7961    3.6959   23.5106 C.3     1  UNL1        0.4186
     19 F          -7.0200    3.6748   22.6437 F       1  UNL1       -0.1659
     20 F          -6.5913    4.3214   24.6180 F       1  UNL1       -0.1659
     21 F          -5.0010    3.0704   22.4031 F       1  UNL1       -0.1659
     22 S           3.4185   -0.3677   22.4345 S.O2    1  UNL1        0.0634
     23 O           3.2550    0.9663   21.7684 O.2     1  UNL1       -0.1528
     24 O           3.5819   -1.7018   23.1006 O.2     1  UNL1       -0.1528
     25 C           3.9619   -0.9385   21.1582 C.ar    1  UNL1        0.1222
     26 C           4.6142   -0.0377   20.1517 C.ar    1  UNL1        0.0229
     27 C           5.1576   -0.6084   18.8754 C.ar    1  UNL1        0.0370
     28 C           5.0486   -2.0799   18.6056 C.ar    1  UNL1        0.0070
     29 C           4.3963   -2.9807   19.6120 C.ar    1  UNL1        0.0728
     30 C           3.8529   -2.4100   20.8883 C.ar    1  UNL1        0.0238
     31 C           5.8099    0.2924   17.8688 C.ar    1  UNL1        0.1632
     32 N           6.7770   -0.1306   16.8031 N.ar    1  UNL1       -0.1289
     33 N           7.1745    1.0899   16.0270 N.ar    1  UNL1       -0.1258
     34 C           6.4531    2.2671   16.6130 C.ar    1  UNL1        0.1992
     35 N           5.6097    1.7742   17.7514 N.ar    1  UNL1       -0.3187
     36 H           5.0271    2.3264   18.3213 H       1  UNL1        0.1690
     37 C           4.2873   -4.4522   19.3422 C.3     1  UNL1        0.4186
     38 F           4.1783   -5.9237   19.0724 F       1  UNL1       -0.1659
     39 F           2.8279   -4.2881   19.0367 F       1  UNL1       -0.1659
     40 F           5.7467   -4.6163   19.6477 F       1  UNL1       -0.1659
@<TRIPOS>BOND
     1     1     2    2
     2     9     2    1
     3     9    10    1
     4    10    11    1
     5    11    12    1
     6    12    13   ar
     7    13    14   ar
     8    14    15   ar
     9    15    18    1
    10    18    19    1
    11    18    20    1
    12    18    21    1
    13    15    16   ar
    14    16    17   ar
    15     2     3   am
    16     3     4    1
    17     4     5    1
    18     5     6    1
    19     6    22    1
    20    22    23    2
    21    22    24    2
    22    22    25    1
    23    25    26   ar
    24    26    27   ar
    25    27    31    1
    26    31    32   ar
    27    32    33   ar
    28    33    34   ar
    29    34    35   ar
    30    27    28   ar
    31    28    29   ar
    32    29    37    1
    33    37    38    1
    34    37    39    1
    35    37    40    1
    36    29    30   ar
    37     6     7    1
    38     7     8    1
    39    11     9    1
    40    17    12   ar
    41     8     3    1
    42    30    25   ar
    43    35    31   ar
    44    35    36    1
@<TRIPOS>MOLECULE
*****
 40 44 0 0 0
SMALL
GASTEIGER

@<TRIPOS>ATOM
      1 O           8.5839   -2.2563   29.6984 O.2     1  UNL1       -0.2749
      2 C           7.0951   -2.1885   29.5281 C.2     1  UNL1        0.2256
      3 N           6.4987   -2.1476   28.1524 N.am    1  UNL1       -0.2766
      4 C           5.0099   -2.0798   27.9821 C.3     1  UNL1        0.1126
      5 C           4.4135   -2.0390   26.6064 C.3     1  UNL1        0.1173
      6 N           5.3058   -2.0660   25.4009 N.3     1  UNL1       -0.1520
      7 C           6.7946   -2.1338   25.5712 C.3     1  UNL1        0.1173
      8 C           7.3910   -2.1746   26.9470 C.3     1  UNL1        0.1126
      9 C           6.2028   -2.1615   30.7335 C.3     1  UNL1        0.0811
     10 C           5.7860   -2.7374   32.0543 C.3     1  UNL1        0.0142
     11 C           5.0740   -1.5389   31.5005 C.3     1  UNL1        0.0314
     12 C           4.0113   -0.4875   31.6235 C.ar    1  UNL1       -0.0220
     13 C           3.8773    0.2985   32.8940 C.ar    1  UNL1       -0.0043
     14 C           2.8146    1.3499   33.0169 C.ar    1  UNL1        0.0035
     15 C           1.8858    1.6153   31.8694 C.ar    1  UNL1        0.0714
     16 C           2.0197    0.8293   30.5988 C.ar    1  UNL1        0.0035
     17 C           3.0825   -0.2220   30.4759 C.ar    1  UNL1       -0.0043
     18 C           0.8230    2.6667   31.9924 C.3     1  UNL1        0.4186
     19 F          -0.2397    3.7181   32.1153 F       1  UNL1       -0.1659
     20 F           1.4396    3.1399   33.2753 F       1  UNL1       -0.1659
     21 F           0.2065    2.1935   30.7095 F       1  UNL1       -0.1659
     22 S           4.7094   -2.0251   24.0252 S.O2    1  UNL1        0.0634
     23 O           5.8730   -2.8110   23.4974 O.2     1  UNL1       -0.1528
     24 O           3.5459   -1.2393   24.5530 O.2     1  UNL1       -0.1528
     25 C           4.1130   -1.9842   22.6495 C.ar    1  UNL1        0.1222
     26 C           3.1351   -0.9059   22.2877 C.ar    1  UNL1        0.0229
     27 C           2.5387   -0.8651   20.9121 C.ar    1  UNL1        0.0370
     28 C           2.9202   -1.9026   19.8981 C.ar    1  UNL1        0.0070
     29 C           3.8981   -2.9809   20.2598 C.ar    1  UNL1        0.0728
     30 C           4.4945   -3.0217   21.6355 C.ar    1  UNL1        0.0238
     31 C           1.5607    0.2132   20.5502 C.ar    1  UNL1        0.1632
     32 N           0.0924    0.2110   20.8569 N.ar    1  UNL1       -0.1289
     33 N          -0.4964    1.4795   20.3145 N.ar    1  UNL1       -0.1258
     34 C           0.6081    2.2657   19.6725 C.ar    1  UNL1        0.1992
     35 N           1.8794    1.4831   19.8183 N.ar    1  UNL1       -0.3187
     36 H           2.7671    1.7551   19.4909 H       1  UNL1        0.1690
     37 C           4.2795   -4.0184   19.2459 C.3     1  UNL1        0.4186
     38 F           4.6610   -5.0559   18.2319 F       1  UNL1       -0.1659
     39 F           2.8302   -4.3361   19.0257 F       1  UNL1       -0.1659
     40 F           5.7289   -3.7006   19.4661 F       1  UNL1       -0.1659
@<TRIPOS>BOND
     1     1     2    2
     2     9     2    1
     3     9    10    1
     4    10    11    1
     5    11    12    1
     6    12    13   ar
     7    13    14   ar
     8    14    15   ar
     9    15    18    1
    10    18    19    1
    11    18    20    1
    12    18    21    1
    13    15    16   ar
    14    16    17   ar
    15     2     3   am
    16     3     4    1
    17     4     5    1
    18     5     6    1
    19     6    22    1
    20    22    23    2
    21    22    24    2
    22    22    25    1
    23    25    26   ar
    24    26    27   ar
    25    27    31    1
    26    31    32   ar
    27    32    33   ar
    28    33    34   ar
    29    34    35   ar
    30    27    28   ar
    31    28    29   ar
    32    29    37    1
    33    37    38    1
    34    37    39    1
    35    37    40    1
    36    29    30   ar
    37     6     7    1
    38     7     8    1
    39    11     9    1
    40    17    12   ar
    41     8     3    1
    42    30    25   ar
    43    35    31   ar
    44    35    36    1
@<TRIPOS>MOLECULE
*****
 40 44 0 0 0
SMALL
GASTEIGER

@<TRIPOS>ATOM
      1 O           6.7975   -1.6893   30.2680 O.2     1  UNL1       -0.2749
      2 C           5.4293   -1.3507   29.7547 C.2     1  UNL1        0.2256
      3 N           5.1290   -1.4629   28.2894 N.am    1  UNL1       -0.2766
      4 C           3.7607   -1.1243   27.7762 C.3     1  UNL1        0.1126
      5 C           3.4604   -1.2366   26.3109 C.3     1  UNL1        0.1173
      6 N           4.5282   -1.6874   25.3588 N.3     1  UNL1       -0.1520
      7 C           5.8963   -2.0261   25.8720 C.3     1  UNL1        0.1173
      8 C           6.1967   -1.9138   27.3373 C.3     1  UNL1        0.1126
      9 C           4.3615   -0.8998   30.7068 C.3     1  UNL1        0.0811
     10 C           2.9139   -0.6546   31.0137 C.3     1  UNL1        0.0142
     11 C           3.9597   -0.3640   32.0490 C.3     1  UNL1        0.0314
     12 C           4.3316    0.1131   33.4217 C.ar    1  UNL1       -0.0220
     13 C           4.4953   -0.8733   34.5398 C.ar    1  UNL1       -0.0043
     14 C           4.8671   -0.3962   35.9124 C.ar    1  UNL1        0.0035
     15 C           5.0753    1.0673   36.1669 C.ar    1  UNL1        0.0714
     16 C           4.9115    2.0537   35.0488 C.ar    1  UNL1        0.0035
     17 C           4.5397    1.5766   33.6762 C.ar    1  UNL1       -0.0043
     18 C           5.4471    1.5444   37.5395 C.3     1  UNL1        0.4186
     19 F           5.8190    2.0215   38.9121 F       1  UNL1       -0.1659
     20 F           4.3573    0.6988   38.1287 F       1  UNL1       -0.1659
     21 F           6.5369    2.3901   36.9503 F       1  UNL1       -0.1659
     22 S           4.2278   -1.7997   23.8935 S.O2    1  UNL1        0.0634
     23 O           5.1193   -3.0027   23.8028 O.2     1  UNL1       -0.1528
     24 O           3.3363   -0.5968   23.9841 O.2     1  UNL1       -0.1528
     25 C           3.9274   -1.9119   22.4281 C.ar    1  UNL1        0.1222
     26 C           3.2310   -0.7896   21.7172 C.ar    1  UNL1        0.0229
     27 C           2.9306   -0.9019   20.2519 C.ar    1  UNL1        0.0370
     28 C           3.3266   -2.1364   19.4975 C.ar    1  UNL1        0.0070
     29 C           4.0230   -3.2587   20.2085 C.ar    1  UNL1        0.0728
     30 C           4.3234   -3.1465   21.6738 C.ar    1  UNL1        0.0238
     31 C           2.2342    0.2205   19.5409 C.ar    1  UNL1        0.1632
     32 N           0.8632    0.1643   18.9350 N.ar    1  UNL1       -0.1289
     33 N           0.5683    1.5051   18.3306 N.ar    1  UNL1       -0.1258
     34 C           1.7570    2.3899   18.5630 C.ar    1  UNL1        0.1992
     35 N           2.7866    1.5959   19.3110 N.ar    1  UNL1       -0.3187
     36 H           3.6699    1.9205   19.6002 H       1  UNL1        0.1690
     37 C           4.4190   -4.4933   19.4541 C.3     1  UNL1        0.4186
     38 F           4.8150   -5.7279   18.6997 F       1  UNL1       -0.1659
     39 F           3.0000   -4.6720   19.0017 F       1  UNL1       -0.1659
     40 F           5.8379   -4.3146   19.9065 F       1  UNL1       -0.1659
@<TRIPOS>BOND
     1     1     2    2
     2     9     2    1
     3     9    10    1
     4    10    11    1
     5    11    12    1
     6    12    13   ar
     7    13    14   ar
     8    14    15   ar
     9    15    18    1
    10    18    19    1
    11    18    20    1
    12    18    21    1
    13    15    16   ar
    14    16    17   ar
    15     2     3   am
    16     3     4    1
    17     4     5    1
    18     5     6    1
    19     6    22    1
    20    22    23    2
    21    22    24    2
    22    22    25    1
    23    25    26   ar
    24    26    27   ar
    25    27    31    1
    26    31    32   ar
    27    32    33   ar
    28    33    34   ar
    29    34    35   ar
    30    27    28   ar
    31    28    29   ar
    32    29    37    1
    33    37    38    1
    34    37    39    1
    35    37    40    1
    36    29    30   ar
    37     6     7    1
    38     7     8    1
    39    11     9    1
    40    17    12   ar
    41     8     3    1
    42    30    25   ar
    43    35    31   ar
    44    35    36    1
@<TRIPOS>MOLECULE
*****
 40 44 0 0 0
SMALL
GASTEIGER

@<TRIPOS>ATOM
      1 O           4.2953   -2.3474   27.2562 O.2     1  UNL1       -0.2749
      2 C           3.6764   -0.9963   27.0522 C.2     1  UNL1        0.2256
      3 N           3.2993   -0.1574   28.2371 N.am    1  UNL1       -0.2766
      4 C           2.6804    1.1937   28.0331 C.3     1  UNL1        0.1126
      5 C           2.3033    2.0326   29.2180 C.3     1  UNL1        0.1173
      6 N           2.5451    1.5204   30.6070 N.3     1  UNL1       -0.1520
      7 C           3.1640    0.1694   30.8111 C.3     1  UNL1        0.1173
      8 C           3.5411   -0.6695   29.6261 C.3     1  UNL1        0.1126
      9 C           3.4345   -0.4841   25.6633 C.3     1  UNL1        0.0811
     10 C           3.0089    0.6202   24.7417 C.3     1  UNL1        0.0142
     11 C           3.4413   -0.7014   24.1791 C.3     1  UNL1        0.0314
     12 C           3.6949   -1.5898   22.9974 C.ar    1  UNL1       -0.0220
     13 C           3.1991   -1.1910   21.6391 C.ar    1  UNL1       -0.0043
     14 C           3.4527   -2.0795   20.4575 C.ar    1  UNL1        0.0035
     15 C           4.2022   -3.3668   20.6342 C.ar    1  UNL1        0.0714
     16 C           4.6980   -3.7656   21.9925 C.ar    1  UNL1        0.0035
     17 C           4.4444   -2.8771   23.1741 C.ar    1  UNL1       -0.0043
     18 C           4.4558   -4.2552   19.4525 C.3     1  UNL1        0.4186
     19 F           4.7093   -5.1437   18.2708 F       1  UNL1       -0.1659
     20 F           5.9061   -4.3382   19.8260 F       1  UNL1       -0.1659
     21 F           3.0054   -4.1723   19.0789 F       1  UNL1       -0.1659
     22 S           2.1681    2.3593   31.7919 S.O2    1  UNL1        0.0634
     23 O           3.5332    2.9810   31.7863 O.2     1  UNL1       -0.1528
     24 O           0.8030    1.7377   31.7976 O.2     1  UNL1       -0.1528
     25 C           1.7909    3.1982   32.9769 C.ar    1  UNL1        0.1222
     26 C           2.3182    2.8535   34.3382 C.ar    1  UNL1        0.0229
     27 C           1.9411    3.6923   35.5231 C.ar    1  UNL1        0.0370
     28 C           1.0367    4.8759   35.3467 C.ar    1  UNL1        0.0070
     29 C           0.5094    5.2207   33.9854 C.ar    1  UNL1        0.0728
     30 C           0.8865    4.3818   32.8005 C.ar    1  UNL1        0.0238
     31 C           2.4684    3.3476   36.8844 C.ar    1  UNL1        0.1632
     32 N           1.6569    2.8534   38.0451 N.ar    1  UNL1       -0.1289
     33 N           2.5868    2.6370   39.2021 N.ar    1  UNL1       -0.1258
     34 C           3.9729    2.9974   38.7564 C.ar    1  UNL1        0.1992
     35 N           3.8997    3.4366   37.3240 N.ar    1  UNL1       -0.3187
     36 H           4.6580    3.7315   36.7697 H       1  UNL1        0.1690
     37 C          -0.3950    6.4042   33.8091 C.3     1  UNL1        0.4186
     38 F          -1.2995    7.5878   33.6327 F       1  UNL1       -0.1659
     39 F          -1.5339    5.4850   33.4805 F       1  UNL1       -0.1659
     40 F           0.7438    7.3235   34.1376 F       1  UNL1       -0.1659
@<TRIPOS>BOND
     1     1     2    2
     2     9     2    1
     3     9    10    1
     4    10    11    1
     5    11    12    1
     6    12    13   ar
     7    13    14   ar
     8    14    15   ar
     9    15    18    1
    10    18    19    1
    11    18    20    1
    12    18    21    1
    13    15    16   ar
    14    16    17   ar
    15     2     3   am
    16     3     4    1
    17     4     5    1
    18     5     6    1
    19     6    22    1
    20    22    23    2
    21    22    24    2
    22    22    25    1
    23    25    26   ar
    24    26    27   ar
    25    27    31    1
    26    31    32   ar
    27    32    33   ar
    28    33    34   ar
    29    34    35   ar
    30    27    28   ar
    31    28    29   ar
    32    29    37    1
    33    37    38    1
    34    37    39    1
    35    37    40    1
    36    29    30   ar
    37     6     7    1
    38     7     8    1
    39    11     9    1
    40    17    12   ar
    41     8     3    1
    42    30    25   ar
    43    35    31   ar
    44    35    36    1
@<TRIPOS>MOLECULE
*****
 40 44 0 0 0
SMALL
GASTEIGER

@<TRIPOS>ATOM
      1 O           7.9191   -4.4252   20.7031 O.2     1  UNL1       -0.2749
      2 C           6.5491   -3.9115   21.0334 C.2     1  UNL1        0.2256
      3 N           6.2347   -3.4566   22.4277 N.am    1  UNL1       -0.2766
      4 C           4.8646   -2.9429   22.7581 C.3     1  UNL1        0.1126
      5 C           4.5502   -2.4880   24.1524 C.3     1  UNL1        0.1173
      6 N           5.6058   -2.5468   25.2165 N.3     1  UNL1       -0.1520
      7 C           6.9758   -3.0605   24.8862 C.3     1  UNL1        0.1173
      8 C           7.2903   -3.5155   23.4918 C.3     1  UNL1        0.1126
      9 C           5.4935   -3.8527   19.9694 C.3     1  UNL1        0.0811
     10 C           4.7668   -4.4924   18.8237 C.3     1  UNL1        0.0142
     11 C           4.3918   -3.1110   19.2721 C.3     1  UNL1        0.0314
     12 C           3.5392   -1.8852   19.1284 C.ar    1  UNL1       -0.0220
     13 C           3.7914   -0.9237   18.0051 C.ar    1  UNL1       -0.0043
     14 C           2.9389    0.3021   17.8615 C.ar    1  UNL1        0.0035
     15 C           1.8341    0.5663   18.8411 C.ar    1  UNL1        0.0714
     16 C           1.5819   -0.3952   19.9644 C.ar    1  UNL1        0.0035
     17 C           2.4345   -1.6210   20.1081 C.ar    1  UNL1       -0.0043
     18 C           0.9815    1.7921   18.6975 C.3     1  UNL1        0.4186
     19 F           0.1291    3.0179   18.5538 F       1  UNL1       -0.1659
     20 F          -0.1157    1.1194   19.4678 F       1  UNL1       -0.1659
     21 F           2.0787    2.4649   17.9271 F       1  UNL1       -0.1659
     22 S           5.2914   -2.0920   26.6108 S.O2    1  UNL1        0.0634
     23 O           6.6157   -2.6169   27.0807 O.2     1  UNL1       -0.1528
     24 O           3.9672   -1.5670   26.1409 O.2     1  UNL1       -0.1528
     25 C           4.9770   -1.6370   28.0052 C.ar    1  UNL1        0.1222
     26 C           3.7080   -0.8864   28.2809 C.ar    1  UNL1        0.0229
     27 C           3.3936   -0.4315   29.6752 C.ar    1  UNL1        0.0370
     28 C           4.3482   -0.7273   30.7938 C.ar    1  UNL1        0.0070
     29 C           5.6172   -1.4780   30.5181 C.ar    1  UNL1        0.0728
     30 C           5.9316   -1.9328   29.1238 C.ar    1  UNL1        0.0238
     31 C           2.1245    0.3192   29.9511 C.ar    1  UNL1        0.1632
     32 N           0.7512   -0.0718   29.4916 N.ar    1  UNL1       -0.1289
     33 N          -0.2160    0.9601   29.9913 N.ar    1  UNL1       -0.1258
     34 C           0.5595    1.9887   30.7596 C.ar    1  UNL1        0.1992
     35 N           2.0060    1.5926   30.7347 N.ar    1  UNL1       -0.3187
     36 H           2.7475    2.0825   31.1584 H       1  UNL1        0.1690
     37 C           6.5718   -1.7737   31.6367 C.3     1  UNL1        0.4186
     38 F           7.5264   -2.0695   32.7552 F       1  UNL1       -0.1659
     39 F           5.6099   -2.7825   32.1908 F       1  UNL1       -0.1659
     40 F           7.5337   -0.7650   31.0825 F       1  UNL1       -0.1659
@<TRIPOS>BOND
     1     1     2    2
     2     9     2    1
     3     9    10    1
     4    10    11    1
     5    11    12    1
     6    12    13   ar
     7    13    14   ar
     8    14    15   ar
     9    15    18    1
    10    18    19    1
    11    18    20    1
    12    18    21    1
    13    15    16   ar
    14    16    17   ar
    15     2     3   am
    16     3     4    1
    17     4     5    1
    18     5     6    1
    19     6    22    1
    20    22    23    2
    21    22    24    2
    22    22    25    1
    23    25    26   ar
    24    26    27   ar
    25    27    31    1
    26    31    32   ar
    27    32    33   ar
    28    33    34   ar
    29    34    35   ar
    30    27    28   ar
    31    28    29   ar
    32    29    37    1
    33    37    38    1
    34    37    39    1
    35    37    40    1
    36    29    30   ar
    37     6     7    1
    38     7     8    1
    39    11     9    1
    40    17    12   ar
    41     8     3    1
    42    30    25   ar
    43    35    31   ar
    44    35    36    1
