@<TRIPOS>MOLECULE
*****
 31 33 0 0 0
SMALL
GASTEIGER

@<TRIPOS>ATOM
      1 C         -10.9101  -18.2495   19.4743 C.3     1  UNL1        0.1152
      2 N          -9.9089  -18.2735   20.5910 N.am    1  UNL1       -0.2740
      3 C          -8.6945  -19.1483   20.4909 C.2     1  UNL1        0.2303
      4 O          -8.4814  -19.9992   19.2741 O.2     1  UNL1       -0.2745
      5 C          -7.6933  -19.1723   21.6075 C.3     1  UNL1        0.1116
      6 C          -6.2673  -19.5448   21.3285 C.ar    1  UNL1       -0.0134
      7 C          -5.9558  -20.6468   20.3597 C.ar    1  UNL1       -0.0038
      8 C          -4.5299  -21.0193   20.0807 C.ar    1  UNL1       -0.0006
      9 C          -3.4154  -20.2898   20.7704 C.ar    1  UNL1       -0.0029
     10 C          -3.7269  -19.1878   21.7392 C.ar    1  UNL1       -0.0051
     11 C          -5.1528  -18.8153   22.0182 C.ar    1  UNL1       -0.0067
     12 C          -2.6124  -18.4583   22.4289 C.3     1  UNL1        0.1173
     13 N          -1.3510  -18.1380   21.6831 N.3     1  UNL1       -0.1788
     14 H          -0.7309  -18.9400   21.7952 H       1  UNL1        0.1488
     15 S          -1.4043  -17.8337   20.2153 S.O2    1  UNL1        0.0429
     16 C          -1.4576  -17.5293   18.7474 C.3     1  UNL1        0.1957
     17 O          -2.3894  -16.7336   20.4791 O.2     1  UNL1       -0.1574
     18 O          -0.4192  -18.9337   19.9515 O.2     1  UNL1       -0.1574
     19 C         -10.1220  -17.4226   21.8078 C.3     1  UNL1        0.1138
     20 C         -11.1473  -17.8176   22.8289 C.ar    1  UNL1       -0.0029
     21 C         -10.7661  -18.7212   23.9639 C.ar    1  UNL1       -0.0026
     22 C         -11.7914  -19.1162   24.9851 C.ar    1  UNL1       -0.0003
     23 C         -13.1979  -18.6075   24.8713 C.ar    1  UNL1       -0.0000
     24 C         -13.5791  -17.7038   23.7362 C.ar    1  UNL1       -0.0003
     25 C         -12.5538  -17.3089   22.7151 C.ar    1  UNL1       -0.0026
     26 C          -9.3097  -16.1768   22.0035 C.3     1  UNL1        0.0967
     27 N          -8.5479  -15.9709   23.2791 N.3     1  UNL1       -0.2710
     28 C          -9.1451  -15.7261   24.6331 C.3     1  UNL1        0.0722
     29 C          -8.0213  -15.5775   25.6155 C.3     1  UNL1        0.0188
     30 C          -6.7295  -15.7304   24.8686 C.3     1  UNL1        0.0188
     31 C          -7.0549  -15.9735   23.4246 C.3     1  UNL1        0.0722
@<TRIPOS>BOND
     1     1     2    1
     2     2     3   am
     3     3     4    2
     4     3     5    1
     5     5     6    1
     6     6     7   ar
     7     7     8   ar
     8     8     9   ar
     9     9    10   ar
    10    10    12    1
    11    12    13    1
    12    13    15    1
    13    15    16    1
    14    15    17    2
    15    15    18    2
    16    10    11   ar
    17     2    19    1
    18    19    26    1
    19    26    27    1
    20    27    28    1
    21    28    29    1
    22    29    30    1
    23    30    31    1
    24    19    20    1
    25    20    21   ar
    26    21    22   ar
    27    22    23   ar
    28    23    24   ar
    29    24    25   ar
    30    11     6   ar
    31    31    27    1
    32    25    20   ar
    33    13    14    1
@<TRIPOS>MOLECULE
*****
 31 33 0 0 0
SMALL
GASTEIGER

@<TRIPOS>ATOM
      1 C         -10.2392  -16.8488   21.2223 C.3     1  UNL1        0.1152
      2 N          -9.3473  -17.7988   21.9652 N.am    1  UNL1       -0.2740
      3 C          -8.4530  -18.7354   21.2082 C.2     1  UNL1        0.2303
      4 O          -8.4507  -18.7221   19.7083 O.2     1  UNL1       -0.2745
      5 C          -7.5611  -19.6854   21.9512 C.3     1  UNL1        0.1116
      6 C          -6.1390  -19.8765   21.5139 C.ar    1  UNL1       -0.0134
      7 C          -5.8150  -20.8509   20.4205 C.ar    1  UNL1       -0.0038
      8 C          -4.3930  -21.0420   19.9833 C.ar    1  UNL1       -0.0006
      9 C          -3.2949  -20.2586   20.6394 C.ar    1  UNL1       -0.0029
     10 C          -3.6189  -19.2842   21.7328 C.ar    1  UNL1       -0.0051
     11 C          -5.0409  -19.0932   22.1701 C.ar    1  UNL1       -0.0067
     12 C          -2.5208  -18.5009   22.3890 C.3     1  UNL1        0.1173
     13 N          -1.2931  -18.1330   21.6097 N.3     1  UNL1       -0.1788
     14 H          -0.6402  -18.9109   21.7042 H       1  UNL1        0.1488
     15 S          -1.3975  -17.8310   20.1441 S.O2    1  UNL1        0.0429
     16 C          -1.5020  -17.5290   18.6785 C.3     1  UNL1        0.1957
     17 O          -0.3514  -18.8668   19.8562 O.2     1  UNL1       -0.1574
     18 O          -2.4436  -16.7952   20.4321 O.2     1  UNL1       -0.1574
     19 C          -9.3496  -17.8121   23.4652 C.3     1  UNL1        0.1138
     20 C          -8.4369  -16.8957   24.2248 C.ar    1  UNL1       -0.0029
     21 C          -8.7042  -16.6007   25.6710 C.ar    1  UNL1       -0.0026
     22 C          -7.7915  -15.6842   26.4307 C.ar    1  UNL1       -0.0003
     23 C          -6.6116  -15.0627   25.7441 C.ar    1  UNL1       -0.0000
     24 C          -6.3443  -15.3576   24.2978 C.ar    1  UNL1       -0.0003
     25 C          -7.2570  -16.2741   23.5382 C.ar    1  UNL1       -0.0026
     26 C         -10.2647  -18.7420   24.2055 C.3     1  UNL1        0.0967
     27 N         -11.7434  -18.4907   24.2131 N.3     1  UNL1       -0.2710
     28 C         -12.6801  -18.7738   25.3499 C.3     1  UNL1        0.0722
     29 C         -14.0608  -18.3701   24.9246 C.3     1  UNL1        0.0188
     30 C         -13.9774  -17.8375   23.5248 C.3     1  UNL1        0.0188
     31 C         -12.5452  -17.9120   23.0851 C.3     1  UNL1        0.0722
@<TRIPOS>BOND
     1     1     2    1
     2     2     3   am
     3     3     4    2
     4     3     5    1
     5     5     6    1
     6     6     7   ar
     7     7     8   ar
     8     8     9   ar
     9     9    10   ar
    10    10    12    1
    11    12    13    1
    12    13    15    1
    13    15    16    1
    14    15    17    2
    15    15    18    2
    16    10    11   ar
    17     2    19    1
    18    19    26    1
    19    26    27    1
    20    27    28    1
    21    28    29    1
    22    29    30    1
    23    30    31    1
    24    19    20    1
    25    20    21   ar
    26    21    22   ar
    27    22    23   ar
    28    23    24   ar
    29    24    25   ar
    30    11     6   ar
    31    31    27    1
    32    25    20   ar
    33    13    14    1
@<TRIPOS>MOLECULE
*****
 31 33 0 0 0
SMALL
GASTEIGER

@<TRIPOS>ATOM
      1 C         -10.1050  -21.0732   24.1747 C.3     1  UNL1        0.1152
      2 N          -9.7141  -19.7474   23.5921 N.am    1  UNL1       -0.2740
      3 C          -9.5666  -18.5504   24.4840 C.2     1  UNL1        0.2303
      4 O          -9.8101  -18.6792   25.9585 O.2     1  UNL1       -0.2745
      5 C          -9.1756  -17.2246   23.9014 C.3     1  UNL1        0.1116
      6 C          -7.9409  -16.5260   24.3887 C.ar    1  UNL1       -0.0134
      7 C          -7.9462  -15.8349   25.7200 C.ar    1  UNL1       -0.0038
      8 C          -6.7115  -15.1363   26.2073 C.ar    1  UNL1       -0.0006
      9 C          -5.4715  -15.1288   25.3632 C.ar    1  UNL1       -0.0029
     10 C          -5.4662  -15.8198   24.0320 C.ar    1  UNL1       -0.0051
     11 C          -6.7009  -16.5184   23.5447 C.ar    1  UNL1       -0.0067
     12 C          -4.2262  -15.8123   23.1879 C.3     1  UNL1        0.1173
     13 N          -3.5239  -17.1003   22.8754 N.3     1  UNL1       -0.1788
     14 H          -4.2362  -17.7515   22.5453 H       1  UNL1        0.1488
     15 S          -2.4146  -17.1239   21.8660 S.O2    1  UNL1        0.0429
     16 C          -1.3053  -17.1474   20.8566 C.3     1  UNL1        0.1957
     17 O          -2.6217  -15.6615   21.6042 O.2     1  UNL1       -0.1574
     18 O          -2.2075  -18.5863   22.1277 O.2     1  UNL1       -0.1574
     19 C          -9.4706  -19.6186   22.1176 C.3     1  UNL1        0.1138
     20 C          -8.0672  -19.5917   21.5887 C.ar    1  UNL1       -0.0029
     21 C          -7.8060  -19.1573   20.1770 C.ar    1  UNL1       -0.0026
     22 C          -6.4026  -19.1304   19.6480 C.ar    1  UNL1       -0.0003
     23 C          -5.2604  -19.5379   20.5308 C.ar    1  UNL1       -0.0000
     24 C          -5.5217  -19.9723   21.9426 C.ar    1  UNL1       -0.0003
     25 C          -6.9251  -19.9992   22.4715 C.ar    1  UNL1       -0.0026
     26 C         -10.6306  -19.5167   21.1720 C.3     1  UNL1        0.0967
     27 N         -11.3056  -18.1952   20.9527 N.3     1  UNL1       -0.2710
     28 C         -12.2696  -17.5312   21.8906 C.3     1  UNL1        0.0722
     29 C         -12.6949  -16.2313   21.2746 C.3     1  UNL1        0.0188
     30 C         -11.9937  -16.0920   19.9559 C.3     1  UNL1        0.0188
     31 C         -11.1350  -17.3057   19.7570 C.3     1  UNL1        0.0722
@<TRIPOS>BOND
     1     1     2    1
     2     2     3   am
     3     3     4    2
     4     3     5    1
     5     5     6    1
     6     6     7   ar
     7     7     8   ar
     8     8     9   ar
     9     9    10   ar
    10    10    12    1
    11    12    13    1
    12    13    15    1
    13    15    16    1
    14    15    17    2
    15    15    18    2
    16    10    11   ar
    17     2    19    1
    18    19    26    1
    19    26    27    1
    20    27    28    1
    21    28    29    1
    22    29    30    1
    23    30    31    1
    24    19    20    1
    25    20    21   ar
    26    21    22   ar
    27    22    23   ar
    28    23    24   ar
    29    24    25   ar
    30    11     6   ar
    31    31    27    1
    32    25    20   ar
    33    13    14    1
@<TRIPOS>MOLECULE
*****
 31 33 0 0 0
SMALL
GASTEIGER

@<TRIPOS>ATOM
      1 C          -9.8863  -20.2336   23.1551 C.3     1  UNL1        0.1152
      2 N          -9.6410  -18.7647   23.3344 N.am    1  UNL1       -0.2740
      3 C          -9.6251  -18.1695   24.7112 C.2     1  UNL1        0.2303
      4 O          -9.8545  -19.0432   25.9087 O.2     1  UNL1       -0.2745
      5 C          -9.3798  -16.7006   24.8905 C.3     1  UNL1        0.1116
      6 C          -8.0082  -16.2069   25.2442 C.ar    1  UNL1       -0.0134
      7 C          -7.7158  -15.7402   26.6394 C.ar    1  UNL1       -0.0038
      8 C          -6.3443  -15.2465   26.9932 C.ar    1  UNL1       -0.0006
      9 C          -5.2651  -15.2196   25.9517 C.ar    1  UNL1       -0.0029
     10 C          -5.5575  -15.6863   24.5565 C.ar    1  UNL1       -0.0051
     11 C          -6.9291  -16.1800   24.2028 C.ar    1  UNL1       -0.0067
     12 C          -4.4784  -15.6594   23.5150 C.3     1  UNL1        0.1173
     13 N          -3.7241  -16.9130   23.1839 N.3     1  UNL1       -0.1788
     14 H          -4.4152  -17.6040   22.8920 H       1  UNL1        0.1488
     15 S          -2.6604  -16.8911   22.1266 S.O2    1  UNL1        0.0429
     16 C          -1.5966  -16.8693   21.0693 C.3     1  UNL1        0.1957
     17 O          -2.8814  -15.4200   21.9346 O.2     1  UNL1       -0.1574
     18 O          -2.4393  -18.3623   22.3185 O.2     1  UNL1       -0.1574
     19 C          -9.4116  -17.8910   22.1369 C.3     1  UNL1        0.1138
     20 C         -10.5766  -17.2545   21.4387 C.ar    1  UNL1       -0.0029
     21 C         -11.9583  -17.3942   22.0056 C.ar    1  UNL1       -0.0026
     22 C         -13.1234  -16.7576   21.3073 C.ar    1  UNL1       -0.0003
     23 C         -12.9068  -15.9814   20.0422 C.ar    1  UNL1       -0.0000
     24 C         -11.5250  -15.8418   19.4753 C.ar    1  UNL1       -0.0003
     25 C         -10.3600  -16.4783   20.1735 C.ar    1  UNL1       -0.0026
     26 C          -8.0171  -17.6537   21.6376 C.3     1  UNL1        0.0967
     27 N          -7.1894  -18.8053   21.1490 N.3     1  UNL1       -0.2710
     28 C          -5.8166  -19.1712   21.6300 C.3     1  UNL1        0.0722
     29 C          -5.3679  -20.3852   20.8718 C.3     1  UNL1        0.0188
     30 C          -6.4635  -20.7697   19.9222 C.3     1  UNL1        0.0188
     31 C          -7.5892  -19.7932   20.0935 C.3     1  UNL1        0.0722
@<TRIPOS>BOND
     1     1     2    1
     2     2     3   am
     3     3     4    2
     4     3     5    1
     5     5     6    1
     6     6     7   ar
     7     7     8   ar
     8     8     9   ar
     9     9    10   ar
    10    10    12    1
    11    12    13    1
    12    13    15    1
    13    15    16    1
    14    15    17    2
    15    15    18    2
    16    10    11   ar
    17     2    19    1
    18    19    26    1
    19    26    27    1
    20    27    28    1
    21    28    29    1
    22    29    30    1
    23    30    31    1
    24    19    20    1
    25    20    21   ar
    26    21    22   ar
    27    22    23   ar
    28    23    24   ar
    29    24    25   ar
    30    11     6   ar
    31    31    27    1
    32    25    20   ar
    33    13    14    1
@<TRIPOS>MOLECULE
*****
 31 33 0 0 0
SMALL
GASTEIGER

@<TRIPOS>ATOM
      1 C          -3.5420  -20.2404   22.7082 C.3     1  UNL1        0.1152
      2 N          -4.2966  -18.9756   22.4241 N.am    1  UNL1       -0.2740
      3 C          -4.2807  -17.8531   23.4191 C.2     1  UNL1        0.2303
      4 O          -3.5101  -17.9955   24.6981 O.2     1  UNL1       -0.2745
      5 C          -5.0352  -16.5882   23.1350 C.3     1  UNL1        0.1116
      6 C          -6.2624  -16.2524   23.9296 C.ar    1  UNL1       -0.0134
      7 C          -6.1316  -15.5686   25.2583 C.ar    1  UNL1       -0.0038
      8 C          -7.3587  -15.2328   26.0529 C.ar    1  UNL1       -0.0006
      9 C          -8.7165  -15.5807   25.5188 C.ar    1  UNL1       -0.0029
     10 C          -8.8473  -16.2645   24.1902 C.ar    1  UNL1       -0.0051
     11 C          -7.6202  -16.6003   23.3956 C.ar    1  UNL1       -0.0067
     12 C         -10.2052  -16.6124   23.6561 C.3     1  UNL1        0.1173
     13 N         -10.8716  -15.7128   22.6580 N.3     1  UNL1       -0.1788
     14 H         -10.2662  -14.8998   22.5440 H       1  UNL1        0.1488
     15 S         -11.1802  -16.2195   21.2803 S.O2    1  UNL1        0.0429
     16 C         -11.4888  -16.7261   19.9026 C.3     1  UNL1        0.1957
     17 O         -12.5050  -16.7297   21.7647 O.2     1  UNL1       -0.1574
     18 O          -9.8555  -15.7092   20.7959 O.2     1  UNL1       -0.1574
     19 C          -5.0672  -18.8331   21.1451 C.3     1  UNL1        0.1138
     20 C          -6.5350  -19.1409   21.1155 C.ar    1  UNL1       -0.0029
     21 C          -7.2410  -19.5497   22.3742 C.ar    1  UNL1       -0.0026
     22 C          -8.7088  -19.8575   22.3447 C.ar    1  UNL1       -0.0003
     23 C          -9.4706  -19.7564   21.0565 C.ar    1  UNL1       -0.0000
     24 C          -8.7645  -19.3475   19.7978 C.ar    1  UNL1       -0.0003
     25 C          -7.2967  -19.0397   19.8273 C.ar    1  UNL1       -0.0026
     26 C          -4.3700  -18.3829   19.8955 C.3     1  UNL1        0.0967
     27 N          -2.9250  -17.9835   19.9454 N.3     1  UNL1       -0.2710
     28 C          -1.7791  -18.7427   19.3449 C.3     1  UNL1        0.0722
     29 C          -0.5181  -17.9832   19.6329 C.3     1  UNL1        0.0188
     30 C          -0.8846  -16.7546   20.4115 C.3     1  UNL1        0.0188
     31 C          -2.3721  -16.7548   20.6046 C.3     1  UNL1        0.0722
@<TRIPOS>BOND
     1     1     2    1
     2     2     3   am
     3     3     4    2
     4     3     5    1
     5     5     6    1
     6     6     7   ar
     7     7     8   ar
     8     8     9   ar
     9     9    10   ar
    10    10    12    1
    11    12    13    1
    12    13    15    1
    13    15    16    1
    14    15    17    2
    15    15    18    2
    16    10    11   ar
    17     2    19    1
    18    19    26    1
    19    26    27    1
    20    27    28    1
    21    28    29    1
    22    29    30    1
    23    30    31    1
    24    19    20    1
    25    20    21   ar
    26    21    22   ar
    27    22    23   ar
    28    23    24   ar
    29    24    25   ar
    30    11     6   ar
    31    31    27    1
    32    25    20   ar
    33    13    14    1
@<TRIPOS>MOLECULE
*****
 31 33 0 0 0
SMALL
GASTEIGER

@<TRIPOS>ATOM
      1 C          -8.8993  -16.8701   25.3561 C.3     1  UNL1        0.1152
      2 N          -7.8918  -16.4609   24.3229 N.am    1  UNL1       -0.2740
      3 C          -6.6609  -15.7079   24.7326 C.2     1  UNL1        0.2303
      4 O          -6.4374  -15.3641   26.1755 O.2     1  UNL1       -0.2745
      5 C          -5.6534  -15.2987   23.6994 C.3     1  UNL1        0.1116
      6 C          -4.4988  -16.2011   23.3790 C.ar    1  UNL1       -0.0134
      7 C          -4.3986  -17.5499   24.0275 C.ar    1  UNL1       -0.0038
      8 C          -3.2441  -18.4523   23.7071 C.ar    1  UNL1       -0.0006
      9 C          -2.1897  -18.0058   22.7381 C.ar    1  UNL1       -0.0029
     10 C          -2.2899  -16.6571   22.0895 C.ar    1  UNL1       -0.0051
     11 C          -3.4444  -15.7547   22.4100 C.ar    1  UNL1       -0.0067
     12 C          -1.2355  -16.2106   21.1205 C.3     1  UNL1        0.1173
     13 N          -1.1804  -16.8063   19.7450 N.3     1  UNL1       -0.1788
     14 H          -0.2023  -17.0280   19.5591 H       1  UNL1        0.1488
     15 S          -1.9717  -18.0411   19.4302 S.O2    1  UNL1        0.0429
     16 C          -2.7630  -19.2759   19.1154 C.3     1  UNL1        0.1957
     17 O          -3.1487  -17.1909   19.0535 O.2     1  UNL1       -0.1574
     18 O          -0.7948  -18.8913   19.8069 O.2     1  UNL1       -0.1574
     19 C          -8.1153  -16.8046   22.8800 C.3     1  UNL1        0.1138
     20 C          -7.5136  -18.0523   22.3044 C.ar    1  UNL1       -0.0029
     21 C          -6.6178  -17.9682   21.1043 C.ar    1  UNL1       -0.0026
     22 C          -6.0161  -19.2159   20.5286 C.ar    1  UNL1       -0.0003
     23 C          -6.3103  -20.5476   21.1532 C.ar    1  UNL1       -0.0000
     24 C          -7.2061  -20.6316   22.3534 C.ar    1  UNL1       -0.0003
     25 C          -7.8078  -19.3840   22.9290 C.ar    1  UNL1       -0.0026
     26 C          -8.9404  -15.9007   22.0127 C.3     1  UNL1        0.0967
     27 N         -10.3607  -16.2606   21.6918 N.3     1  UNL1       -0.2710
     28 C         -11.2941  -17.0373   22.5725 C.3     1  UNL1        0.0722
     29 C         -12.6073  -17.1637   21.8588 C.3     1  UNL1        0.0188
     30 C         -12.4857  -16.4651   20.5370 C.3     1  UNL1        0.0188
     31 C         -11.0972  -15.9070   20.4338 C.3     1  UNL1        0.0722
@<TRIPOS>BOND
     1     1     2    1
     2     2     3   am
     3     3     4    2
     4     3     5    1
     5     5     6    1
     6     6     7   ar
     7     7     8   ar
     8     8     9   ar
     9     9    10   ar
    10    10    12    1
    11    12    13    1
    12    13    15    1
    13    15    16    1
    14    15    17    2
    15    15    18    2
    16    10    11   ar
    17     2    19    1
    18    19    26    1
    19    26    27    1
    20    27    28    1
    21    28    29    1
    22    29    30    1
    23    30    31    1
    24    19    20    1
    25    20    21   ar
    26    21    22   ar
    27    22    23   ar
    28    23    24   ar
    29    24    25   ar
    30    11     6   ar
    31    31    27    1
    32    25    20   ar
    33    13    14    1
@<TRIPOS>MOLECULE
*****
 31 33 0 0 0
SMALL
GASTEIGER

@<TRIPOS>ATOM
      1 C          -5.4197  -18.5953   19.5372 C.3     1  UNL1        0.1152
      2 N          -5.8707  -18.9333   20.9273 N.am    1  UNL1       -0.2740
      3 C          -7.0218  -19.8726   21.1347 C.2     1  UNL1        0.2303
      4 O          -7.7218  -20.4737   19.9520 O.2     1  UNL1       -0.2745
      5 C          -7.4728  -20.2107   22.5247 C.3     1  UNL1        0.1116
      6 C          -8.8586  -19.8504   22.9720 C.ar    1  UNL1       -0.0134
      7 C          -9.3206  -20.2171   24.3511 C.ar    1  UNL1       -0.0038
      8 C         -10.7062  -19.8568   24.7984 C.ar    1  UNL1       -0.0006
      9 C         -11.6298  -19.1297   23.8666 C.ar    1  UNL1       -0.0029
     10 C         -11.1678  -18.7630   22.4875 C.ar    1  UNL1       -0.0051
     11 C          -9.7822  -19.1233   22.0402 C.ar    1  UNL1       -0.0067
     12 C         -12.0914  -18.0359   21.5557 C.3     1  UNL1        0.1173
     13 N         -12.0263  -16.5411   21.4502 N.3     1  UNL1       -0.1788
     14 H         -11.4260  -16.2182   22.2090 H       1  UNL1        0.1488
     15 S         -11.5184  -15.8993   20.1932 S.O2    1  UNL1        0.0429
     16 C         -11.0104  -15.2575   18.9361 C.3     1  UNL1        0.1957
     17 O         -10.1180  -15.9623   20.7269 O.2     1  UNL1       -0.1574
     18 O         -12.9188  -15.8363   19.6594 O.2     1  UNL1       -0.1574
     19 C          -5.1708  -18.3322   22.1099 C.3     1  UNL1        0.1138
     20 C          -5.8647  -17.2985   22.9464 C.ar    1  UNL1       -0.0029
     21 C          -5.1214  -16.6026   24.0479 C.ar    1  UNL1       -0.0026
     22 C          -5.8153  -15.5688   24.8844 C.ar    1  UNL1       -0.0003
     23 C          -7.2525  -15.2309   24.6195 C.ar    1  UNL1       -0.0000
     24 C          -7.9958  -15.9268   23.5180 C.ar    1  UNL1       -0.0003
     25 C          -7.3019  -16.9606   22.6815 C.ar    1  UNL1       -0.0026
     26 C          -3.7768  -18.7649   22.4561 C.3     1  UNL1        0.0967
     27 N          -2.6174  -18.2892   21.6318 N.3     1  UNL1       -0.2710
     28 C          -2.0916  -16.8855   21.5772 C.3     1  UNL1        0.0722
     29 C          -0.9294  -16.8623   20.6291 C.3     1  UNL1        0.0188
     30 C          -0.7370  -18.2518   20.0978 C.3     1  UNL1        0.0188
     31 C          -1.7802  -19.1336   20.7175 C.3     1  UNL1        0.0722
@<TRIPOS>BOND
     1     1     2    1
     2     2     3   am
     3     3     4    2
     4     3     5    1
     5     5     6    1
     6     6     7   ar
     7     7     8   ar
     8     8     9   ar
     9     9    10   ar
    10    10    12    1
    11    12    13    1
    12    13    15    1
    13    15    16    1
    14    15    17    2
    15    15    18    2
    16    10    11   ar
    17     2    19    1
    18    19    26    1
    19    26    27    1
    20    27    28    1
    21    28    29    1
    22    29    30    1
    23    30    31    1
    24    19    20    1
    25    20    21   ar
    26    21    22   ar
    27    22    23   ar
    28    23    24   ar
    29    24    25   ar
    30    11     6   ar
    31    31    27    1
    32    25    20   ar
    33    13    14    1
@<TRIPOS>MOLECULE
*****
 31 33 0 0 0
SMALL
GASTEIGER

@<TRIPOS>ATOM
      1 C          -8.4417  -15.7912   26.7906 C.3     1  UNL1        0.1152
      2 N          -8.0784  -15.9893   25.3488 N.am    1  UNL1       -0.2740
      3 C          -6.6784  -15.7170   24.8839 C.2     1  UNL1        0.2303
      4 O          -5.6419  -15.2466   25.8608 O.2     1  UNL1       -0.2745
      5 C          -6.3151  -15.9151   23.4421 C.3     1  UNL1        0.1116
      6 C          -5.5211  -17.1183   23.0272 C.ar    1  UNL1       -0.0134
      7 C          -6.2262  -18.3629   22.5758 C.ar    1  UNL1       -0.0038
      8 C          -5.4323  -19.5660   22.1609 C.ar    1  UNL1       -0.0006
      9 C          -3.9333  -19.5245   22.1974 C.ar    1  UNL1       -0.0029
     10 C          -3.2282  -18.2799   22.6488 C.ar    1  UNL1       -0.0051
     11 C          -4.0222  -17.0768   23.0637 C.ar    1  UNL1       -0.0067
     12 C          -1.7293  -18.2384   22.6853 C.3     1  UNL1        0.1173
     13 N          -0.9585  -17.8824   21.4488 N.3     1  UNL1       -0.1788
     14 H          -0.1581  -18.5134   21.4088 H       1  UNL1        0.1488
     15 S          -1.6249  -17.9425   20.1063 S.O2    1  UNL1        0.0429
     16 C          -2.2913  -18.0027   18.7638 C.3     1  UNL1        0.1957
     17 O          -2.1207  -16.5387   20.2895 O.2     1  UNL1       -0.1574
     18 O          -1.1291  -19.3463   19.9231 O.2     1  UNL1       -0.1574
     19 C          -9.1149  -16.4596   24.3719 C.3     1  UNL1        0.1138
     20 C          -9.3973  -17.9255   24.2258 C.ar    1  UNL1       -0.0029
     21 C          -9.1593  -18.6077   22.9113 C.ar    1  UNL1       -0.0026
     22 C          -9.4417  -20.0737   22.7651 C.ar    1  UNL1       -0.0003
     23 C          -9.9622  -20.8573   23.9335 C.ar    1  UNL1       -0.0000
     24 C         -10.2003  -20.1750   25.2480 C.ar    1  UNL1       -0.0003
     25 C          -9.9178  -18.7091   25.3941 C.ar    1  UNL1       -0.0026
     26 C          -9.8690  -15.4640   23.5411 C.3     1  UNL1        0.0967
     27 N         -10.8006  -15.9376   22.4650 N.3     1  UNL1       -0.2710
     28 C         -10.5628  -15.8401   20.9872 C.3     1  UNL1        0.0722
     29 C         -11.7487  -16.4341   20.2867 C.3     1  UNL1        0.0188
     30 C         -12.7195  -16.8987   21.3315 C.3     1  UNL1        0.0188
     31 C         -12.1335  -16.5919   22.6778 C.3     1  UNL1        0.0722
@<TRIPOS>BOND
     1     1     2    1
     2     2     3   am
     3     3     4    2
     4     3     5    1
     5     5     6    1
     6     6     7   ar
     7     7     8   ar
     8     8     9   ar
     9     9    10   ar
    10    10    12    1
    11    12    13    1
    12    13    15    1
    13    15    16    1
    14    15    17    2
    15    15    18    2
    16    10    11   ar
    17     2    19    1
    18    19    26    1
    19    26    27    1
    20    27    28    1
    21    28    29    1
    22    29    30    1
    23    30    31    1
    24    19    20    1
    25    20    21   ar
    26    21    22   ar
    27    22    23   ar
    28    23    24   ar
    29    24    25   ar
    30    11     6   ar
    31    31    27    1
    32    25    20   ar
    33    13    14    1
@<TRIPOS>MOLECULE
*****
 31 33 0 0 0
SMALL
GASTEIGER

@<TRIPOS>ATOM
      1 C          -2.8239  -19.6745   22.1660 C.3     1  UNL1        0.1152
      2 N          -3.9881  -18.7394   22.3074 N.am    1  UNL1       -0.2740
      3 C          -5.3820  -19.2335   22.0561 C.2     1  UNL1        0.2303
      4 O          -5.6115  -20.6629   21.6633 O.2     1  UNL1       -0.2745
      5 C          -6.5462  -18.2984   22.1976 C.3     1  UNL1        0.1116
      6 C          -7.9474  -18.8280   22.1192 C.ar    1  UNL1       -0.0134
      7 C          -8.4654  -19.7403   23.1912 C.ar    1  UNL1       -0.0038
      8 C          -9.8666  -20.2699   23.1128 C.ar    1  UNL1       -0.0006
      9 C         -10.7498  -19.8870   21.9624 C.ar    1  UNL1       -0.0029
     10 C         -10.2318  -18.9746   20.8904 C.ar    1  UNL1       -0.0051
     11 C          -8.8306  -18.4451   20.9688 C.ar    1  UNL1       -0.0067
     12 C         -11.1150  -18.5918   19.7401 C.3     1  UNL1        0.1173
     13 N         -11.8024  -17.2586   19.7335 N.3     1  UNL1       -0.1788
     14 H         -12.6870  -17.3858   19.2419 H       1  UNL1        0.1488
     15 S         -12.1216  -16.5730   21.0289 S.O2    1  UNL1        0.0429
     16 C         -12.4407  -15.8873   22.3243 C.3     1  UNL1        0.1957
     17 O         -13.2625  -17.5213   21.2497 O.2     1  UNL1       -0.1574
     18 O         -10.9806  -15.6246   20.8080 O.2     1  UNL1       -0.1574
     19 C          -3.7586  -17.3100   22.7003 C.3     1  UNL1        0.1138
     20 C          -4.4227  -16.7527   23.9243 C.ar    1  UNL1       -0.0029
     21 C          -4.1191  -17.3347   25.2730 C.ar    1  UNL1       -0.0026
     22 C          -4.7832  -16.7773   26.4971 C.ar    1  UNL1       -0.0003
     23 C          -5.7509  -15.6380   26.3724 C.ar    1  UNL1       -0.0000
     24 C          -6.0545  -15.0560   25.0236 C.ar    1  UNL1       -0.0003
     25 C          -5.3904  -15.6134   23.7996 C.ar    1  UNL1       -0.0026
     26 C          -2.8649  -16.4380   21.8690 C.3     1  UNL1        0.0967
     27 N          -2.1852  -17.0008   20.6560 N.3     1  UNL1       -0.2710
     28 C          -0.7281  -17.3368   20.5381 C.3     1  UNL1        0.0722
     29 C          -0.4856  -17.8701   19.1572 C.3     1  UNL1        0.0188
     30 C          -1.7929  -17.8637   18.4217 C.3     1  UNL1        0.0188
     31 C          -2.8432  -17.3264   19.3480 C.3     1  UNL1        0.0722
@<TRIPOS>BOND
     1     1     2    1
     2     2     3   am
     3     3     4    2
     4     3     5    1
     5     5     6    1
     6     6     7   ar
     7     7     8   ar
     8     8     9   ar
     9     9    10   ar
    10    10    12    1
    11    12    13    1
    12    13    15    1
    13    15    16    1
    14    15    17    2
    15    15    18    2
    16    10    11   ar
    17     2    19    1
    18    19    26    1
    19    26    27    1
    20    27    28    1
    21    28    29    1
    22    29    30    1
    23    30    31    1
    24    19    20    1
    25    20    21   ar
    26    21    22   ar
    27    22    23   ar
    28    23    24   ar
    29    24    25   ar
    30    11     6   ar
    31    31    27    1
    32    25    20   ar
    33    13    14    1
