@<TRIPOS>MOLECULE
*****
 29 33 0 0 0
SMALL
GASTEIGER

@<TRIPOS>ATOM
      1 C          -1.7464    3.7027   19.7712 C.ar    1  UNL1        0.1385
      2 C          -1.1259    3.7520   18.4065 C.ar    1  UNL1        0.0384
      3 C           0.0194    2.8437   18.0702 C.ar    1  UNL1        0.0203
      4 C           0.5443    1.8862   19.0987 C.ar    1  UNL1        0.0602
      5 C          -0.0762    1.8369   20.4634 C.ar    1  UNL1        0.0204
      6 C          -1.2216    2.7452   20.7997 C.ar    1  UNL1        0.0384
      7 C           0.6491    0.7972   21.2651 C.ar    1  UNL1        0.0234
      8 C           1.7180    0.2038   20.3959 C.ar    1  UNL1        0.1143
      9 N           1.6532    0.8768   19.0569 N.ar    1  UNL1       -0.3219
     10 C           2.6122    0.4837   17.9727 C.3     1  UNL1        0.1258
     11 C           3.6361   -0.5825   18.2274 C.3     1  UNL1        0.0982
     12 C           4.5953   -0.9756   17.1432 C.3     1  UNL1        0.0236
     13 N           3.7009   -1.2555   19.5664 N.am    1  UNL1       -0.2746
     14 C           2.7418   -0.8623   20.6506 C.2     1  UNL1        0.2649
     15 O           2.8066   -1.5354   21.9896 O.2     1  UNL1       -0.2683
     16 O          -2.8919    4.6110   20.1076 O.3     1  UNL1       -0.4791
     17 N          -4.4829    4.7628   24.3142 N.3     1  UNL1       -0.2737
     18 C          -3.3682    5.6773   23.9005 C.3     1  UNL1        0.0758
     19 C          -2.8378    5.6267   22.4983 C.3     1  UNL1        0.0609
     20 C          -3.4222    4.6616   21.5098 C.3     1  UNL1        0.1687
     21 C          -4.5369    3.7471   21.9235 C.3     1  UNL1        0.0609
     22 C          -5.0672    3.7977   23.3257 C.3     1  UNL1        0.0758
     23 C          -6.3008    5.5262   26.0060 C.3     1  UNL1        0.0173
     24 C          -5.0132    4.8134   25.7164 C.3     1  UNL1        0.0576
     25 C          -4.2558    4.1512   26.8291 C.3     1  UNL1        0.0173
     26 C           4.7249   -2.3217   19.8212 C.3     1  UNL1        0.0937
     27 C           4.4104   -3.7542   19.5061 C.3     1  UNL1        0.0199
     28 C           4.7011   -5.0093   18.7380 C.3     1  UNL1        0.0018
     29 C           3.5749   -4.9800   19.7285 C.3     1  UNL1        0.0018
@<TRIPOS>BOND
     1    23    24    1
     2    24    25    1
     3    24    17    1
     4    17    18    1
     5    18    19    1
     6    19    20    1
     7    20    16    1
     8    16     1    1
     9     1     2   ar
    10     2     3   ar
    11     3     4   ar
    12     4     5   ar
    13     5     6   ar
    14     5     7   ar
    15     7     8   ar
    16     8     9   ar
    17     9    10    1
    18    10    11    1
    19    11    12    1
    20    11    13    1
    21    13    26    1
    22    26    27    1
    23    27    28    1
    24    28    29    1
    25    13    14   am
    26    14    15    2
    27    20    21    1
    28    21    22    1
    29    22    17    1
    30     6     1   ar
    31    14     8    1
    32     9     4   ar
    33    29    27    1
@<TRIPOS>MOLECULE
*****
 29 33 0 0 0
SMALL
GASTEIGER

@<TRIPOS>ATOM
      1 C           7.2977   -4.6341   23.1673 C.ar    1  UNL1        0.1385
      2 C           7.6974   -5.8904   23.8827 C.ar    1  UNL1        0.0384
      3 C           7.6236   -5.9569   25.3794 C.ar    1  UNL1        0.0203
      4 C           7.1502   -4.7671   26.1606 C.ar    1  UNL1        0.0602
      5 C           6.7506   -3.5108   25.4451 C.ar    1  UNL1        0.0204
      6 C           6.8243   -3.4443   23.9485 C.ar    1  UNL1        0.0384
      7 C           6.3266   -2.5058   26.4748 C.ar    1  UNL1        0.0234
      8 C           6.4643   -3.1410   27.8267 C.ar    1  UNL1        0.1143
      9 N           6.9733   -4.5386   27.6326 N.ar    1  UNL1       -0.3219
     10 C           7.2099   -5.4224   28.8211 C.3     1  UNL1        0.1258
     11 C           6.9375   -4.9088   30.2038 C.3     1  UNL1        0.0982
     12 C           7.1741   -5.7928   31.3924 C.3     1  UNL1        0.0236
     13 N           6.4285   -3.5113   30.3980 N.am    1  UNL1       -0.2746
     14 C           6.1918   -2.6273   29.2094 C.2     1  UNL1        0.2649
     15 O           5.6828   -1.2297   29.4036 O.2     1  UNL1       -0.2683
     16 O           7.3715   -4.5675   21.6705 O.3     1  UNL1       -0.4791
     17 N           4.5449   -1.9066   19.3945 N.3     1  UNL1       -0.2737
     18 C           4.0095   -3.0448   20.2116 C.3     1  UNL1        0.0758
     19 C           4.9517   -3.9318   20.9703 C.3     1  UNL1        0.0609
     20 C           6.4293   -3.6806   20.9119 C.3     1  UNL1        0.1687
     21 C           6.9648   -2.5423   20.0947 C.3     1  UNL1        0.0609
     22 C           6.0226   -1.6553   19.3361 C.3     1  UNL1        0.0758
     23 C           3.8085   -0.7880   17.1683 C.3     1  UNL1        0.0173
     24 C           3.6028   -1.0196   18.6359 C.3     1  UNL1        0.0576
     25 C           2.4547   -0.3643   19.3449 C.3     1  UNL1        0.0173
     26 C           6.1560   -2.9976   31.7808 C.3     1  UNL1        0.0937
     27 C           7.2041   -2.2079   32.5075 C.3     1  UNL1        0.0199
     28 C           8.6261   -2.0381   32.9534 C.3     1  UNL1        0.0018
     29 C           7.5972   -1.0101   33.3203 C.3     1  UNL1        0.0018
@<TRIPOS>BOND
     1    23    24    1
     2    24    25    1
     3    24    17    1
     4    17    18    1
     5    18    19    1
     6    19    20    1
     7    20    16    1
     8    16     1    1
     9     1     2   ar
    10     2     3   ar
    11     3     4   ar
    12     4     5   ar
    13     5     6   ar
    14     5     7   ar
    15     7     8   ar
    16     8     9   ar
    17     9    10    1
    18    10    11    1
    19    11    12    1
    20    11    13    1
    21    13    26    1
    22    26    27    1
    23    27    28    1
    24    28    29    1
    25    13    14   am
    26    14    15    2
    27    20    21    1
    28    21    22    1
    29    22    17    1
    30     6     1   ar
    31    14     8    1
    32     9     4   ar
    33    29    27    1
@<TRIPOS>MOLECULE
*****
 29 33 0 0 0
SMALL
GASTEIGER

@<TRIPOS>ATOM
      1 C           7.3353   -4.5689   23.2864 C.ar    1  UNL1        0.1385
      2 C           7.8279   -4.6162   21.8704 C.ar    1  UNL1        0.0384
      3 C           7.0853   -3.8828   20.7931 C.ar    1  UNL1        0.0203
      4 C           5.8501   -3.1021   21.1318 C.ar    1  UNL1        0.0602
      5 C           5.3575   -3.0548   22.5478 C.ar    1  UNL1        0.0204
      6 C           6.1001   -3.7882   23.6251 C.ar    1  UNL1        0.0384
      7 C           4.1193   -2.2088   22.5798 C.ar    1  UNL1        0.0234
      8 C           3.8466   -1.7332   21.1836 C.ar    1  UNL1        0.1143
      9 N           4.9163   -2.2852   20.2886 N.ar    1  UNL1       -0.3219
     10 C           4.9018   -1.9729   18.8217 C.3     1  UNL1        0.1258
     11 C           3.8177   -1.1084   18.2495 C.3     1  UNL1        0.0982
     12 C           3.8033   -0.7960   16.7825 C.3     1  UNL1        0.0236
     13 N           2.7480   -0.5564   19.1445 N.am    1  UNL1       -0.2746
     14 C           2.7624   -0.8687   20.6115 C.2     1  UNL1        0.2649
     15 O           1.6927   -0.3166   21.5065 O.2     1  UNL1       -0.2683
     16 O           8.0779   -5.3024   24.3637 O.3     1  UNL1       -0.4791
     17 N           7.1569   -4.4803   28.6911 N.3     1  UNL1       -0.2737
     18 C           6.4287   -5.5712   27.9634 C.3     1  UNL1        0.0758
     19 C           6.7357   -5.8453   26.5209 C.3     1  UNL1        0.0609
     20 C           7.7709   -5.0284   25.8061 C.3     1  UNL1        0.1687
     21 C           8.4992   -3.9374   26.5339 C.3     1  UNL1        0.0609
     22 C           8.1922   -3.6634   27.9763 C.3     1  UNL1        0.0758
     23 C           6.4575   -2.8251   30.5675 C.3     1  UNL1        0.0173
     24 C           6.8499   -4.2063   30.1335 C.3     1  UNL1        0.0576
     25 C           6.9352   -5.3135   31.1419 C.3     1  UNL1        0.0173
     26 C           1.6638    0.3082   18.5724 C.3     1  UNL1        0.0937
     27 C           1.8198    1.8000   18.5647 C.3     1  UNL1        0.0199
     28 C           2.6880    3.0146   18.4205 C.3     1  UNL1        0.0018
     29 C           1.2216    3.1693   18.6955 C.3     1  UNL1        0.0018
@<TRIPOS>BOND
     1    23    24    1
     2    24    25    1
     3    24    17    1
     4    17    18    1
     5    18    19    1
     6    19    20    1
     7    20    16    1
     8    16     1    1
     9     1     2   ar
    10     2     3   ar
    11     3     4   ar
    12     4     5   ar
    13     5     6   ar
    14     5     7   ar
    15     7     8   ar
    16     8     9   ar
    17     9    10    1
    18    10    11    1
    19    11    12    1
    20    11    13    1
    21    13    26    1
    22    26    27    1
    23    27    28    1
    24    28    29    1
    25    13    14   am
    26    14    15    2
    27    20    21    1
    28    21    22    1
    29    22    17    1
    30     6     1   ar
    31    14     8    1
    32     9     4   ar
    33    29    27    1
@<TRIPOS>MOLECULE
*****
 29 33 0 0 0
SMALL
GASTEIGER

@<TRIPOS>ATOM
      1 C          -0.4966    2.8673   20.1113 C.ar    1  UNL1        0.1385
      2 C          -0.3554    2.2206   21.4573 C.ar    1  UNL1        0.0384
      3 C           0.6453    1.1217   21.6601 C.ar    1  UNL1        0.0203
      4 C           1.5047    0.6696   20.5169 C.ar    1  UNL1        0.0602
      5 C           1.3635    1.3163   19.1709 C.ar    1  UNL1        0.0204
      6 C           0.3629    2.4151   18.9681 C.ar    1  UNL1        0.0384
      7 C           2.3413    0.6645   18.2387 C.ar    1  UNL1        0.0234
      8 C           3.0868   -0.3851   19.0085 C.ar    1  UNL1        0.1143
      9 N           2.5698   -0.3820   20.4166 N.ar    1  UNL1       -0.3219
     10 C           3.1356   -1.3369   21.4254 C.3     1  UNL1        0.1258
     11 C           4.2184   -2.2951   21.0262 C.3     1  UNL1        0.0982
     12 C           4.7842   -3.2502   22.0350 C.3     1  UNL1        0.0236
     13 N           4.7354   -2.2983   19.6181 N.am    1  UNL1       -0.2746
     14 C           4.1696   -1.3432   18.6092 C.2     1  UNL1        0.2649
     15 O           4.6866   -1.3464   17.2011 O.2     1  UNL1       -0.2683
     16 O          -1.4973    3.9662   19.9084 O.3     1  UNL1       -0.4791
     17 N          -4.9776    4.3891   22.7295 N.3     1  UNL1       -0.2737
     18 C          -4.9948    3.3262   21.6713 C.3     1  UNL1        0.0758
     19 C          -3.8347    3.1852   20.7309 C.3     1  UNL1        0.0609
     20 C          -2.6574    4.1071   20.8487 C.3     1  UNL1        0.1687
     21 C          -2.6402    5.1701   21.9070 C.3     1  UNL1        0.0609
     22 C          -3.8003    5.3110   22.8474 C.3     1  UNL1        0.0758
     23 C          -5.8944    4.7533   25.1330 C.3     1  UNL1        0.0173
     24 C          -6.1377    4.5300   23.6698 C.3     1  UNL1        0.0576
     25 C          -7.5413    4.4477   23.1469 C.3     1  UNL1        0.0173
     26 C           5.8183   -3.2565   19.2188 C.3     1  UNL1        0.0937
     27 C           7.2548   -2.9198   19.4891 C.3     1  UNL1        0.0199
     28 C           8.5767   -2.3924   19.0154 C.3     1  UNL1        0.0018
     29 C           8.4209   -2.8639   20.4309 C.3     1  UNL1        0.0018
@<TRIPOS>BOND
     1    23    24    1
     2    24    25    1
     3    24    17    1
     4    17    18    1
     5    18    19    1
     6    19    20    1
     7    20    16    1
     8    16     1    1
     9     1     2   ar
    10     2     3   ar
    11     3     4   ar
    12     4     5   ar
    13     5     6   ar
    14     5     7   ar
    15     7     8   ar
    16     8     9   ar
    17     9    10    1
    18    10    11    1
    19    11    12    1
    20    11    13    1
    21    13    26    1
    22    26    27    1
    23    27    28    1
    24    28    29    1
    25    13    14   am
    26    14    15    2
    27    20    21    1
    28    21    22    1
    29    22    17    1
    30     6     1   ar
    31    14     8    1
    32     9     4   ar
    33    29    27    1
@<TRIPOS>MOLECULE
*****
 29 33 0 0 0
SMALL
GASTEIGER

@<TRIPOS>ATOM
      1 C          -0.0462    2.8218   19.7678 C.ar    1  UNL1        0.1385
      2 C           0.3276    2.1769   18.4661 C.ar    1  UNL1        0.0384
      3 C           1.2362    0.9834   18.4541 C.ar    1  UNL1        0.0203
      4 C           1.7710    0.4349   19.7437 C.ar    1  UNL1        0.0602
      5 C           1.3972    1.0798   21.0454 C.ar    1  UNL1        0.0204
      6 C           0.4886    2.2732   21.0574 C.ar    1  UNL1        0.0384
      7 C           2.0742    0.3226   22.1491 C.ar    1  UNL1        0.0234
      8 C           2.8664   -0.7903   21.5296 C.ar    1  UNL1        0.1143
      9 N           2.6791   -0.7209   20.0430 N.ar    1  UNL1       -0.3219
     10 C           3.3595   -1.7191   19.1539 C.3     1  UNL1        0.1258
     11 C           4.2273   -2.7868   19.7513 C.3     1  UNL1        0.0982
     12 C           4.9077   -3.7850   18.8622 C.3     1  UNL1        0.0236
     13 N           4.4147   -2.8562   21.2380 N.am    1  UNL1       -0.2746
     14 C           3.7342   -1.8579   22.1271 C.2     1  UNL1        0.2649
     15 O           3.9217   -1.9274   23.6138 O.2     1  UNL1       -0.2683
     16 O          -0.9548    4.0153   19.7798 O.3     1  UNL1       -0.4791
     17 N          -4.5375    4.0881   22.5018 N.3     1  UNL1       -0.2737
     18 C          -3.3357    4.9270   22.8212 C.3     1  UNL1        0.0758
     19 C          -2.1414    4.9027   21.9139 C.3     1  UNL1        0.0609
     20 C          -2.1490    4.0396   20.6871 C.3     1  UNL1        0.1687
     21 C          -3.3508    3.2007   20.3677 C.3     1  UNL1        0.0609
     22 C          -4.5450    3.2250   21.2750 C.3     1  UNL1        0.0758
     23 C          -7.1080    4.2686   22.8334 C.3     1  UNL1        0.0173
     24 C          -5.7317    4.1124   23.4091 C.3     1  UNL1        0.0576
     25 C          -5.5496    3.9806   24.8922 C.3     1  UNL1        0.0173
     26 C           5.2826   -3.9238   21.8355 C.3     1  UNL1        0.0937
     27 C           6.7711   -3.7438   21.8779 C.3     1  UNL1        0.0199
     28 C           8.0384   -3.5841   22.6642 C.3     1  UNL1        0.0018
     29 C           8.0820   -3.5918   21.1649 C.3     1  UNL1        0.0018
@<TRIPOS>BOND
     1    23    24    1
     2    24    25    1
     3    24    17    1
     4    17    18    1
     5    18    19    1
     6    19    20    1
     7    20    16    1
     8    16     1    1
     9     1     2   ar
    10     2     3   ar
    11     3     4   ar
    12     4     5   ar
    13     5     6   ar
    14     5     7   ar
    15     7     8   ar
    16     8     9   ar
    17     9    10    1
    18    10    11    1
    19    11    12    1
    20    11    13    1
    21    13    26    1
    22    26    27    1
    23    27    28    1
    24    28    29    1
    25    13    14   am
    26    14    15    2
    27    20    21    1
    28    21    22    1
    29    22    17    1
    30     6     1   ar
    31    14     8    1
    32     9     4   ar
    33    29    27    1
@<TRIPOS>MOLECULE
*****
 29 33 0 0 0
SMALL
GASTEIGER

@<TRIPOS>ATOM
      1 C           6.5433   -3.3277   29.2962 C.ar    1  UNL1        0.1385
      2 C           5.7765   -2.0792   28.9750 C.ar    1  UNL1        0.0384
      3 C           5.5018   -1.7144   27.5462 C.ar    1  UNL1        0.0203
      4 C           5.9939   -2.5982   26.4386 C.ar    1  UNL1        0.0602
      5 C           6.7606   -3.8467   26.7598 C.ar    1  UNL1        0.0204
      6 C           7.0354   -4.2115   28.1885 C.ar    1  UNL1        0.0384
      7 C           7.1169   -4.5175   25.4663 C.ar    1  UNL1        0.0234
      8 C           6.5703   -3.6835   24.3457 C.ar    1  UNL1        0.1143
      9 N           5.8762   -2.4973   24.9466 N.ar    1  UNL1       -0.3219
     10 C           5.2268   -1.4786   24.0576 C.3     1  UNL1        0.1258
     11 C           5.2714   -1.6460   22.5677 C.3     1  UNL1        0.0982
     12 C           4.6220   -0.6273   21.6786 C.3     1  UNL1        0.0236
     13 N           5.9655   -2.8323   21.9668 N.am    1  UNL1       -0.2746
     14 C           6.6150   -3.8510   22.8558 C.2     1  UNL1        0.2649
     15 O           7.3091   -5.0373   22.2548 O.2     1  UNL1       -0.2683
     16 O           6.8180   -3.6926   30.7250 O.3     1  UNL1       -0.4791
     17 N           5.6413   -0.8771   34.0323 N.3     1  UNL1       -0.2737
     18 C           4.6644   -1.9019   33.5367 C.3     1  UNL1        0.0758
     19 C           5.0567   -2.8404   32.4342 C.3     1  UNL1        0.0609
     20 C           6.4258   -2.7541   31.8274 C.3     1  UNL1        0.1687
     21 C           7.4026   -1.7293   32.3231 C.3     1  UNL1        0.0609
     22 C           7.0103   -0.7909   33.4255 C.3     1  UNL1        0.0758
     23 C           4.3523    1.2279   34.8431 C.3     1  UNL1        0.0173
     24 C           5.2490    0.0613   35.1347 C.3     1  UNL1        0.0576
     25 C           5.7534   -0.1668   36.5289 C.3     1  UNL1        0.0173
     26 C           6.0102   -2.9998   20.4767 C.3     1  UNL1        0.0937
     27 C           4.9663   -3.8239   19.7830 C.3     1  UNL1        0.0199
     28 C           4.5876   -5.0338   18.9815 C.3     1  UNL1        0.0018
     29 C           3.5371   -4.0413   19.3832 C.3     1  UNL1        0.0018
@<TRIPOS>BOND
     1    23    24    1
     2    24    25    1
     3    24    17    1
     4    17    18    1
     5    18    19    1
     6    19    20    1
     7    20    16    1
     8    16     1    1
     9     1     2   ar
    10     2     3   ar
    11     3     4   ar
    12     4     5   ar
    13     5     6   ar
    14     5     7   ar
    15     7     8   ar
    16     8     9   ar
    17     9    10    1
    18    10    11    1
    19    11    12    1
    20    11    13    1
    21    13    26    1
    22    26    27    1
    23    27    28    1
    24    28    29    1
    25    13    14   am
    26    14    15    2
    27    20    21    1
    28    21    22    1
    29    22    17    1
    30     6     1   ar
    31    14     8    1
    32     9     4   ar
    33    29    27    1
@<TRIPOS>MOLECULE
*****
 29 33 0 0 0
SMALL
GASTEIGER

@<TRIPOS>ATOM
      1 C           3.6649   -1.8595   19.3018 C.ar    1  UNL1        0.1385
      2 C           4.3098   -0.8239   18.4291 C.ar    1  UNL1        0.0384
      3 C           3.6562    0.5134   18.2439 C.ar    1  UNL1        0.0203
      4 C           2.3577    0.8151   18.9315 C.ar    1  UNL1        0.0602
      5 C           1.7128   -0.2204   19.8042 C.ar    1  UNL1        0.0204
      6 C           2.3664   -1.5577   19.9894 C.ar    1  UNL1        0.0384
      7 C           0.4416    0.3596   20.3497 C.ar    1  UNL1        0.0234
      8 C           0.3008    1.7537   19.8142 C.ar    1  UNL1        0.1143
      9 N           1.4850    2.0352   18.9376 N.ar    1  UNL1       -0.3219
     10 C           1.6158    3.3661   18.2583 C.3     1  UNL1        0.1258
     11 C           0.5623    4.4155   18.4555 C.3     1  UNL1        0.0982
     12 C           0.6930    5.7465   17.7762 C.3     1  UNL1        0.0236
     13 N          -0.6219    4.1340   19.3321 N.am    1  UNL1       -0.2746
     14 C          -0.7527    2.8030   20.0114 C.2     1  UNL1        0.2649
     15 O          -1.9370    2.5215   20.8880 O.2     1  UNL1       -0.2683
     16 O           4.3186   -3.1969   19.4870 O.3     1  UNL1       -0.4791
     17 N           6.7999   -4.0000   23.1541 N.3     1  UNL1       -0.2737
     18 C           7.4232   -4.0886   21.7927 C.3     1  UNL1        0.0758
     19 C           6.5961   -3.8209   20.5702 C.3     1  UNL1        0.0609
     20 C           5.1457   -3.4646   20.7093 C.3     1  UNL1        0.1687
     21 C           4.5224   -3.3759   22.0709 C.3     1  UNL1        0.0609
     22 C           5.3495   -3.6436   23.2932 C.3     1  UNL1        0.0758
     23 C           9.1209   -4.1483   24.3121 C.3     1  UNL1        0.0173
     24 C           7.6271   -4.2677   24.3765 C.3     1  UNL1        0.0576
     25 C           6.9603   -4.6548   25.6632 C.3     1  UNL1        0.0173
     26 C          -1.6755    5.1834   19.5293 C.3     1  UNL1        0.0937
     27 C          -2.9831    5.0794   18.8018 C.3     1  UNL1        0.0199
     28 C          -4.3033    5.6748   18.4113 C.3     1  UNL1        0.0018
     29 C          -3.9278    4.3038   17.9323 C.3     1  UNL1        0.0018
@<TRIPOS>BOND
     1    23    24    1
     2    24    25    1
     3    24    17    1
     4    17    18    1
     5    18    19    1
     6    19    20    1
     7    20    16    1
     8    16     1    1
     9     1     2   ar
    10     2     3   ar
    11     3     4   ar
    12     4     5   ar
    13     5     6   ar
    14     5     7   ar
    15     7     8   ar
    16     8     9   ar
    17     9    10    1
    18    10    11    1
    19    11    12    1
    20    11    13    1
    21    13    26    1
    22    26    27    1
    23    27    28    1
    24    28    29    1
    25    13    14   am
    26    14    15    2
    27    20    21    1
    28    21    22    1
    29    22    17    1
    30     6     1   ar
    31    14     8    1
    32     9     4   ar
    33    29    27    1
@<TRIPOS>MOLECULE
*****
 29 33 0 0 0
SMALL
GASTEIGER

@<TRIPOS>ATOM
      1 C           0.2140    3.7568   22.9303 C.ar    1  UNL1        0.1385
      2 C           0.0543    3.9875   21.4569 C.ar    1  UNL1        0.0384
      3 C           0.7423    3.0838   20.4773 C.ar    1  UNL1        0.0203
      4 C           1.5902    1.9492   20.9711 C.ar    1  UNL1        0.0602
      5 C           1.7500    1.7184   22.4446 C.ar    1  UNL1        0.0204
      6 C           1.0619    2.6222   23.4242 C.ar    1  UNL1        0.0384
      7 C           2.6427    0.5279   22.6331 C.ar    1  UNL1        0.0234
      8 C           3.0347    0.0228   21.2762 C.ar    1  UNL1        0.1143
      9 N           2.3842    0.9013   20.2490 N.ar    1  UNL1       -0.3219
     10 C           2.5989    0.6334   18.7888 C.3     1  UNL1        0.1258
     11 C           3.4641   -0.5128   18.3559 C.3     1  UNL1        0.0982
     12 C           3.6789   -0.7807   16.8957 C.3     1  UNL1        0.0236
     13 N           4.1146   -1.3912   19.3831 N.am    1  UNL1       -0.2746
     14 C           3.8999   -1.1234   20.8433 C.2     1  UNL1        0.2649
     15 O           4.5505   -2.0019   21.8705 O.2     1  UNL1       -0.2683
     16 O          -0.4741    4.6606   23.9100 O.3     1  UNL1       -0.4791
     17 N          -4.9670    4.9029   23.9760 N.3     1  UNL1       -0.2737
     18 C          -4.2886    3.5657   23.9359 C.3     1  UNL1        0.0758
     19 C          -2.7909    3.4849   23.9140 C.3     1  UNL1        0.0609
     20 C          -1.9717    4.7413   23.9320 C.3     1  UNL1        0.1687
     21 C          -2.6502    6.0785   23.9720 C.3     1  UNL1        0.0609
     22 C          -4.1478    6.1593   23.9940 C.3     1  UNL1        0.0758
     23 C          -7.1571    5.7835   25.0613 C.3     1  UNL1        0.0173
     24 C          -6.4647    4.9836   23.9979 C.3     1  UNL1        0.0576
     25 C          -7.2699    4.2645   22.9565 C.3     1  UNL1        0.0173
     26 C           4.9799   -2.5376   18.9501 C.3     1  UNL1        0.0937
     27 C           4.4677   -3.9438   19.0514 C.3     1  UNL1        0.0199
     28 C           4.5644   -5.3919   18.6726 C.3     1  UNL1        0.0018
     29 C           3.4840   -4.9313   19.6055 C.3     1  UNL1        0.0018
@<TRIPOS>BOND
     1    23    24    1
     2    24    25    1
     3    24    17    1
     4    17    18    1
     5    18    19    1
     6    19    20    1
     7    20    16    1
     8    16     1    1
     9     1     2   ar
    10     2     3   ar
    11     3     4   ar
    12     4     5   ar
    13     5     6   ar
    14     5     7   ar
    15     7     8   ar
    16     8     9   ar
    17     9    10    1
    18    10    11    1
    19    11    12    1
    20    11    13    1
    21    13    26    1
    22    26    27    1
    23    27    28    1
    24    28    29    1
    25    13    14   am
    26    14    15    2
    27    20    21    1
    28    21    22    1
    29    22    17    1
    30     6     1   ar
    31    14     8    1
    32     9     4   ar
    33    29    27    1
@<TRIPOS>MOLECULE
*****
 29 33 0 0 0
SMALL
GASTEIGER

@<TRIPOS>ATOM
      1 C           0.8782    1.6322   27.6733 C.ar    1  UNL1        0.1385
      2 C          -0.2971    1.7474   26.7485 C.ar    1  UNL1        0.0384
      3 C          -0.1302    1.4647   25.2849 C.ar    1  UNL1        0.0203
      4 C           1.2119    1.0668   24.7461 C.ar    1  UNL1        0.0602
      5 C           2.3872    0.9516   25.6710 C.ar    1  UNL1        0.0204
      6 C           2.2204    1.2343   27.1346 C.ar    1  UNL1        0.0384
      7 C           3.5790    0.5422   24.8572 C.ar    1  UNL1        0.0234
      8 C           3.1402    0.4044   23.4295 C.ar    1  UNL1        0.1143
      9 N           1.6773    0.7286   23.3607 N.ar    1  UNL1       -0.3219
     10 C           0.9580    0.6740   22.0457 C.3     1  UNL1        0.1258
     11 C           1.7016    0.2952   20.7992 C.3     1  UNL1        0.0982
     12 C           0.9823    0.2406   19.4841 C.3     1  UNL1        0.0236
     13 N           3.1645   -0.0290   20.8680 N.am    1  UNL1       -0.2746
     14 C           3.8839    0.0256   22.1831 C.2     1  UNL1        0.2649
     15 O           5.3469   -0.2986   22.2518 O.2     1  UNL1       -0.2683
     16 O           0.7114    1.9150   29.1370 O.3     1  UNL1       -0.4791
     17 N           3.2280   -0.2796   32.1537 N.3     1  UNL1       -0.2737
     18 C           2.7592    1.1159   32.4412 C.3     1  UNL1        0.0758
     19 C           1.9203    1.8475   31.4356 C.3     1  UNL1        0.0609
     20 C           1.5502    1.1834   30.1425 C.3     1  UNL1        0.1687
     21 C           2.0190   -0.2122   29.8550 C.3     1  UNL1        0.0609
     22 C           2.8579   -0.9437   30.8606 C.3     1  UNL1        0.0758
     23 C           4.5754   -0.2947   34.3750 C.3     1  UNL1        0.0173
     24 C           4.0668   -1.0112   33.1592 C.3     1  UNL1        0.0576
     25 C           4.3972   -2.4592   32.9490 C.3     1  UNL1        0.0173
     26 C           3.9082   -0.4078   19.6215 C.3     1  UNL1        0.0937
     27 C           4.0762   -1.8535   19.2585 C.3     1  UNL1        0.0199
     28 C           3.5756   -3.2671   19.2891 C.3     1  UNL1        0.0018
     29 C           4.8677   -2.9438   18.5992 C.3     1  UNL1        0.0018
@<TRIPOS>BOND
     1    23    24    1
     2    24    25    1
     3    24    17    1
     4    17    18    1
     5    18    19    1
     6    19    20    1
     7    20    16    1
     8    16     1    1
     9     1     2   ar
    10     2     3   ar
    11     3     4   ar
    12     4     5   ar
    13     5     6   ar
    14     5     7   ar
    15     7     8   ar
    16     8     9   ar
    17     9    10    1
    18    10    11    1
    19    11    12    1
    20    11    13    1
    21    13    26    1
    22    26    27    1
    23    27    28    1
    24    28    29    1
    25    13    14   am
    26    14    15    2
    27    20    21    1
    28    21    22    1
    29    22    17    1
    30     6     1   ar
    31    14     8    1
    32     9     4   ar
    33    29    27    1
