@<TRIPOS>MOLECULE
*****
 17 18 0 0 0
SMALL
GASTEIGER

@<TRIPOS>ATOM
      1 C          -9.6504  -18.2222   23.2430 C.ar    1  UNL1        0.1386
      2 C          -9.2993  -19.6790   23.1748 C.ar    1  UNL1        0.0384
      3 C          -7.9754  -20.1060   22.6137 C.ar    1  UNL1        0.0207
      4 C          -7.0025  -19.0762   22.1208 C.ar    1  UNL1        0.0654
      5 C          -7.3535  -17.6195   22.1889 C.ar    1  UNL1        0.0207
      6 C          -8.6774  -17.1925   22.7500 C.ar    1  UNL1        0.0384
      7 N          -5.6785  -19.5032   21.5596 N.ar    1  UNL1       -0.2915
      8 C          -5.4706  -20.4251   20.3948 C.ar    1  UNL1        0.1825
      9 N          -3.9936  -20.5749   20.1801 N.ar    1  UNL1       -0.2224
     10 C          -3.2887  -19.7457   21.2123 C.ar    1  UNL1        0.1137
     11 C          -4.3300  -19.0833   22.0649 C.ar    1  UNL1        0.0623
     12 C          -4.0687  -18.1627   23.2200 C.3     1  UNL1        0.0521
     13 O         -10.9743  -17.7953   23.8041 O.3     1  UNL1       -0.4755
     14 C         -12.0168  -17.2059   22.9008 C.3     1  UNL1        0.2054
     15 C         -12.3701  -17.8926   21.6150 C.3     1  UNL1        0.0473
     16 C         -10.7240  -18.6113   19.7377 C.3     1  UNL1        0.0001
     17 C         -11.6104  -17.5743   20.3613 C.3     1  UNL1        0.0038
@<TRIPOS>BOND
     1    16    17    1
     2    17    15    1
     3    15    14    1
     4    14    13    1
     5    13     1    1
     6     1     2   ar
     7     2     3   ar
     8     3     4   ar
     9     4     7    1
    10     7     8   ar
    11     8     9   ar
    12     9    10   ar
    13    10    11   ar
    14    11    12    1
    15     4     5   ar
    16     5     6   ar
    17     6     1   ar
    18    11     7   ar
@<TRIPOS>MOLECULE
*****
 17 18 0 0 0
SMALL
GASTEIGER

@<TRIPOS>ATOM
      1 C          -9.5329  -19.4018   20.8946 C.ar    1  UNL1        0.1386
      2 C          -8.8639  -19.5517   22.2287 C.ar    1  UNL1        0.0384
      3 C          -7.3689  -19.6413   22.3121 C.ar    1  UNL1        0.0207
      4 C          -6.5429  -19.5809   21.0615 C.ar    1  UNL1        0.0654
      5 C          -7.2120  -19.4309   19.7274 C.ar    1  UNL1        0.0207
      6 C          -8.7070  -19.3414   19.6439 C.ar    1  UNL1        0.0384
      7 N          -5.0479  -19.6705   21.1450 N.ar    1  UNL1       -0.2915
      8 C          -4.1714  -20.5698   20.3247 C.ar    1  UNL1        0.1825
      9 N          -2.7487  -20.3316   20.7361 N.ar    1  UNL1       -0.2224
     10 C          -2.7460  -19.2850   21.8107 C.ar    1  UNL1        0.1137
     11 C          -4.1670  -18.8764   22.0633 C.ar    1  UNL1        0.0623
     12 C          -4.6264  -17.8534   23.0595 C.3     1  UNL1        0.0521
     13 O         -11.0279  -19.3122   20.8111 O.3     1  UNL1       -0.4755
     14 C         -11.7023  -17.9729   20.8484 C.3     1  UNL1        0.2054
     15 C         -12.8835  -17.7527   21.7464 C.3     1  UNL1        0.0473
     16 C         -13.9406  -18.0339   24.1029 C.3     1  UNL1        0.0001
     17 C         -12.7287  -17.8765   23.2333 C.3     1  UNL1        0.0038
@<TRIPOS>BOND
     1    16    17    1
     2    17    15    1
     3    15    14    1
     4    14    13    1
     5    13     1    1
     6     1     2   ar
     7     2     3   ar
     8     3     4   ar
     9     4     7    1
    10     7     8   ar
    11     8     9   ar
    12     9    10   ar
    13    10    11   ar
    14    11    12    1
    15     4     5   ar
    16     5     6   ar
    17     6     1   ar
    18    11     7   ar
@<TRIPOS>MOLECULE
*****
 17 18 0 0 0
SMALL
GASTEIGER

@<TRIPOS>ATOM
      1 C          -9.9781  -18.0790   23.2537 C.ar    1  UNL1        0.1386
      2 C          -9.5310  -19.5040   23.1147 C.ar    1  UNL1        0.0384
      3 C          -8.1195  -19.8113   22.7109 C.ar    1  UNL1        0.0207
      4 C          -7.1549  -18.6935   22.4461 C.ar    1  UNL1        0.0654
      5 C          -7.6019  -17.2685   22.5851 C.ar    1  UNL1        0.0207
      6 C          -9.0135  -16.9612   22.9889 C.ar    1  UNL1        0.0384
      7 N          -5.7433  -19.0008   22.0424 N.ar    1  UNL1       -0.2915
      8 C          -4.5047  -18.4073   22.6453 C.ar    1  UNL1        0.1825
      9 N          -3.3184  -18.9952   21.9403 N.ar    1  UNL1       -0.2224
     10 C          -3.8238  -19.9521   20.9017 C.ar    1  UNL1        0.1137
     11 C          -5.3225  -19.9556   20.9647 C.ar    1  UNL1        0.0623
     12 C          -6.2394  -20.7708   20.1017 C.3     1  UNL1        0.0521
     13 O         -11.3896  -17.7717   23.6575 O.3     1  UNL1       -0.4755
     14 C         -12.3576  -17.2302   22.6477 C.3     1  UNL1        0.2054
     15 C         -12.4922  -17.8915   21.3080 C.3     1  UNL1        0.0473
     16 C         -10.6052  -18.6105   19.6733 C.3     1  UNL1        0.0001
     17 C         -11.5304  -17.5571   20.2065 C.3     1  UNL1        0.0038
@<TRIPOS>BOND
     1    16    17    1
     2    17    15    1
     3    15    14    1
     4    14    13    1
     5    13     1    1
     6     1     2   ar
     7     2     3   ar
     8     3     4   ar
     9     4     7    1
    10     7     8   ar
    11     8     9   ar
    12     9    10   ar
    13    10    11   ar
    14    11    12    1
    15     4     5   ar
    16     5     6   ar
    17     6     1   ar
    18    11     7   ar
@<TRIPOS>MOLECULE
*****
 17 18 0 0 0
SMALL
GASTEIGER

@<TRIPOS>ATOM
      1 C          -6.3003  -19.4458   21.1945 C.ar    1  UNL1        0.1386
      2 C          -6.7914  -18.4852   22.2366 C.ar    1  UNL1        0.0384
      3 C          -8.2069  -17.9908   22.1933 C.ar    1  UNL1        0.0207
      4 C          -9.1313  -18.4570   21.1080 C.ar    1  UNL1        0.0654
      5 C          -8.6402  -19.4176   20.0659 C.ar    1  UNL1        0.0207
      6 C          -7.2247  -19.9120   20.1091 C.ar    1  UNL1        0.0384
      7 N         -10.5468  -17.9626   21.0647 N.ar    1  UNL1       -0.2915
      8 C         -11.1411  -17.0817   20.0060 C.ar    1  UNL1        0.1825
      9 N         -12.5782  -16.8370   20.3595 N.ar    1  UNL1       -0.2224
     10 C         -12.8721  -17.5665   21.6367 C.ar    1  UNL1        0.1137
     11 C         -11.6166  -18.2622   22.0726 C.ar    1  UNL1        0.0623
     12 C         -11.4587  -19.1088   23.3007 C.3     1  UNL1        0.0521
     13 O          -4.8848  -19.9402   21.2377 O.3     1  UNL1       -0.4755
     14 C          -3.7576  -19.0207   20.8716 C.3     1  UNL1        0.2054
     15 C          -3.2209  -19.0128   19.4710 C.3     1  UNL1        0.0473
     16 C          -0.8490  -17.9546   19.5349 C.3     1  UNL1        0.0001
     17 C          -2.2649  -17.9401   19.0401 C.3     1  UNL1        0.0038
@<TRIPOS>BOND
     1    16    17    1
     2    17    15    1
     3    15    14    1
     4    14    13    1
     5    13     1    1
     6     1     2   ar
     7     2     3   ar
     8     3     4   ar
     9     4     7    1
    10     7     8   ar
    11     8     9   ar
    12     9    10   ar
    13    10    11   ar
    14    11    12    1
    15     4     5   ar
    16     5     6   ar
    17     6     1   ar
    18    11     7   ar
@<TRIPOS>MOLECULE
*****
 17 18 0 0 0
SMALL
GASTEIGER

@<TRIPOS>ATOM
      1 C          -6.5193  -18.2226   22.3807 C.ar    1  UNL1        0.1386
      2 C          -7.1449  -16.9920   22.9671 C.ar    1  UNL1        0.0384
      3 C          -8.6056  -16.9831   23.3085 C.ar    1  UNL1        0.0207
      4 C          -9.4405  -18.2048   23.0633 C.ar    1  UNL1        0.0654
      5 C          -8.8148  -19.4355   22.4769 C.ar    1  UNL1        0.0207
      6 C          -7.3542  -19.4444   22.1356 C.ar    1  UNL1        0.0384
      7 N         -10.9011  -18.1960   23.4046 N.ar    1  UNL1       -0.2915
      8 C         -11.5254  -18.8072   24.6239 C.ar    1  UNL1        0.1825
      9 N         -13.0040  -18.5633   24.5595 N.ar    1  UNL1       -0.2224
     10 C         -13.2936  -17.8013   23.3003 C.ar    1  UNL1        0.1137
     11 C         -11.9940  -17.5743   22.5866 C.ar    1  UNL1        0.0623
     12 C         -11.8181  -16.8523   21.2836 C.3     1  UNL1        0.0521
     13 O          -5.0586  -18.2315   22.0394 O.3     1  UNL1       -0.4755
     14 C          -4.2865  -19.5168   22.0809 C.3     1  UNL1        0.2054
     15 C          -3.5242  -19.9732   20.8724 C.3     1  UNL1        0.0473
     16 C          -2.4674  -18.3318   19.1580 C.3     1  UNL1        0.0001
     17 C          -3.6134  -19.1968   19.5920 C.3     1  UNL1        0.0038
@<TRIPOS>BOND
     1    16    17    1
     2    17    15    1
     3    15    14    1
     4    14    13    1
     5    13     1    1
     6     1     2   ar
     7     2     3   ar
     8     3     4   ar
     9     4     7    1
    10     7     8   ar
    11     8     9   ar
    12     9    10   ar
    13    10    11   ar
    14    11    12    1
    15     4     5   ar
    16     5     6   ar
    17     6     1   ar
    18    11     7   ar
@<TRIPOS>MOLECULE
*****
 17 18 0 0 0
SMALL
GASTEIGER

@<TRIPOS>ATOM
      1 C          -6.5572  -16.2146   23.6495 C.ar    1  UNL1        0.1386
      2 C          -6.8013  -17.4608   22.8513 C.ar    1  UNL1        0.0384
      3 C          -8.1519  -17.7135   22.2496 C.ar    1  UNL1        0.0207
      4 C          -9.2584  -16.7200   22.4461 C.ar    1  UNL1        0.0654
      5 C          -9.0142  -15.4738   23.2444 C.ar    1  UNL1        0.0207
      6 C          -7.6636  -15.2211   23.8461 C.ar    1  UNL1        0.0384
      7 N         -10.6089  -16.9728   21.8444 N.ar    1  UNL1       -0.2915
      8 C         -11.1311  -16.3798   20.5694 C.ar    1  UNL1        0.1825
      9 N         -12.5194  -16.9034   20.3491 N.ar    1  UNL1       -0.2224
     10 C         -12.8552  -17.8200   21.4879 C.ar    1  UNL1        0.1137
     11 C         -11.6745  -17.8629   22.4121 C.ar    1  UNL1        0.0623
     12 C         -11.5766  -18.6566   23.6811 C.3     1  UNL1        0.0521
     13 O          -5.2066  -15.9618   24.2512 O.3     1  UNL1       -0.4755
     14 C          -5.0955  -15.3126   25.5988 C.3     1  UNL1        0.2054
     15 C          -5.7493  -15.9444   26.7919 C.3     1  UNL1        0.0473
     16 C          -8.2662  -16.1624   27.3984 C.3     1  UNL1        0.0001
     17 C          -7.0045  -15.3520   27.3607 C.3     1  UNL1        0.0038
@<TRIPOS>BOND
     1    16    17    1
     2    17    15    1
     3    15    14    1
     4    14    13    1
     5    13     1    1
     6     1     2   ar
     7     2     3   ar
     8     3     4   ar
     9     4     7    1
    10     7     8   ar
    11     8     9   ar
    12     9    10   ar
    13    10    11   ar
    14    11    12    1
    15     4     5   ar
    16     5     6   ar
    17     6     1   ar
    18    11     7   ar
@<TRIPOS>MOLECULE
*****
 17 18 0 0 0
SMALL
GASTEIGER

@<TRIPOS>ATOM
      1 C          -6.2062  -17.7184   22.6379 C.ar    1  UNL1        0.1386
      2 C          -6.8569  -18.7447   21.7586 C.ar    1  UNL1        0.0384
      3 C          -8.3384  -18.7038   21.5277 C.ar    1  UNL1        0.0207
      4 C          -9.1693  -17.6365   22.1761 C.ar    1  UNL1        0.0654
      5 C          -8.5186  -16.6101   23.0554 C.ar    1  UNL1        0.0207
      6 C          -7.0371  -16.6511   23.2863 C.ar    1  UNL1        0.0384
      7 N         -10.6509  -17.5955   21.9453 N.ar    1  UNL1       -0.2915
      8 C         -11.3368  -17.1027   20.7057 C.ar    1  UNL1        0.1825
      9 N         -12.8165  -17.2428   20.9077 N.ar    1  UNL1       -0.2224
     10 C         -13.0451  -17.8222   22.2723 C.ar    1  UNL1        0.1137
     11 C         -11.7067  -18.0402   22.9135 C.ar    1  UNL1        0.0623
     12 C         -11.4663  -18.6039   24.2826 C.3     1  UNL1        0.0521
     13 O          -4.7246  -17.7593   22.8687 O.3     1  UNL1       -0.4755
     14 C          -3.9636  -19.0301   22.6322 C.3     1  UNL1        0.2054
     15 C          -2.6423  -18.9921   21.9232 C.3     1  UNL1        0.0473
     16 C          -3.7859  -19.3968   19.6257 C.3     1  UNL1        0.0001
     17 C          -2.5534  -19.3936   20.4806 C.3     1  UNL1        0.0038
@<TRIPOS>BOND
     1    16    17    1
     2    17    15    1
     3    15    14    1
     4    14    13    1
     5    13     1    1
     6     1     2   ar
     7     2     3   ar
     8     3     4   ar
     9     4     7    1
    10     7     8   ar
    11     8     9   ar
    12     9    10   ar
    13    10    11   ar
    14    11    12    1
    15     4     5   ar
    16     5     6   ar
    17     6     1   ar
    18    11     7   ar
@<TRIPOS>MOLECULE
*****
 17 18 0 0 0
SMALL
GASTEIGER

@<TRIPOS>ATOM
      1 C          -8.8852  -16.1602   24.7759 C.ar    1  UNL1        0.1386
      2 C          -9.5123  -17.5224   24.8083 C.ar    1  UNL1        0.0384
      3 C          -9.5940  -18.3405   23.5537 C.ar    1  UNL1        0.0207
      4 C          -9.0487  -17.7964   22.2667 C.ar    1  UNL1        0.0654
      5 C          -8.4216  -16.4342   22.2342 C.ar    1  UNL1        0.0207
      6 C          -8.3399  -15.6161   23.4888 C.ar    1  UNL1        0.0384
      7 N          -9.1304  -18.6146   21.0121 N.ar    1  UNL1       -0.2915
      8 C         -10.3751  -18.9001   20.2252 C.ar    1  UNL1        0.1825
      9 N          -9.9958  -19.7528   19.0509 N.ar    1  UNL1       -0.2224
     10 C          -8.5166  -19.9943   19.1120 C.ar    1  UNL1        0.1137
     11 C          -7.9818  -19.2908   20.3241 C.ar    1  UNL1        0.0623
     12 C          -6.5498  -19.2677   20.7699 C.3     1  UNL1        0.0521
     13 O          -8.8035  -15.3421   26.0304 O.3     1  UNL1       -0.4755
     14 C          -8.1265  -15.9002   27.2470 C.3     1  UNL1        0.2054
     15 C          -6.6288  -15.9312   27.3240 C.3     1  UNL1        0.0473
     16 C          -5.1367  -15.7679   25.2033 C.3     1  UNL1        0.0001
     17 C          -5.8116  -15.1106   26.3706 C.3     1  UNL1        0.0038
@<TRIPOS>BOND
     1    16    17    1
     2    17    15    1
     3    15    14    1
     4    14    13    1
     5    13     1    1
     6     1     2   ar
     7     2     3   ar
     8     3     4   ar
     9     4     7    1
    10     7     8   ar
    11     8     9   ar
    12     9    10   ar
    13    10    11   ar
    14    11    12    1
    15     4     5   ar
    16     5     6   ar
    17     6     1   ar
    18    11     7   ar
@<TRIPOS>MOLECULE
*****
 17 18 0 0 0
SMALL
GASTEIGER

@<TRIPOS>ATOM
      1 C          -9.1142  -17.7594   21.1985 C.ar    1  UNL1        0.1386
      2 C          -9.7075  -16.6019   21.9455 C.ar    1  UNL1        0.0384
      3 C          -8.9549  -15.9788   23.0837 C.ar    1  UNL1        0.0207
      4 C          -7.6091  -16.5133   23.4748 C.ar    1  UNL1        0.0654
      5 C          -7.0158  -17.6708   22.7278 C.ar    1  UNL1        0.0207
      6 C          -7.7684  -18.2938   21.5896 C.ar    1  UNL1        0.0384
      7 N          -6.8565  -15.8902   24.6130 N.ar    1  UNL1       -0.2915
      8 C          -5.5420  -15.1746   24.5141 C.ar    1  UNL1        0.1825
      9 N          -5.1594  -14.7155   25.8899 N.ar    1  UNL1       -0.2224
     10 C          -6.2375  -15.1474   26.8392 C.ar    1  UNL1        0.1137
     11 C          -7.2863  -15.8734   26.0500 C.ar    1  UNL1        0.0623
     12 C          -8.5442  -16.4767   26.6011 C.3     1  UNL1        0.0521
     13 O          -9.8667  -18.3824   20.0603 O.3     1  UNL1       -0.4755
     14 C         -10.6431  -19.6473   20.2776 C.3     1  UNL1        0.2054
     15 C         -11.4013  -19.8518   21.5556 C.3     1  UNL1        0.0473
     16 C         -10.7786  -19.5229   24.0564 C.3     1  UNL1        0.0001
     17 C         -10.6830  -20.3171   22.7875 C.3     1  UNL1        0.0038
@<TRIPOS>BOND
     1    16    17    1
     2    17    15    1
     3    15    14    1
     4    14    13    1
     5    13     1    1
     6     1     2   ar
     7     2     3   ar
     8     3     4   ar
     9     4     7    1
    10     7     8   ar
    11     8     9   ar
    12     9    10   ar
    13    10    11   ar
    14    11    12    1
    15     4     5   ar
    16     5     6   ar
    17     6     1   ar
    18    11     7   ar
