@<TRIPOS>MOLECULE
*****
 29 32 0 0 0
SMALL
GASTEIGER

@<TRIPOS>ATOM
      1 C          -6.6896  -16.4814   23.9632 C.3     1  UNL1        0.0844
      2 C          -7.8073  -15.9491   24.8102 C.3     1  UNL1        0.0243
      3 C          -9.2322  -16.2234   24.4304 C.3     1  UNL1        0.0450
      4 C          -9.5395  -17.0299   23.2036 C.ar    1  UNL1        0.0364
      5 C          -8.4218  -17.5622   22.3566 C.ar    1  UNL1        0.0115
      6 C          -9.0275  -18.3201   21.2126 C.ar    1  UNL1        0.1125
      7 N          -8.4132  -19.0601   20.0616 N.ar    1  UNL1       -0.2395
      8 C          -9.2910  -19.7363   19.0505 C.ar    1  UNL1        0.1196
      9 C         -10.7831  -19.6725   19.1906 C.ar    1  UNL1        0.1212
     10 N         -11.3974  -18.9325   20.3416 N.ar    1  UNL1       -0.2236
     11 C         -10.5196  -18.2563   21.3526 C.ar    1  UNL1        0.1614
     12 N         -10.8360  -17.4589   22.5831 N.ar    1  UNL1       -0.3101
     13 C          -6.9969  -17.2879   22.7364 C.3     1  UNL1        0.0468
     14 C          -4.9537  -15.5057   25.6320 C.3     1  UNL1        0.1149
     15 N          -5.2645  -16.2071   24.3430 N.3     1  UNL1       -0.1551
     16 S          -4.1505  -16.6342   23.4338 S.O2    1  UNL1        0.0633
     17 O          -4.1439  -17.9887   24.0783 O.2     1  UNL1       -0.1528
     18 O          -4.1572  -15.2797   22.7894 O.2     1  UNL1       -0.1528
     19 C          -3.0366  -17.0613   22.5247 C.ar    1  UNL1        0.1223
     20 C          -2.7724  -18.5200   22.2961 C.ar    1  UNL1        0.0222
     21 C          -1.6584  -18.9470   21.3869 C.ar    1  UNL1        0.0310
     22 C          -0.8085  -17.9153   20.7062 C.ar    1  UNL1        0.1402
     23 F           0.3055  -18.3423   19.7970 F       1  UNL1       -0.2042
     24 C          -1.0727  -16.4565   20.9348 C.ar    1  UNL1        0.0310
     25 C          -2.1867  -16.0295   21.8441 C.ar    1  UNL1        0.0222
     26 C         -12.2081  -17.1455   23.1020 C.3     1  UNL1        0.1488
     27 C         -12.8865  -18.0917   24.0476 C.2     1  UNL1        0.0732
     28 O         -14.3818  -18.0889   24.1674 O.co2   1  UNL1       -0.5472
     29 O         -12.0699  -19.0409   24.8736 O.co2   1  UNL1       -0.5472
@<TRIPOS>UNITY_ATOM_ATTR
28 1
charge -1
@<TRIPOS>BOND
     1    14    15    1
     2     1    15    1
     3     1     2    1
     4     2     3    1
     5     3     4    1
     6     4     5   ar
     7     5     6   ar
     8     6     7   ar
     9     7     8   ar
    10     8     9   ar
    11     9    10   ar
    12    10    11   ar
    13    11    12   ar
    14    12    26    1
    15    26    27    1
    16    27    28   ar
    17    27    29   ar
    18     5    13    1
    19    15    16    1
    20    16    17    2
    21    16    18    2
    22    16    19    1
    23    19    20   ar
    24    20    21   ar
    25    21    22   ar
    26    22    23    1
    27    22    24   ar
    28    24    25   ar
    29    13     1    1
    30    25    19   ar
    31    12     4   ar
    32    11     6   ar
@<TRIPOS>MOLECULE
*****
 29 32 0 0 0
SMALL
GASTEIGER

@<TRIPOS>ATOM
      1 C          -6.8637  -19.1812   20.9950 C.3     1  UNL1        0.0844
      2 C          -8.2139  -19.1565   20.3421 C.3     1  UNL1        0.0243
      3 C          -9.3274  -18.3577   20.9520 C.3     1  UNL1        0.0450
      4 C          -9.0906  -17.5835   22.2148 C.ar    1  UNL1        0.0364
      5 C          -7.7404  -17.6082   22.8677 C.ar    1  UNL1        0.0115
      6 C          -7.8045  -16.7521   24.0978 C.ar    1  UNL1        0.1125
      7 N          -6.7769  -16.4053   25.1339 N.ar    1  UNL1       -0.2395
      8 C          -7.1392  -15.5047   26.2774 C.ar    1  UNL1        0.1196
      9 C          -8.5291  -14.9508   26.3847 C.ar    1  UNL1        0.1212
     10 N          -9.5567  -15.2977   25.3486 N.ar    1  UNL1       -0.2236
     11 C          -9.1944  -16.1983   24.2051 C.ar    1  UNL1        0.1614
     12 N          -9.9892  -16.7121   23.0414 N.ar    1  UNL1       -0.3101
     13 C          -6.6270  -18.4070   22.2578 C.3     1  UNL1        0.0468
     14 C          -6.0149  -21.3637   19.8697 C.3     1  UNL1        0.1149
     15 N          -5.7501  -19.9801   20.3851 N.3     1  UNL1       -0.1551
     16 S          -4.3720  -19.3954   20.2908 S.O2    1  UNL1        0.0633
     17 O          -3.8961  -20.3464   21.3486 O.2     1  UNL1       -0.1528
     18 O          -4.8481  -18.4444   19.2328 O.2     1  UNL1       -0.1528
     19 C          -2.9940  -18.8107   20.1963 C.ar    1  UNL1        0.1223
     20 C          -2.4618  -18.3552   18.8699 C.ar    1  UNL1        0.0222
     21 C          -1.0837  -17.7705   18.7756 C.ar    1  UNL1        0.0310
     22 C          -0.2377  -17.6412   20.0075 C.ar    1  UNL1        0.1402
     23 F           1.1403  -17.0564   19.9131 F       1  UNL1       -0.2042
     24 C          -0.7700  -18.0967   21.3339 C.ar    1  UNL1        0.0310
     25 C          -2.1481  -18.6814   21.4283 C.ar    1  UNL1        0.0222
     26 C         -11.4298  -16.4080   22.7546 C.3     1  UNL1        0.1488
     27 C         -12.4152  -17.5273   22.5942 C.2     1  UNL1        0.0732
     28 O         -12.8288  -18.3390   23.7859 O.co2   1  UNL1       -0.5472
     29 O         -12.9871  -17.8352   21.2421 O.co2   1  UNL1       -0.5472
@<TRIPOS>UNITY_ATOM_ATTR
28 1
charge -1
@<TRIPOS>BOND
     1    14    15    1
     2     1    15    1
     3     1     2    1
     4     2     3    1
     5     3     4    1
     6     4     5   ar
     7     5     6   ar
     8     6     7   ar
     9     7     8   ar
    10     8     9   ar
    11     9    10   ar
    12    10    11   ar
    13    11    12   ar
    14    12    26    1
    15    26    27    1
    16    27    28   ar
    17    27    29   ar
    18     5    13    1
    19    15    16    1
    20    16    17    2
    21    16    18    2
    22    16    19    1
    23    19    20   ar
    24    20    21   ar
    25    21    22   ar
    26    22    23    1
    27    22    24   ar
    28    24    25   ar
    29    13     1    1
    30    25    19   ar
    31    12     4   ar
    32    11     6   ar
@<TRIPOS>MOLECULE
*****
 29 32 0 0 0
SMALL
GASTEIGER

@<TRIPOS>ATOM
      1 C          -7.2958  -19.9472   21.3428 C.3     1  UNL1        0.0844
      2 C          -7.6307  -20.3704   22.7423 C.3     1  UNL1        0.0243
      3 C          -8.8555  -19.8279   23.4171 C.3     1  UNL1        0.0450
      4 C          -9.7455  -18.8620   22.6924 C.ar    1  UNL1        0.0364
      5 C          -9.4106  -18.4388   21.2929 C.ar    1  UNL1        0.0115
      6 C         -10.4684  -17.4798   20.8330 C.ar    1  UNL1        0.1125
      7 N         -10.6590  -16.7389   19.5428 N.ar    1  UNL1       -0.2395
      8 C         -11.8383  -15.8286   19.3679 C.ar    1  UNL1        0.1196
      9 C         -12.8269  -15.6592   20.4832 C.ar    1  UNL1        0.1212
     10 N         -12.6362  -16.4000   21.7734 N.ar    1  UNL1       -0.2236
     11 C         -11.4569  -17.3103   21.9483 C.ar    1  UNL1        0.1614
     12 N         -11.0102  -18.1646   23.0975 N.ar    1  UNL1       -0.3101
     13 C          -8.1858  -18.9813   20.6181 C.3     1  UNL1        0.0468
     14 C          -6.0881  -21.8692   20.0789 C.3     1  UNL1        0.1149
     15 N          -6.0709  -20.4897   20.6679 N.3     1  UNL1       -0.1551
     16 S          -4.8291  -19.6528   20.5820 S.O2    1  UNL1        0.0633
     17 O          -4.1344  -20.7593   19.8450 O.2     1  UNL1       -0.1528
     18 O          -5.5238  -18.5463   21.3190 O.2     1  UNL1       -0.1528
     19 C          -3.5873  -18.8159   20.4961 C.ar    1  UNL1        0.1223
     20 C          -3.0946  -18.0787   21.7059 C.ar    1  UNL1        0.0222
     21 C          -1.8527  -17.2418   21.6200 C.ar    1  UNL1        0.0310
     22 C          -1.1036  -17.1420   20.3243 C.ar    1  UNL1        0.1402
     23 F           0.1383  -16.3051   20.2384 F       1  UNL1       -0.2042
     24 C          -1.5964  -17.8793   19.1144 C.ar    1  UNL1        0.0310
     25 C          -2.8382  -18.7162   19.2004 C.ar    1  UNL1        0.0222
     26 C         -11.7060  -18.2980   24.4197 C.3     1  UNL1        0.1488
     27 C         -13.1949  -18.4727   24.4694 C.2     1  UNL1        0.0732
     28 O         -14.0071  -18.3471   23.2146 O.co2   1  UNL1       -0.5472
     29 O         -13.8717  -18.7731   25.7739 O.co2   1  UNL1       -0.5472
@<TRIPOS>UNITY_ATOM_ATTR
28 1
charge -1
@<TRIPOS>BOND
     1    14    15    1
     2     1    15    1
     3     1     2    1
     4     2     3    1
     5     3     4    1
     6     4     5   ar
     7     5     6   ar
     8     6     7   ar
     9     7     8   ar
    10     8     9   ar
    11     9    10   ar
    12    10    11   ar
    13    11    12   ar
    14    12    26    1
    15    26    27    1
    16    27    28   ar
    17    27    29   ar
    18     5    13    1
    19    15    16    1
    20    16    17    2
    21    16    18    2
    22    16    19    1
    23    19    20   ar
    24    20    21   ar
    25    21    22   ar
    26    22    23    1
    27    22    24   ar
    28    24    25   ar
    29    13     1    1
    30    25    19   ar
    31    12     4   ar
    32    11     6   ar
@<TRIPOS>MOLECULE
*****
 29 32 0 0 0
SMALL
GASTEIGER

@<TRIPOS>ATOM
      1 C           0.5515    2.2817   19.9518 C.3     1  UNL1        0.0844
      2 C           0.7743    1.7158   18.5807 C.3     1  UNL1        0.0243
      3 C           1.6403    0.5044   18.4009 C.3     1  UNL1        0.0450
      4 C           2.2836   -0.1411   19.5923 C.ar    1  UNL1        0.0364
      5 C           2.0608    0.4248   20.9635 C.ar    1  UNL1        0.0115
      6 C           2.8208   -0.4200   21.9428 C.ar    1  UNL1        0.1125
      7 N           2.9716   -0.3391   23.4329 N.ar    1  UNL1       -0.2395
      8 C           3.8150   -1.3462   24.1571 C.ar    1  UNL1        0.1196
      9 C           4.5075   -2.4342   23.3911 C.ar    1  UNL1        0.1212
     10 N           4.3566   -2.5151   21.9010 N.ar    1  UNL1       -0.2236
     11 C           3.5133   -1.5080   21.1768 C.ar    1  UNL1        0.1614
     12 N           3.1813   -1.3356   19.7242 N.ar    1  UNL1       -0.3101
     13 C           1.1947    1.6362   21.1433 C.3     1  UNL1        0.0468
     14 C          -0.1218    4.6906   19.2490 C.3     1  UNL1        0.1149
     15 N          -0.3147    3.4932   20.1316 N.3     1  UNL1       -0.1551
     16 S          -1.3736    3.5071   21.1940 S.O2    1  UNL1        0.0633
     17 O          -2.1617    2.4911   20.4217 O.2     1  UNL1       -0.1528
     18 O          -0.5853    4.5233   21.9662 O.2     1  UNL1       -0.1528
     19 C          -2.4324    3.5212   22.2563 C.ar    1  UNL1        0.1223
     20 C          -2.0462    3.6686   23.6982 C.ar    1  UNL1        0.0222
     21 C          -3.1051    3.6826   24.7605 C.ar    1  UNL1        0.0310
     22 C          -4.5502    3.5492   24.3810 C.ar    1  UNL1        0.1402
     23 F          -5.6091    3.5632   25.4433 F       1  UNL1       -0.2042
     24 C          -4.9363    3.4017   22.9390 C.ar    1  UNL1        0.0310
     25 C          -3.8774    3.3877   21.8767 C.ar    1  UNL1        0.0222
     26 C           3.6625   -2.2051   18.6006 C.3     1  UNL1        0.1488
     27 C           4.5494   -1.6319   17.5355 C.2     1  UNL1        0.0732
     28 O           6.0405   -1.6989   17.6847 O.co2   1  UNL1       -0.5472
     29 O           3.9454   -0.9914   16.3210 O.co2   1  UNL1       -0.5472
@<TRIPOS>UNITY_ATOM_ATTR
28 1
charge -1
@<TRIPOS>BOND
     1    14    15    1
     2     1    15    1
     3     1     2    1
     4     2     3    1
     5     3     4    1
     6     4     5   ar
     7     5     6   ar
     8     6     7   ar
     9     7     8   ar
    10     8     9   ar
    11     9    10   ar
    12    10    11   ar
    13    11    12   ar
    14    12    26    1
    15    26    27    1
    16    27    28   ar
    17    27    29   ar
    18     5    13    1
    19    15    16    1
    20    16    17    2
    21    16    18    2
    22    16    19    1
    23    19    20   ar
    24    20    21   ar
    25    21    22   ar
    26    22    23    1
    27    22    24   ar
    28    24    25   ar
    29    13     1    1
    30    25    19   ar
    31    12     4   ar
    32    11     6   ar
@<TRIPOS>MOLECULE
*****
 29 32 0 0 0
SMALL
GASTEIGER

@<TRIPOS>ATOM
      1 C           0.7479    2.3384   20.0614 C.3     1  UNL1        0.0844
      2 C           0.9280    1.7892   18.6772 C.3     1  UNL1        0.0243
      3 C           1.7477    0.5515   18.4622 C.3     1  UNL1        0.0450
      4 C           2.3872   -0.1370   19.6314 C.ar    1  UNL1        0.0364
      5 C           2.2071    0.4122   21.0156 C.ar    1  UNL1        0.0115
      6 C           2.9527   -0.4757   21.9673 C.ar    1  UNL1        0.1125
      7 N           3.1309   -0.4263   23.4558 N.ar    1  UNL1       -0.2395
      8 C           3.9499   -1.4749   24.1483 C.ar    1  UNL1        0.1196
      9 C           4.5908   -2.5729   23.3523 C.ar    1  UNL1        0.1212
     10 N           4.4127   -2.6223   21.8638 N.ar    1  UNL1       -0.2236
     11 C           3.5936   -1.5737   21.1713 C.ar    1  UNL1        0.1614
     12 N           3.2441   -1.3644   19.7277 N.ar    1  UNL1       -0.3101
     13 C           1.3875    1.6499   21.2306 C.3     1  UNL1        0.0468
     14 C           0.5662    4.8086   20.8457 C.3     1  UNL1        0.1149
     15 N          -0.0718    3.5761   20.2764 N.3     1  UNL1       -0.1551
     16 S          -1.5293    3.5814   19.9222 S.O2    1  UNL1        0.0633
     17 O          -1.2795    4.6600   18.9102 O.2     1  UNL1       -0.1528
     18 O          -1.7791    2.5027   20.9343 O.2     1  UNL1       -0.1528
     19 C          -2.9868    3.5866   19.5680 C.ar    1  UNL1        0.1223
     20 C          -3.4145    3.8549   18.1556 C.ar    1  UNL1        0.0222
     21 C          -4.8721    3.8601   17.8014 C.ar    1  UNL1        0.0310
     22 C          -5.9021    3.5969   18.8597 C.ar    1  UNL1        0.1402
     23 F          -7.3597    3.6021   18.5056 F       1  UNL1       -0.2042
     24 C          -5.4743    3.3285   20.2722 C.ar    1  UNL1        0.0310
     25 C          -4.0168    3.3234   20.6263 C.ar    1  UNL1        0.0222
     26 C           3.6758   -2.2304   18.5815 C.3     1  UNL1        0.1488
     27 C           4.5698   -1.6718   17.5145 C.2     1  UNL1        0.0732
     28 O           6.0594   -1.7910   17.6459 O.co2   1  UNL1       -0.5472
     29 O           3.9745   -0.9939   16.3161 O.co2   1  UNL1       -0.5472
@<TRIPOS>UNITY_ATOM_ATTR
28 1
charge -1
@<TRIPOS>BOND
     1    14    15    1
     2     1    15    1
     3     1     2    1
     4     2     3    1
     5     3     4    1
     6     4     5   ar
     7     5     6   ar
     8     6     7   ar
     9     7     8   ar
    10     8     9   ar
    11     9    10   ar
    12    10    11   ar
    13    11    12   ar
    14    12    26    1
    15    26    27    1
    16    27    28   ar
    17    27    29   ar
    18     5    13    1
    19    15    16    1
    20    16    17    2
    21    16    18    2
    22    16    19    1
    23    19    20   ar
    24    20    21   ar
    25    21    22   ar
    26    22    23    1
    27    22    24   ar
    28    24    25   ar
    29    13     1    1
    30    25    19   ar
    31    12     4   ar
    32    11     6   ar
@<TRIPOS>MOLECULE
*****
 29 32 0 0 0
SMALL
GASTEIGER

@<TRIPOS>ATOM
      1 C           2.3703    0.1677   19.2336 C.3     1  UNL1        0.0844
      2 C           1.5868    0.9784   18.2442 C.3     1  UNL1        0.0243
      3 C           0.5276    1.9265   18.7230 C.3     1  UNL1        0.0450
      4 C           0.2519    2.0638   20.1910 C.ar    1  UNL1        0.0364
      5 C           1.0355    1.2531   21.1803 C.ar    1  UNL1        0.0115
      6 C           0.5446    1.5986   22.5550 C.ar    1  UNL1        0.1125
      7 N           0.9470    1.1128   23.9159 N.ar    1  UNL1       -0.2395
      8 C           0.2624    1.6513   25.1371 C.ar    1  UNL1        0.1196
      9 C          -0.8245    2.6755   24.9974 C.ar    1  UNL1        0.1212
     10 N          -1.2268    3.1613   23.6365 N.ar    1  UNL1       -0.2236
     11 C          -0.5423    2.6228   22.4153 C.ar    1  UNL1        0.1614
     12 N          -0.7232    2.9104   20.9543 N.ar    1  UNL1       -0.3101
     13 C           2.0947    0.3050   20.7016 C.3     1  UNL1        0.0468
     14 C           3.7286   -0.8929   17.2892 C.3     1  UNL1        0.1149
     15 N           3.4296   -0.7805   18.7548 N.3     1  UNL1       -0.1551
     16 S           4.1898   -1.6160   19.7417 S.O2    1  UNL1        0.0633
     17 O           3.1414   -2.6844   19.6447 O.2     1  UNL1       -0.1528
     18 O           5.2382   -0.5476   19.8387 O.2     1  UNL1       -0.1528
     19 C           4.9500   -2.4515   20.7285 C.ar    1  UNL1        0.1223
     20 C           4.3806   -2.7046   22.0930 C.ar    1  UNL1        0.0222
     21 C           5.1409   -3.5401   23.0798 C.ar    1  UNL1        0.0310
     22 C           6.4706   -4.1226   22.7023 C.ar    1  UNL1        0.1402
     23 F           7.2309   -4.9581   23.6891 F       1  UNL1       -0.2042
     24 C           7.0401   -3.8695   21.3378 C.ar    1  UNL1        0.0310
     25 C           6.2798   -3.0340   20.3509 C.ar    1  UNL1        0.0222
     26 C          -1.7065    3.8751   20.3608 C.3     1  UNL1        0.1488
     27 C          -3.1266    3.4513   20.1292 C.2     1  UNL1        0.0732
     28 O          -3.8996    2.7860   21.2292 O.co2   1  UNL1       -0.5472
     29 O          -3.7738    3.6928   18.7977 O.co2   1  UNL1       -0.5472
@<TRIPOS>UNITY_ATOM_ATTR
28 1
charge -1
@<TRIPOS>BOND
     1    14    15    1
     2     1    15    1
     3     1     2    1
     4     2     3    1
     5     3     4    1
     6     4     5   ar
     7     5     6   ar
     8     6     7   ar
     9     7     8   ar
    10     8     9   ar
    11     9    10   ar
    12    10    11   ar
    13    11    12   ar
    14    12    26    1
    15    26    27    1
    16    27    28   ar
    17    27    29   ar
    18     5    13    1
    19    15    16    1
    20    16    17    2
    21    16    18    2
    22    16    19    1
    23    19    20   ar
    24    20    21   ar
    25    21    22   ar
    26    22    23    1
    27    22    24   ar
    28    24    25   ar
    29    13     1    1
    30    25    19   ar
    31    12     4   ar
    32    11     6   ar
@<TRIPOS>MOLECULE
*****
 29 32 0 0 0
SMALL
GASTEIGER

@<TRIPOS>ATOM
      1 C           0.5186    1.9372   19.8363 C.3     1  UNL1        0.0844
      2 C           0.1525    0.5699   20.3327 C.3     1  UNL1        0.0243
      3 C           1.1066   -0.5735   20.1530 C.3     1  UNL1        0.0450
      4 C           2.4267   -0.3496   19.4768 C.ar    1  UNL1        0.0364
      5 C           2.7927    1.0177   18.9803 C.ar    1  UNL1        0.0115
      6 C           4.1546    0.9354   18.3569 C.ar    1  UNL1        0.1125
      7 N           5.0230    1.9685   17.7024 N.ar    1  UNL1       -0.2395
      8 C           6.3670    1.5835   17.1591 C.ar    1  UNL1        0.1196
      9 C           6.8426    0.1652   17.2702 C.ar    1  UNL1        0.1212
     10 N           5.9742   -0.8680   17.9247 N.ar    1  UNL1       -0.2236
     11 C           4.6302   -0.4829   18.4681 C.ar    1  UNL1        0.1614
     12 N           3.5623   -1.2770   19.1602 N.ar    1  UNL1       -0.3101
     13 C           1.8387    2.1611   19.1601 C.3     1  UNL1        0.0468
     14 C          -0.6227    4.0814   18.9144 C.3     1  UNL1        0.1149
     15 N          -0.4355    3.0808   20.0161 N.3     1  UNL1       -0.1551
     16 S          -1.2022    3.2235   21.2974 S.O2    1  UNL1        0.0633
     17 O           0.0457    3.6800   21.9933 O.2     1  UNL1       -0.1528
     18 O          -2.4502    2.7669   20.6015 O.2     1  UNL1       -0.1528
     19 C          -1.9689    3.3662   22.5786 C.ar    1  UNL1        0.1223
     20 C          -3.4561    3.5587   22.5452 C.ar    1  UNL1        0.0222
     21 C          -4.2228    3.7014   23.8266 C.ar    1  UNL1        0.0310
     22 C          -3.5024    3.6516   25.1413 C.ar    1  UNL1        0.1402
     23 F          -4.2691    3.7943   26.4226 F       1  UNL1       -0.2042
     24 C          -2.0151    3.4591   25.1747 C.ar    1  UNL1        0.0310
     25 C          -1.2484    3.3164   23.8933 C.ar    1  UNL1        0.0222
     26 C           3.6200   -2.7415   19.4795 C.3     1  UNL1        0.1488
     27 C           4.4681   -3.2283   20.6169 C.2     1  UNL1        0.0732
     28 O           5.4750   -2.3123   21.2473 O.co2   1  UNL1       -0.5472
     29 O           4.3094   -4.6310   21.1240 O.co2   1  UNL1       -0.5472
@<TRIPOS>UNITY_ATOM_ATTR
28 1
charge -1
@<TRIPOS>BOND
     1    14    15    1
     2     1    15    1
     3     1     2    1
     4     2     3    1
     5     3     4    1
     6     4     5   ar
     7     5     6   ar
     8     6     7   ar
     9     7     8   ar
    10     8     9   ar
    11     9    10   ar
    12    10    11   ar
    13    11    12   ar
    14    12    26    1
    15    26    27    1
    16    27    28   ar
    17    27    29   ar
    18     5    13    1
    19    15    16    1
    20    16    17    2
    21    16    18    2
    22    16    19    1
    23    19    20   ar
    24    20    21   ar
    25    21    22   ar
    26    22    23    1
    27    22    24   ar
    28    24    25   ar
    29    13     1    1
    30    25    19   ar
    31    12     4   ar
    32    11     6   ar
@<TRIPOS>MOLECULE
*****
 29 32 0 0 0
SMALL
GASTEIGER

@<TRIPOS>ATOM
      1 C           3.3234    0.7144   32.1788 C.3     1  UNL1        0.0844
      2 C           4.0471    0.1068   33.3437 C.3     1  UNL1        0.0243
      3 C           3.9436    0.7356   34.7016 C.3     1  UNL1        0.0450
      4 C           3.1165    1.9720   34.8946 C.ar    1  UNL1        0.0364
      5 C           2.3928    2.5796   33.7297 C.ar    1  UNL1        0.0115
      6 C           1.6581    3.7915   34.2212 C.ar    1  UNL1        0.1125
      7 N           0.7785    4.7845   33.5212 N.ar    1  UNL1       -0.2395
      8 C           0.1686    5.9189   34.2899 C.ar    1  UNL1        0.1196
      9 C           0.4382    6.0604   35.7587 C.ar    1  UNL1        0.1212
     10 N           1.3178    5.0673   36.4587 N.ar    1  UNL1       -0.2236
     11 C           1.9278    3.9329   35.6900 C.ar    1  UNL1        0.1614
     12 N           2.8291    2.8084   36.1061 N.ar    1  UNL1       -0.3101
     13 C           2.4962    1.9508   32.3718 C.3     1  UNL1        0.0468
     14 C           4.4872   -0.9396   30.5479 C.3     1  UNL1        0.1149
     15 N           3.4268    0.0857   30.8208 N.3     1  UNL1       -0.1551
     16 S           2.4699    0.4821   29.7359 S.O2    1  UNL1        0.0633
     17 O           3.4732    1.4657   29.2104 O.2     1  UNL1       -0.1528
     18 O           1.4666   -0.5015   30.2614 O.2     1  UNL1       -0.1528
     19 C           1.5130    0.8786   28.6510 C.ar    1  UNL1        0.1223
     20 C           2.0196    1.1453   27.2646 C.ar    1  UNL1        0.0222
     21 C           1.0626    1.5418   26.1797 C.ar    1  UNL1        0.0310
     22 C          -0.4011    1.6715   26.4812 C.ar    1  UNL1        0.1402
     23 F          -1.3581    2.0679   25.3963 F       1  UNL1       -0.2042
     24 C          -0.9077    1.4047   27.8677 C.ar    1  UNL1        0.0310
     25 C           0.0493    1.0082   28.9525 C.ar    1  UNL1        0.0222
     26 C           3.3513    2.5633   37.4908 C.3     1  UNL1        0.1488
     27 C           2.5290    1.7869   38.4760 C.2     1  UNL1        0.0732
     28 O           3.2030    0.9099   39.4894 O.co2   1  UNL1       -0.5472
     29 O           1.0326    1.8873   38.4481 O.co2   1  UNL1       -0.5472
@<TRIPOS>UNITY_ATOM_ATTR
28 1
charge -1
@<TRIPOS>BOND
     1    14    15    1
     2     1    15    1
     3     1     2    1
     4     2     3    1
     5     3     4    1
     6     4     5   ar
     7     5     6   ar
     8     6     7   ar
     9     7     8   ar
    10     8     9   ar
    11     9    10   ar
    12    10    11   ar
    13    11    12   ar
    14    12    26    1
    15    26    27    1
    16    27    28   ar
    17    27    29   ar
    18     5    13    1
    19    15    16    1
    20    16    17    2
    21    16    18    2
    22    16    19    1
    23    19    20   ar
    24    20    21   ar
    25    21    22   ar
    26    22    23    1
    27    22    24   ar
    28    24    25   ar
    29    13     1    1
    30    25    19   ar
    31    12     4   ar
    32    11     6   ar
@<TRIPOS>MOLECULE
*****
 29 32 0 0 0
SMALL
GASTEIGER

@<TRIPOS>ATOM
      1 C           0.3311    1.9346   23.1495 C.3     1  UNL1        0.0844
      2 C          -0.5712    2.7676   24.0109 C.3     1  UNL1        0.0243
      3 C          -0.4281    2.7296   25.5035 C.3     1  UNL1        0.0450
      4 C           0.6173    1.8585   26.1348 C.ar    1  UNL1        0.0364
      5 C           1.5195    1.0255   25.2734 C.ar    1  UNL1        0.0115
      6 C           2.4509    0.2689   26.1735 C.ar    1  UNL1        0.1125
      7 N           3.5542   -0.7056   25.8853 N.ar    1  UNL1       -0.2395
      8 C           4.3309   -1.3146   27.0148 C.ar    1  UNL1        0.1196
      9 C           4.0043   -0.9492   28.4325 C.ar    1  UNL1        0.1212
     10 N           2.9010    0.0253   28.7206 N.ar    1  UNL1       -0.2236
     11 C           2.1243    0.6343   27.5912 C.ar    1  UNL1        0.1614
     12 N           0.9910    1.6167   27.5672 N.ar    1  UNL1       -0.3101
     13 C           1.3764    1.0635   23.7808 C.3     1  UNL1        0.0468
     14 C          -0.8491    2.8532   21.0250 C.3     1  UNL1        0.1149
     15 N           0.1880    1.9726   21.6568 N.3     1  UNL1       -0.1551
     16 S           1.0820    1.1301   20.7959 S.O2    1  UNL1        0.0633
     17 O           0.0288    0.0631   20.7466 O.2     1  UNL1       -0.1528
     18 O           2.1351    2.1972   20.8453 O.2     1  UNL1       -0.1528
     19 C           1.9759    0.2877   19.9352 C.ar    1  UNL1        0.1223
     20 C           2.3858   -1.0807   20.3930 C.ar    1  UNL1        0.0222
     21 C           3.2798   -1.9231   19.5321 C.ar    1  UNL1        0.0310
     22 C           3.7640   -1.3972   18.2134 C.ar    1  UNL1        0.1402
     23 F           4.6581   -2.2396   17.3526 F       1  UNL1       -0.2042
     24 C           3.3542   -0.0287   17.7556 C.ar    1  UNL1        0.0310
     25 C           2.4602    0.8136   18.6165 C.ar    1  UNL1        0.0222
     26 C           0.3450    2.2468   28.7654 C.3     1  UNL1        0.1488
     27 C          -0.1406    1.3872   29.8946 C.2     1  UNL1        0.0732
     28 O           0.2813    1.6891   31.3021 O.co2   1  UNL1       -0.5472
     29 O          -1.0479    0.2255   29.6165 O.co2   1  UNL1       -0.5472
@<TRIPOS>UNITY_ATOM_ATTR
28 1
charge -1
@<TRIPOS>BOND
     1    14    15    1
     2     1    15    1
     3     1     2    1
     4     2     3    1
     5     3     4    1
     6     4     5   ar
     7     5     6   ar
     8     6     7   ar
     9     7     8   ar
    10     8     9   ar
    11     9    10   ar
    12    10    11   ar
    13    11    12   ar
    14    12    26    1
    15    26    27    1
    16    27    28   ar
    17    27    29   ar
    18     5    13    1
    19    15    16    1
    20    16    17    2
    21    16    18    2
    22    16    19    1
    23    19    20   ar
    24    20    21   ar
    25    21    22   ar
    26    22    23    1
    27    22    24   ar
    28    24    25   ar
    29    13     1    1
    30    25    19   ar
    31    12     4   ar
    32    11     6   ar
