@<TRIPOS>MOLECULE
*****
 39 44 0 0 0
SMALL
GASTEIGER

@<TRIPOS>ATOM
      1 C           6.0628   -3.4669   23.3617 C.3     1  UNL1        0.0616
      2 C           4.6910   -2.8749   23.4943 C.3     1  UNL1        0.0375
      3 C           4.0479   -2.2016   22.3183 C.3     1  UNL1        0.0949
      4 N           4.7766   -2.1203   21.0096 N.am    1  UNL1       -0.2773
      5 C           4.1335   -1.4470   19.8336 C.2     1  UNL1        0.2553
      6 O           4.8622   -1.3658   18.5251 O.2     1  UNL1       -0.2720
      7 C           6.1484   -2.7124   20.8772 C.3     1  UNL1        0.0949
      8 C           6.7915   -3.3857   22.0532 C.3     1  UNL1        0.0375
      9 C           8.9070   -6.0415   29.8247 C.3     1  UNL1        0.0742
     10 C           8.1309   -5.0265   29.0390 C.ar    1  UNL1        0.1477
     11 N           7.4823   -3.7920   29.5914 N.ar    1  UNL1       -0.1333
     12 N           6.8176   -3.0702   28.4569 N.ar    1  UNL1       -0.1319
     13 C           7.0554   -3.8587   27.2032 C.ar    1  UNL1        0.1636
     14 N           7.8670   -5.0677   27.5630 N.ar    1  UNL1       -0.2743
     15 C           8.3624   -6.1626   26.6652 C.ar    1  UNL1        0.0935
     16 S           9.1720   -7.3277   27.1522 S.2     1  UNL1       -0.0692
     17 C           9.4784   -8.2040   25.9740 C.ar    1  UNL1        0.0366
     18 C           8.8582   -7.5805   24.7588 C.ar    1  UNL1        0.0061
     19 C           8.1685   -6.3189   25.1860 C.ar    1  UNL1        0.0168
     20 C           7.4313   -5.4189   24.2393 C.3     1  UNL1        0.1014
     21 N           6.7059   -4.1402   24.5378 N.3     1  UNL1       -0.2637
     22 C           6.5386   -3.4459   25.8569 C.3     1  UNL1        0.1396
     23 C           2.7617   -0.8550   19.9662 C.3     1  UNL1        0.2042
     24 F           2.4051   -2.3008   19.7863 F       1  UNL1       -0.2306
     25 C           3.5947    0.3853   20.1000 C.3     1  UNL1        0.0590
     26 C           2.9321    1.7154   20.3040 C.3     1  UNL1        0.0756
     27 N           1.4364    1.8054   20.3741 N.3     1  UNL1       -0.2688
     28 C           0.6034    0.5651   20.2402 C.3     1  UNL1        0.0756
     29 C           1.2660   -0.7650   20.0363 C.3     1  UNL1        0.0590
     30 C           0.7737    3.1355   20.5780 C.3     1  UNL1        0.0993
     31 C          -0.6002    3.3810   20.0286 C.ar    1  UNL1       -0.0018
     32 C          -0.7667    4.0464   18.6945 C.ar    1  UNL1        0.0179
     33 C          -2.1407    4.2919   18.1452 C.ar    1  UNL1        0.1000
     34 N          -3.3482    3.8721   18.9297 N.ar    1  UNL1       -0.2296
     35 C          -3.1817    3.2067   20.2637 C.ar    1  UNL1        0.1251
     36 N          -4.3893    2.7868   21.0483 N.pl3   1  UNL1       -0.3426
     37 C          -1.8078    2.9612   20.8131 C.ar    1  UNL1        0.0310
     38 H          -5.2911    2.9480   20.6877 H       1  UNL1        0.1437
     39 H          -4.2800    2.3501   21.9238 H       1  UNL1        0.1437
@<TRIPOS>BOND
     1     9    10    1
     2    10    11   ar
     3    11    12   ar
     4    12    13   ar
     5    13    14   ar
     6    14    15    1
     7    15    16   ar
     8    16    17   ar
     9    17    18   ar
    10    18    19   ar
    11    19    20    1
    12    20    21    1
    13    21     1    1
    14     1     2    1
    15     2     3    1
    16     3     4    1
    17     4     5   am
    18     5     6    2
    19     5    23    1
    20    23    24    1
    21    23    25    1
    22    25    26    1
    23    26    27    1
    24    27    30    1
    25    30    31    1
    26    31    32   ar
    27    32    33   ar
    28    33    34   ar
    29    34    35   ar
    30    35    36    1
    31    35    37   ar
    32    27    28    1
    33    28    29    1
    34     4     7    1
    35     7     8    1
    36    21    22    1
    37    14    10   ar
    38    19    15   ar
    39     8     1    1
    40    22    13    1
    41    29    23    1
    42    37    31   ar
    43    36    38    1
    44    36    39    1
@<TRIPOS>MOLECULE
*****
 39 44 0 0 0
SMALL
GASTEIGER

@<TRIPOS>ATOM
      1 C           1.2039    1.2521   19.8230 C.3     1  UNL1        0.0616
      2 C           0.4242    1.8421   20.9605 C.3     1  UNL1        0.0375
      3 C          -0.6487    2.8545   20.6890 C.3     1  UNL1        0.0949
      4 N          -0.9420    3.2770   19.2799 N.am    1  UNL1       -0.2773
      5 C          -2.0149    4.2895   19.0084 C.2     1  UNL1        0.2553
      6 O          -2.3081    4.7119   17.5993 O.2     1  UNL1       -0.2720
      7 C          -0.1623    2.6870   18.1424 C.3     1  UNL1        0.0949
      8 C           0.9106    1.6745   18.4139 C.3     1  UNL1        0.0375
      9 C           6.7224   -3.8403   20.1414 C.3     1  UNL1        0.0742
     10 C           5.8159   -2.9271   19.3705 C.ar    1  UNL1        0.1477
     11 N           5.7994   -2.7528   17.8808 N.ar    1  UNL1       -0.1333
     12 N           4.7400   -1.7458   17.5436 N.ar    1  UNL1       -0.1319
     13 C           4.1018   -1.2976   18.8249 C.ar    1  UNL1        0.1636
     14 N           4.7667   -2.0278   19.9540 N.ar    1  UNL1       -0.2743
     15 C           4.4877   -1.9291   21.4246 C.ar    1  UNL1        0.0935
     16 S           5.2295   -2.7197   22.4613 S.2     1  UNL1       -0.0692
     17 C           4.6750   -2.3552   23.8065 C.ar    1  UNL1        0.0366
     18 C           3.5907   -1.3393   23.6013 C.ar    1  UNL1        0.0061
     19 C           3.4749   -1.0759   22.1292 C.ar    1  UNL1        0.0168
     20 C           2.4910   -0.1109   21.5373 C.3     1  UNL1        0.1014
     21 N           2.2768    0.2396   20.0945 N.3     1  UNL1       -0.2637
     22 C           2.9937   -0.2886   18.8875 C.3     1  UNL1        0.1396
     23 C          -2.7945    4.8795   20.1459 C.3     1  UNL1        0.2042
     24 F          -1.7416    5.9344   19.9770 F       1  UNL1       -0.2306
     25 C          -3.5766    3.6196   19.9198 C.3     1  UNL1        0.0590
     26 C          -4.7727    3.3162   20.7726 C.3     1  UNL1        0.0756
     27 N          -5.1867    4.2726   21.8515 N.3     1  UNL1       -0.2688
     28 C          -4.4046    5.5324   22.0776 C.3     1  UNL1        0.0756
     29 C          -3.2085    5.8358   21.2248 C.3     1  UNL1        0.0590
     30 C          -6.3829    3.9691   22.7042 C.3     1  UNL1        0.0993
     31 C          -6.5937    4.7100   23.9913 C.ar    1  UNL1       -0.0018
     32 C          -7.7645    5.6358   24.1408 C.ar    1  UNL1        0.0179
     33 C          -7.9752    6.3766   25.4279 C.ar    1  UNL1        0.1000
     34 N          -7.0154    6.1917   26.5656 N.ar    1  UNL1       -0.2296
     35 C          -5.8447    5.2659   26.4161 C.ar    1  UNL1        0.1251
     36 N          -4.8848    5.0810   27.5539 N.pl3   1  UNL1       -0.3426
     37 C          -5.6338    4.5250   25.1291 C.ar    1  UNL1        0.0310
     38 H          -5.0231    5.5672   28.3986 H       1  UNL1        0.1437
     39 H          -4.1164    4.4734   27.4558 H       1  UNL1        0.1437
@<TRIPOS>BOND
     1     9    10    1
     2    10    11   ar
     3    11    12   ar
     4    12    13   ar
     5    13    14   ar
     6    14    15    1
     7    15    16   ar
     8    16    17   ar
     9    17    18   ar
    10    18    19   ar
    11    19    20    1
    12    20    21    1
    13    21     1    1
    14     1     2    1
    15     2     3    1
    16     3     4    1
    17     4     5   am
    18     5     6    2
    19     5    23    1
    20    23    24    1
    21    23    25    1
    22    25    26    1
    23    26    27    1
    24    27    30    1
    25    30    31    1
    26    31    32   ar
    27    32    33   ar
    28    33    34   ar
    29    34    35   ar
    30    35    36    1
    31    35    37   ar
    32    27    28    1
    33    28    29    1
    34     4     7    1
    35     7     8    1
    36    21    22    1
    37    14    10   ar
    38    19    15   ar
    39     8     1    1
    40    22    13    1
    41    29    23    1
    42    37    31   ar
    43    36    38    1
    44    36    39    1
@<TRIPOS>MOLECULE
*****
 39 44 0 0 0
SMALL
GASTEIGER

@<TRIPOS>ATOM
      1 C           6.9994   -3.5481   25.6618 C.3     1  UNL1        0.0616
      2 C           6.7949   -2.4183   24.6966 C.3     1  UNL1        0.0375
      3 C           6.9817   -2.6454   23.2257 C.3     1  UNL1        0.0949
      4 N           7.3732   -4.0023   22.7200 N.am    1  UNL1       -0.2773
      5 C           7.5601   -4.2293   21.2492 C.2     1  UNL1        0.2553
      6 O           7.9515   -5.5862   20.7436 O.2     1  UNL1       -0.2720
      7 C           7.5776   -5.1321   23.6853 C.3     1  UNL1        0.0949
      8 C           7.3908   -4.9050   25.1562 C.3     1  UNL1        0.0375
      9 C           5.8113   -1.4225   32.7722 C.3     1  UNL1        0.0742
     10 C           5.8554   -1.1333   31.3010 C.ar    1  UNL1        0.1477
     11 N           5.5459    0.1828   30.6515 N.ar    1  UNL1       -0.1333
     12 N           5.7159    0.0201   29.1701 N.ar    1  UNL1       -0.1319
     13 C           6.1304   -1.3967   28.9040 C.ar    1  UNL1        0.1636
     14 N           6.2166   -2.1095   30.2210 N.ar    1  UNL1       -0.2743
     15 C           6.5893   -3.5377   30.4888 C.ar    1  UNL1        0.0935
     16 S           6.6386   -4.1348   31.8640 S.2     1  UNL1       -0.0692
     17 C           7.0476   -5.5718   31.7308 C.ar    1  UNL1        0.0366
     18 C           7.2510   -5.8628   30.2734 C.ar    1  UNL1        0.0061
     19 C           6.9678   -4.6056   29.5058 C.ar    1  UNL1        0.0168
     20 C           7.0671   -4.5092   28.0123 C.3     1  UNL1        0.1014
     21 N           6.8124   -3.3211   27.1327 N.3     1  UNL1       -0.2637
     22 C           6.3956   -1.9359   27.5296 C.3     1  UNL1        0.1396
     23 C           7.3556   -3.0996   20.2840 C.3     1  UNL1        0.2042
     24 F           8.8093   -2.9107   20.6018 F       1  UNL1       -0.2306
     25 C           5.9728   -3.6808   20.3014 C.3     1  UNL1        0.0590
     26 C           4.8905   -3.0666   19.4640 C.3     1  UNL1        0.0756
     27 N           5.1908   -1.8712   18.6091 N.3     1  UNL1       -0.2688
     28 C           6.5736   -1.2900   18.5917 C.3     1  UNL1        0.0756
     29 C           7.6559   -1.9042   19.4291 C.3     1  UNL1        0.0590
     30 C           4.1085   -1.2570   17.7716 C.3     1  UNL1        0.0993
     31 C           3.2032   -0.2166   18.3614 C.ar    1  UNL1       -0.0018
     32 C           3.4983    1.2394   18.1536 C.ar    1  UNL1        0.0179
     33 C           2.5930    2.2797   18.7434 C.ar    1  UNL1        0.1000
     34 N           1.3925    1.8643   19.5410 N.ar    1  UNL1       -0.2296
     35 C           1.0974    0.4084   19.7488 C.ar    1  UNL1        0.1251
     36 N          -0.1031   -0.0071   20.5465 N.pl3   1  UNL1       -0.3426
     37 C           2.0027   -0.6321   19.1591 C.ar    1  UNL1        0.0310
     38 H          -0.6973    0.6758   20.9336 H       1  UNL1        0.1437
     39 H          -0.2968   -0.9627   20.6829 H       1  UNL1        0.1437
@<TRIPOS>BOND
     1     9    10    1
     2    10    11   ar
     3    11    12   ar
     4    12    13   ar
     5    13    14   ar
     6    14    15    1
     7    15    16   ar
     8    16    17   ar
     9    17    18   ar
    10    18    19   ar
    11    19    20    1
    12    20    21    1
    13    21     1    1
    14     1     2    1
    15     2     3    1
    16     3     4    1
    17     4     5   am
    18     5     6    2
    19     5    23    1
    20    23    24    1
    21    23    25    1
    22    25    26    1
    23    26    27    1
    24    27    30    1
    25    30    31    1
    26    31    32   ar
    27    32    33   ar
    28    33    34   ar
    29    34    35   ar
    30    35    36    1
    31    35    37   ar
    32    27    28    1
    33    28    29    1
    34     4     7    1
    35     7     8    1
    36    21    22    1
    37    14    10   ar
    38    19    15   ar
    39     8     1    1
    40    22    13    1
    41    29    23    1
    42    37    31   ar
    43    36    38    1
    44    36    39    1
@<TRIPOS>MOLECULE
*****
 39 44 0 0 0
SMALL
GASTEIGER

@<TRIPOS>ATOM
      1 C           2.1451    0.8081   23.7491 C.3     1  UNL1        0.0616
      2 C           1.1056    1.8521   23.4673 C.3     1  UNL1        0.0375
      3 C           0.5567    2.6854   24.5871 C.3     1  UNL1        0.0949
      4 N           1.0474    2.4748   25.9889 N.am    1  UNL1       -0.2773
      5 C           0.4985    3.3082   27.1088 C.2     1  UNL1        0.2553
      6 O           0.9892    3.0975   28.5105 O.2     1  UNL1       -0.2720
      7 C           2.0869    1.4308   26.2707 C.3     1  UNL1        0.0949
      8 C           2.6358    0.5974   25.1508 C.3     1  UNL1        0.0375
      9 C           5.1608   -4.0614   18.8827 C.3     1  UNL1        0.0742
     10 C           4.7937   -3.6501   20.2777 C.ar    1  UNL1        0.1477
     11 N           5.0505   -4.4406   21.5263 N.ar    1  UNL1       -0.1333
     12 N           4.5209   -3.6551   22.6894 N.ar    1  UNL1       -0.1319
     13 C           3.9368   -2.3792   22.1595 C.ar    1  UNL1        0.1636
     14 N           4.1054   -2.3761   20.6690 N.ar    1  UNL1       -0.2743
     15 C           3.6875   -1.3259   19.6827 C.ar    1  UNL1        0.0935
     16 S           3.9154   -1.4430   18.2047 S.2     1  UNL1       -0.0692
     17 C           3.3665   -0.2091   17.5520 C.ar    1  UNL1        0.0366
     18 C           2.7994    0.6706   18.6265 C.ar    1  UNL1        0.0061
     19 C           2.9978   -0.0197   19.9434 C.ar    1  UNL1        0.0168
     20 C           2.5557    0.5592   21.2546 C.3     1  UNL1        0.1014
     21 N           2.6940   -0.0253   22.6291 N.3     1  UNL1       -0.2637
     22 C           3.3087   -1.3330   23.0318 C.3     1  UNL1        0.1396
     23 C          -0.5410    4.3522   26.8270 C.3     1  UNL1        0.2042
     24 F           0.6870    5.2124   26.8703 F       1  UNL1       -0.2306
     25 C          -1.4080    3.1293   26.8815 C.3     1  UNL1        0.0590
     26 C          -2.8881    3.2492   26.6693 C.3     1  UNL1        0.0756
     27 N          -3.5012    4.5920   26.4025 N.3     1  UNL1       -0.2688
     28 C          -2.6341    5.8148   26.3479 C.3     1  UNL1        0.0756
     29 C          -1.1541    5.6949   26.5602 C.3     1  UNL1        0.0590
     30 C          -4.9812    4.7119   26.1903 C.3     1  UNL1        0.0993
     31 C          -5.5668    4.4625   24.8320 C.ar    1  UNL1       -0.0018
     32 C          -6.9280    4.9937   24.4929 C.ar    1  UNL1        0.0179
     33 C          -7.5134    4.7442   23.1347 C.ar    1  UNL1        0.1000
     34 N          -6.7378    3.9636   22.1154 N.ar    1  UNL1       -0.2296
     35 C          -5.3766    3.4323   22.4545 C.ar    1  UNL1        0.1251
     36 N          -4.6010    2.6516   21.4353 N.pl3   1  UNL1       -0.3426
     37 C          -4.7911    3.6817   23.8128 C.ar    1  UNL1        0.0310
     38 H          -4.9852    2.4879   20.5438 H       1  UNL1        0.1437
     39 H          -3.7076    2.3029   21.6578 H       1  UNL1        0.1437
@<TRIPOS>BOND
     1     9    10    1
     2    10    11   ar
     3    11    12   ar
     4    12    13   ar
     5    13    14   ar
     6    14    15    1
     7    15    16   ar
     8    16    17   ar
     9    17    18   ar
    10    18    19   ar
    11    19    20    1
    12    20    21    1
    13    21     1    1
    14     1     2    1
    15     2     3    1
    16     3     4    1
    17     4     5   am
    18     5     6    2
    19     5    23    1
    20    23    24    1
    21    23    25    1
    22    25    26    1
    23    26    27    1
    24    27    30    1
    25    30    31    1
    26    31    32   ar
    27    32    33   ar
    28    33    34   ar
    29    34    35   ar
    30    35    36    1
    31    35    37   ar
    32    27    28    1
    33    28    29    1
    34     4     7    1
    35     7     8    1
    36    21    22    1
    37    14    10   ar
    38    19    15   ar
    39     8     1    1
    40    22    13    1
    41    29    23    1
    42    37    31   ar
    43    36    38    1
    44    36    39    1
@<TRIPOS>MOLECULE
*****
 39 44 0 0 0
SMALL
GASTEIGER

@<TRIPOS>ATOM
      1 C           6.8473   -3.8437   22.8137 C.3     1  UNL1        0.0616
      2 C           5.5530   -3.1685   22.4693 C.3     1  UNL1        0.0375
      3 C           5.3467   -2.5975   21.0977 C.3     1  UNL1        0.0949
      4 N           6.4348   -2.7018   20.0704 N.am    1  UNL1       -0.2773
      5 C           6.2285   -2.1308   18.6988 C.2     1  UNL1        0.2553
      6 O           7.3167   -2.2351   17.6716 O.2     1  UNL1       -0.2720
      7 C           7.7292   -3.3770   20.4149 C.3     1  UNL1        0.0949
      8 C           7.9355   -3.9480   21.7865 C.3     1  UNL1        0.0375
      9 C           7.4355   -5.8200   30.0412 C.3     1  UNL1        0.0742
     10 C           7.0238   -4.8553   28.9689 C.ar    1  UNL1        0.1477
     11 N           6.3693   -3.5231   29.1854 N.ar    1  UNL1       -0.1333
     12 N           6.1353   -2.8978   27.8422 N.ar    1  UNL1       -0.1319
     13 C           6.6453   -3.8435   26.7955 C.ar    1  UNL1        0.1636
     14 N           7.1944   -5.0533   27.4919 N.ar    1  UNL1       -0.2743
     15 C           7.8165   -6.2777   26.8886 C.ar    1  UNL1        0.0935
     16 S           8.3314   -7.4287   27.7011 S.2     1  UNL1       -0.0692
     17 C           8.8762   -8.4571   26.7547 C.ar    1  UNL1        0.0366
     18 C           8.6980   -7.9416   25.3573 C.ar    1  UNL1        0.0061
     19 C           8.0431   -6.5947   25.4401 C.ar    1  UNL1        0.0168
     20 C           7.7036   -5.7656   24.2371 C.3     1  UNL1        0.1014
     21 N           7.0536   -4.4147   24.1854 N.3     1  UNL1       -0.2637
     22 C           6.5826   -3.5593   25.3240 C.3     1  UNL1        0.1396
     23 C           4.9342   -1.4556   18.3543 C.3     1  UNL1        0.2042
     24 F           4.6044   -2.8658   17.9638 F       1  UNL1       -0.2306
     25 C           5.7137   -0.2799   18.8646 C.3     1  UNL1        0.0590
     26 C           5.0841    1.0812   18.8947 C.3     1  UNL1        0.0756
     27 N           3.6751    1.2668   18.4146 N.3     1  UNL1       -0.2688
     28 C           2.8958    0.0911   17.9044 C.3     1  UNL1        0.0756
     29 C           3.5253   -1.2701   17.8743 C.3     1  UNL1        0.0590
     30 C           3.0456    2.6279   18.4447 C.3     1  UNL1        0.0993
     31 C           1.6568    2.8001   18.9845 C.ar    1  UNL1       -0.0018
     32 C           1.3331    2.3524   20.3791 C.ar    1  UNL1        0.0179
     33 C          -0.0557    2.5246   20.9187 C.ar    1  UNL1        0.1000
     34 N          -1.1211    3.1445   20.0639 N.ar    1  UNL1       -0.2296
     35 C          -0.7974    3.5922   18.6693 C.ar    1  UNL1        0.1251
     36 N          -1.8628    4.2122   17.8145 N.pl3   1  UNL1       -0.3426
     37 C           0.5914    3.4201   18.1296 C.ar    1  UNL1        0.0310
     38 H          -2.7744    4.3252   18.1687 H       1  UNL1        0.1437
     39 H          -1.6504    4.5060   16.8991 H       1  UNL1        0.1437
@<TRIPOS>BOND
     1     9    10    1
     2    10    11   ar
     3    11    12   ar
     4    12    13   ar
     5    13    14   ar
     6    14    15    1
     7    15    16   ar
     8    16    17   ar
     9    17    18   ar
    10    18    19   ar
    11    19    20    1
    12    20    21    1
    13    21     1    1
    14     1     2    1
    15     2     3    1
    16     3     4    1
    17     4     5   am
    18     5     6    2
    19     5    23    1
    20    23    24    1
    21    23    25    1
    22    25    26    1
    23    26    27    1
    24    27    30    1
    25    30    31    1
    26    31    32   ar
    27    32    33   ar
    28    33    34   ar
    29    34    35   ar
    30    35    36    1
    31    35    37   ar
    32    27    28    1
    33    28    29    1
    34     4     7    1
    35     7     8    1
    36    21    22    1
    37    14    10   ar
    38    19    15   ar
    39     8     1    1
    40    22    13    1
    41    29    23    1
    42    37    31   ar
    43    36    38    1
    44    36    39    1
@<TRIPOS>MOLECULE
*****
 39 44 0 0 0
SMALL
GASTEIGER

@<TRIPOS>ATOM
      1 C           2.4714    0.5442   24.4934 C.3     1  UNL1        0.0616
      2 C           3.5613    0.6172   25.5214 C.3     1  UNL1        0.0375
      3 C           3.2448    1.0572   26.9200 C.3     1  UNL1        0.0949
      4 N           1.8384    1.4243   27.2906 N.am    1  UNL1       -0.2773
      5 C           1.5219    1.8644   28.6892 C.2     1  UNL1        0.2553
      6 O           0.1155    2.2314   29.0598 O.2     1  UNL1       -0.2720
      7 C           0.7486    1.3513   26.2625 C.3     1  UNL1        0.0949
      8 C           1.0650    0.9113   24.8639 C.3     1  UNL1        0.0375
      9 C           3.6557   -0.7367   17.1828 C.3     1  UNL1        0.0742
     10 C           3.1656    0.1285   18.3058 C.ar    1  UNL1        0.1477
     11 N           2.5496    1.4890   18.1663 N.ar    1  UNL1       -0.1333
     12 N           2.2087    1.9865   19.5398 N.ar    1  UNL1       -0.1319
     13 C           2.6140    0.9335   20.5281 C.ar    1  UNL1        0.1636
     14 N           3.2054   -0.2149   19.7654 N.ar    1  UNL1       -0.2743
     15 C           3.7571   -1.5049   20.2961 C.ar    1  UNL1        0.0935
     16 S           4.3251   -2.5828   19.4212 S.2     1  UNL1       -0.0692
     17 C           4.7727   -3.7091   20.3049 C.ar    1  UNL1        0.0366
     18 C           4.4813   -3.3274   21.7259 C.ar    1  UNL1        0.0061
     19 C           3.8536   -1.9651   21.7205 C.ar    1  UNL1        0.0168
     20 C           3.4223   -1.2491   22.9659 C.3     1  UNL1        0.1014
     21 N           2.7879    0.1041   23.0947 N.3     1  UNL1       -0.2637
     22 C           2.4282    1.0754   22.0097 C.3     1  UNL1        0.1396
     23 C           2.6118    1.9373   29.7172 C.3     1  UNL1        0.2042
     24 F           2.7306    3.3055   29.1140 F       1  UNL1       -0.2306
     25 C           2.1143    0.5438   29.9634 C.3     1  UNL1        0.0590
     26 C           2.7481   -0.3017   31.0281 C.3     1  UNL1        0.0756
     27 N           3.8793    0.2465   31.8466 N.3     1  UNL1       -0.2688
     28 C           4.3767    1.6400   31.6004 C.3     1  UNL1        0.0756
     29 C           3.7429    2.4855   30.5357 C.3     1  UNL1        0.0590
     30 C           4.5131   -0.5990   32.9113 C.3     1  UNL1        0.0993
     31 C           5.6631   -1.4989   32.5687 C.ar    1  UNL1       -0.0018
     32 C           6.9853   -0.9098   32.1753 C.ar    1  UNL1        0.0179
     33 C           8.1352   -1.8098   31.8327 C.ar    1  UNL1        0.1000
     34 N           7.9632   -3.2990   31.8835 N.ar    1  UNL1       -0.2296
     35 C           6.6410   -3.8882   32.2770 C.ar    1  UNL1        0.1251
     36 N           6.4689   -5.3774   32.3278 N.pl3   1  UNL1       -0.3426
     37 C           5.4910   -2.9882   32.6196 C.ar    1  UNL1        0.0310
     38 H           7.2237   -5.9681   32.1030 H       1  UNL1        0.1437
     39 H           5.6011   -5.7641   32.5861 H       1  UNL1        0.1437
@<TRIPOS>BOND
     1     9    10    1
     2    10    11   ar
     3    11    12   ar
     4    12    13   ar
     5    13    14   ar
     6    14    15    1
     7    15    16   ar
     8    16    17   ar
     9    17    18   ar
    10    18    19   ar
    11    19    20    1
    12    20    21    1
    13    21     1    1
    14     1     2    1
    15     2     3    1
    16     3     4    1
    17     4     5   am
    18     5     6    2
    19     5    23    1
    20    23    24    1
    21    23    25    1
    22    25    26    1
    23    26    27    1
    24    27    30    1
    25    30    31    1
    26    31    32   ar
    27    32    33   ar
    28    33    34   ar
    29    34    35   ar
    30    35    36    1
    31    35    37   ar
    32    27    28    1
    33    28    29    1
    34     4     7    1
    35     7     8    1
    36    21    22    1
    37    14    10   ar
    38    19    15   ar
    39     8     1    1
    40    22    13    1
    41    29    23    1
    42    37    31   ar
    43    36    38    1
    44    36    39    1
@<TRIPOS>MOLECULE
*****
 39 44 0 0 0
SMALL
GASTEIGER

@<TRIPOS>ATOM
      1 C           6.8000   -3.2767   25.5179 C.3     1  UNL1        0.0616
      2 C           6.6082   -2.2362   24.4547 C.3     1  UNL1        0.0375
      3 C           6.8782   -2.5730   23.0182 C.3     1  UNL1        0.0949
      4 N           7.3400   -3.9506   22.6449 N.am    1  UNL1       -0.2773
      5 C           7.6100   -4.2874   21.2084 C.2     1  UNL1        0.2553
      6 O           8.0718   -5.6649   20.8352 O.2     1  UNL1       -0.2720
      7 C           7.5318   -4.9910   23.7082 C.3     1  UNL1        0.0949
      8 C           7.2618   -4.6542   25.1447 C.3     1  UNL1        0.0375
      9 C           5.8156   -2.5497   32.9335 C.3     1  UNL1        0.0742
     10 C           6.2467   -3.3394   31.7333 C.ar    1  UNL1        0.1477
     11 N           6.8079   -4.7304   31.7483 N.ar    1  UNL1       -0.1333
     12 N           7.1004   -5.1275   30.3316 N.ar    1  UNL1       -0.1319
     13 C           6.7200   -3.9820   29.4412 C.ar    1  UNL1        0.1636
     14 N           6.1924   -2.8768   30.3075 N.ar    1  UNL1       -0.2743
     15 C           5.6848   -1.5268   29.8954 C.ar    1  UNL1        0.0935
     16 S           5.1798   -0.5019   30.8674 S.2     1  UNL1       -0.0692
     17 C           4.7623    0.7098   30.0880 C.ar    1  UNL1        0.0366
     18 C           5.0092    0.4339   28.6344 C.ar    1  UNL1        0.0061
     19 C           5.5793   -0.9485   28.5154 C.ar    1  UNL1        0.0168
     20 C           5.9555   -1.5773   27.2066 C.3     1  UNL1        0.1014
     21 N           6.5300   -2.9398   26.9545 N.3     1  UNL1       -0.2637
     22 C           6.8702   -4.0100   27.9490 C.3     1  UNL1        0.1396
     23 C           7.4181   -3.2469   20.1452 C.3     1  UNL1        0.2042
     24 F           8.9057   -3.1683   20.3212 F       1  UNL1       -0.2306
     25 C           5.9972   -3.6869   20.3385 C.3     1  UNL1        0.0590
     26 C           4.9010   -3.0590   19.5297 C.3     1  UNL1        0.0756
     27 N           5.2258   -1.9911   18.5276 N.3     1  UNL1       -0.2688
     28 C           6.6467   -1.5512   18.3343 C.3     1  UNL1        0.0756
     29 C           7.7429   -2.1791   19.1431 C.3     1  UNL1        0.0590
     30 C           4.1296   -1.3632   17.7187 C.3     1  UNL1        0.0993
     31 C           3.2596   -0.3046   18.3288 C.ar    1  UNL1       -0.0018
     32 C           3.6043    1.1443   18.1502 C.ar    1  UNL1        0.0179
     33 C           2.7343    2.2029   18.7603 C.ar    1  UNL1        0.1000
     34 N           1.5195    1.8128   19.5490 N.ar    1  UNL1       -0.2296
     35 C           1.1748    0.3639   19.7276 C.ar    1  UNL1        0.1251
     36 N          -0.0400   -0.0263   20.5163 N.pl3   1  UNL1       -0.3426
     37 C           2.0448   -0.6948   19.1175 C.ar    1  UNL1        0.0310
     38 H          -0.6110    0.6686   20.9167 H       1  UNL1        0.1437
     39 H          -0.2662   -0.9772   20.6336 H       1  UNL1        0.1437
@<TRIPOS>BOND
     1     9    10    1
     2    10    11   ar
     3    11    12   ar
     4    12    13   ar
     5    13    14   ar
     6    14    15    1
     7    15    16   ar
     8    16    17   ar
     9    17    18   ar
    10    18    19   ar
    11    19    20    1
    12    20    21    1
    13    21     1    1
    14     1     2    1
    15     2     3    1
    16     3     4    1
    17     4     5   am
    18     5     6    2
    19     5    23    1
    20    23    24    1
    21    23    25    1
    22    25    26    1
    23    26    27    1
    24    27    30    1
    25    30    31    1
    26    31    32   ar
    27    32    33   ar
    28    33    34   ar
    29    34    35   ar
    30    35    36    1
    31    35    37   ar
    32    27    28    1
    33    28    29    1
    34     4     7    1
    35     7     8    1
    36    21    22    1
    37    14    10   ar
    38    19    15   ar
    39     8     1    1
    40    22    13    1
    41    29    23    1
    42    37    31   ar
    43    36    38    1
    44    36    39    1
@<TRIPOS>MOLECULE
*****
 39 44 0 0 0
SMALL
GASTEIGER

@<TRIPOS>ATOM
      1 C           0.9792    1.1105   20.3914 C.3     1  UNL1        0.0616
      2 C           1.6061   -0.0544   21.0985 C.3     1  UNL1        0.0375
      3 C           2.6078   -0.9137   20.3858 C.3     1  UNL1        0.0949
      4 N           2.9828   -0.6080   18.9659 N.am    1  UNL1       -0.2773
      5 C           3.9846   -1.4673   18.2531 C.2     1  UNL1        0.2553
      6 O           4.3595   -1.1616   16.8333 O.2     1  UNL1       -0.2720
      7 C           2.3559    0.5569   18.2589 C.3     1  UNL1        0.0949
      8 C           1.3541    1.4162   18.9716 C.3     1  UNL1        0.0375
      9 C          -4.4969    5.5352   23.0225 C.3     1  UNL1        0.0742
     10 C          -3.8129    4.8118   21.9006 C.ar    1  UNL1        0.1477
     11 N          -4.2429    4.8057   20.4636 N.ar    1  UNL1       -0.1333
     12 N          -3.2745    3.9576   19.6935 N.ar    1  UNL1       -0.1319
     13 C          -2.2459    3.4396   20.6545 C.ar    1  UNL1        0.1636
     14 N          -2.5786    3.9675   22.0186 N.ar    1  UNL1       -0.2743
     15 C          -1.8559    3.7367   23.3126 C.ar    1  UNL1        0.0935
     16 S          -2.2939    4.3267   24.6203 S.2     1  UNL1       -0.0692
     17 C          -1.3307    3.8756   25.6781 C.ar    1  UNL1        0.0366
     18 C          -0.2975    3.0068   25.0241 C.ar    1  UNL1        0.0061
     19 C          -0.6221    2.9210   23.5622 C.ar    1  UNL1        0.0168
     20 C           0.1938    2.1347   22.5794 C.3     1  UNL1        0.1014
     21 N          -0.0226    1.9698   21.1042 N.3     1  UNL1       -0.2637
     22 C          -1.1084    2.5505   20.2476 C.3     1  UNL1        0.1396
     23 C           4.6114   -2.6322   18.9602 C.3     1  UNL1        0.2042
     24 F           3.3687   -3.2857   18.4327 F       1  UNL1       -0.2306
     25 C           5.6365   -1.5740   19.2421 C.3     1  UNL1        0.0590
     26 C           6.8569   -1.9077   20.0479 C.3     1  UNL1        0.0756
     27 N           7.0522   -3.2997   20.5719 N.3     1  UNL1       -0.2688
     28 C           6.0271   -4.3578   20.2899 C.3     1  UNL1        0.0756
     29 C           4.8067   -4.0241   19.4841 C.3     1  UNL1        0.0590
     30 C           8.2725   -3.6334   21.3777 C.3     1  UNL1        0.0993
     31 C           8.1914   -4.6540   22.4739 C.ar    1  UNL1       -0.0018
     32 C           8.8865   -5.9746   22.3222 C.ar    1  UNL1        0.0179
     33 C           8.8053   -6.9951   23.4185 C.ar    1  UNL1        0.1000
     34 N           8.0291   -6.6953   24.6664 N.ar    1  UNL1       -0.2296
     35 C           7.3340   -5.3747   24.8181 C.ar    1  UNL1        0.1251
     36 N           6.5578   -5.0747   26.0661 N.pl3   1  UNL1       -0.3426
     37 C           7.4151   -4.3541   23.7219 C.ar    1  UNL1        0.0310
     38 H           6.5045   -5.7446   26.7856 H       1  UNL1        0.1437
     39 H           6.1016   -4.2080   26.1657 H       1  UNL1        0.1437
@<TRIPOS>BOND
     1     9    10    1
     2    10    11   ar
     3    11    12   ar
     4    12    13   ar
     5    13    14   ar
     6    14    15    1
     7    15    16   ar
     8    16    17   ar
     9    17    18   ar
    10    18    19   ar
    11    19    20    1
    12    20    21    1
    13    21     1    1
    14     1     2    1
    15     2     3    1
    16     3     4    1
    17     4     5   am
    18     5     6    2
    19     5    23    1
    20    23    24    1
    21    23    25    1
    22    25    26    1
    23    26    27    1
    24    27    30    1
    25    30    31    1
    26    31    32   ar
    27    32    33   ar
    28    33    34   ar
    29    34    35   ar
    30    35    36    1
    31    35    37   ar
    32    27    28    1
    33    28    29    1
    34     4     7    1
    35     7     8    1
    36    21    22    1
    37    14    10   ar
    38    19    15   ar
    39     8     1    1
    40    22    13    1
    41    29    23    1
    42    37    31   ar
    43    36    38    1
    44    36    39    1
@<TRIPOS>MOLECULE
*****
 39 44 0 0 0
SMALL
GASTEIGER

@<TRIPOS>ATOM
      1 C           2.5092    0.1203   24.4295 C.3     1  UNL1        0.0616
      2 C           3.2644   -0.5016   25.5665 C.3     1  UNL1        0.0375
      3 C           2.9007   -0.1642   26.9821 C.3     1  UNL1        0.0949
      4 N           1.7817    0.7952   27.2607 N.am    1  UNL1       -0.2773
      5 C           1.4180    1.1326   28.6762 C.2     1  UNL1        0.2553
      6 O           0.2990    2.0920   28.9547 O.2     1  UNL1       -0.2720
      7 C           1.0266    1.4171   26.1236 C.3     1  UNL1        0.0949
      8 C           1.3903    1.0797   24.7080 C.3     1  UNL1        0.0375
      9 C           3.9168   -0.6368   17.0856 C.3     1  UNL1        0.0742
     10 C           3.3768    0.1396   18.2499 C.ar    1  UNL1        0.1477
     11 N           2.7329    1.4927   18.1848 N.ar    1  UNL1       -0.1333
     12 N           2.3440    1.8886   19.5784 N.ar    1  UNL1       -0.1319
     13 C           2.7476    0.7801   20.5048 C.ar    1  UNL1        0.1636
     14 N           3.3859   -0.3009   19.6837 N.ar    1  UNL1       -0.2743
     15 C           3.9536   -1.6116   20.1420 C.ar    1  UNL1        0.0935
     16 S           4.5699   -2.6152   19.2130 S.2     1  UNL1       -0.0692
     17 C           5.0203   -3.7888   20.0314 C.ar    1  UNL1        0.0366
     18 C           4.6824   -3.5106   21.4661 C.ar    1  UNL1        0.0061
     19 C           4.0231   -2.1649   21.5345 C.ar    1  UNL1        0.0168
     20 C           3.5422   -1.5444   22.8125 C.3     1  UNL1        0.1014
     21 N           2.8730   -0.2171   23.0139 N.3     1  UNL1       -0.2637
     22 C           2.5194    0.8174   21.9868 C.3     1  UNL1        0.1396
     23 C           2.1732    0.5107   29.8132 C.3     1  UNL1        0.2042
     24 F           1.4553   -0.6963   29.2861 F       1  UNL1       -0.2306
     25 C           2.6287    1.9337   29.9453 C.3     1  UNL1        0.0590
     26 C           3.5902    2.3156   31.0315 C.3     1  UNL1        0.0756
     27 N           4.0961    1.2745   31.9855 N.3     1  UNL1       -0.2688
     28 C           3.6405   -0.1486   31.8533 C.3     1  UNL1        0.0756
     29 C           2.6791   -0.5304   30.7672 C.3     1  UNL1        0.0590
     30 C           5.0576    1.6563   33.0717 C.3     1  UNL1        0.0993
     31 C           4.7457    1.3233   34.5006 C.ar    1  UNL1       -0.0018
     32 C           5.5451    0.2765   35.2184 C.ar    1  UNL1        0.0179
     33 C           5.2331   -0.0564   36.6473 C.ar    1  UNL1        0.1000
     34 N           4.1220    0.6573   37.3584 N.ar    1  UNL1       -0.2296
     35 C           3.3226    1.7041   36.6406 C.ar    1  UNL1        0.1251
     36 N           2.2114    2.4179   37.3517 N.pl3   1  UNL1       -0.3426
     37 C           3.6345    2.0371   35.2117 C.ar    1  UNL1        0.0310
     38 H           2.0067    2.1994   38.2895 H       1  UNL1        0.1437
     39 H           1.6868    3.1050   36.8805 H       1  UNL1        0.1437
@<TRIPOS>BOND
     1     9    10    1
     2    10    11   ar
     3    11    12   ar
     4    12    13   ar
     5    13    14   ar
     6    14    15    1
     7    15    16   ar
     8    16    17   ar
     9    17    18   ar
    10    18    19   ar
    11    19    20    1
    12    20    21    1
    13    21     1    1
    14     1     2    1
    15     2     3    1
    16     3     4    1
    17     4     5   am
    18     5     6    2
    19     5    23    1
    20    23    24    1
    21    23    25    1
    22    25    26    1
    23    26    27    1
    24    27    30    1
    25    30    31    1
    26    31    32   ar
    27    32    33   ar
    28    33    34   ar
    29    34    35   ar
    30    35    36    1
    31    35    37   ar
    32    27    28    1
    33    28    29    1
    34     4     7    1
    35     7     8    1
    36    21    22    1
    37    14    10   ar
    38    19    15   ar
    39     8     1    1
    40    22    13    1
    41    29    23    1
    42    37    31   ar
    43    36    38    1
    44    36    39    1
