@<TRIPOS>MOLECULE
*****
 27 30 0 0 0
SMALL
GASTEIGER

@<TRIPOS>ATOM
      1 C          -7.6959  -17.0727   23.8471 C.3     1  UNL1        0.0358
      2 C          -8.4732  -16.6353   25.0531 C.3     1  UNL1        0.0872
      3 C          -9.1951  -17.0458   23.8040 C.3     1  UNL1        0.0358
      4 C          -3.7531  -17.8769   21.8329 C.ar    1  UNL1        0.0362
      5 C          -3.8556  -16.8093   22.8814 C.ar    1  UNL1        0.0028
      6 C          -5.1699  -16.5412   23.5528 C.ar    1  UNL1       -0.0042
      7 C          -6.3816  -17.3408   23.1756 C.ar    1  UNL1       -0.0217
      8 C          -6.2791  -18.4085   22.1271 C.ar    1  UNL1       -0.0042
      9 C          -4.9649  -18.6765   21.4557 C.ar    1  UNL1        0.0028
     10 C           1.1294  -17.2526   19.9215 C.3     1  UNL1        0.0950
     11 C          -0.1946  -17.8581   20.2829 C.ar    1  UNL1        0.2062
     12 N          -0.6381  -19.2572   19.9734 N.ar    1  UNL1       -0.2104
     13 C          -2.0251  -19.4346   20.5164 C.ar    1  UNL1        0.1391
     14 C          -2.4388  -18.1450   21.1614 C.ar    1  UNL1        0.1659
     15 O          -1.3075  -17.1707   21.0171 O.2     1  UNL1       -0.4383
     16 C          -8.5051  -16.1458   26.4706 C.2     1  UNL1        0.2445
     17 O          -8.9676  -17.0572   27.5686 O.2     1  UNL1       -0.2730
     18 N          -8.0745  -14.7449   26.7902 N.am    1  UNL1       -0.1970
     19 O          -8.1064  -14.2554   28.2077 O.3     1  UNL1       -0.2952
     20 H          -7.7709  -14.1468   26.0696 H       1  UNL1        0.1822
     21 H          -8.4277  -14.9638   28.7873 H       1  UNL1        0.2414
     22 C         -10.4774  -17.2672   23.0580 C.ar    1  UNL1       -0.0217
     23 C         -11.6636  -17.8548   23.7633 C.ar    1  UNL1       -0.0043
     24 C         -12.9460  -18.0762   23.0172 C.ar    1  UNL1       -0.0003
     25 C         -13.0420  -17.7100   21.5658 C.ar    1  UNL1       -0.0000
     26 C         -11.8558  -17.1224   20.8604 C.ar    1  UNL1       -0.0003
     27 C         -10.5735  -16.9010   21.6065 C.ar    1  UNL1       -0.0043
@<TRIPOS>BOND
     1    10    11    1
     2    11    12   ar
     3    12    13   ar
     4    13    14   ar
     5    14     4    1
     6     4     5   ar
     7     5     6   ar
     8     6     7   ar
     9     1     7    1
    10     1     2    1
    11     2    16    1
    12    16    17    2
    13    16    18   am
    14    18    19    1
    15     2     3    1
    16     3    22    1
    17    22    23   ar
    18    23    24   ar
    19    24    25   ar
    20    25    26   ar
    21    26    27   ar
    22     7     8   ar
    23     8     9   ar
    24    14    15   ar
    25    15    11   ar
    26     9     4   ar
    27     3     1    1
    28    27    22   ar
    29    18    20    1
    30    19    21    1
@<TRIPOS>MOLECULE
*****
 27 30 0 0 0
SMALL
GASTEIGER

@<TRIPOS>ATOM
      1 C           0.0997    1.5066   25.2510 C.3     1  UNL1        0.0358
      2 C          -0.1004    1.5667   26.7364 C.3     1  UNL1        0.0872
      3 C          -1.0399    2.2967   25.8229 C.3     1  UNL1        0.0358
      4 C           2.4201    0.0340   21.6877 C.ar    1  UNL1        0.0362
      5 C           1.1690    0.8370   21.4883 C.ar    1  UNL1        0.0028
      6 C           0.3955    1.3278   22.6760 C.ar    1  UNL1       -0.0042
      7 C           0.8732    1.0157   24.0632 C.ar    1  UNL1       -0.0217
      8 C           2.1243    0.2127   24.2627 C.ar    1  UNL1       -0.0042
      9 C           2.8978   -0.2782   23.0750 C.ar    1  UNL1        0.0028
     10 C           3.9457   -0.8760   16.7152 C.3     1  UNL1        0.0950
     11 C           3.8948   -0.8752   18.2144 C.ar    1  UNL1        0.2062
     12 N           4.8730   -1.5495   19.1301 N.ar    1  UNL1       -0.2104
     13 C           4.4396   -1.2910   20.5426 C.ar    1  UNL1        0.1391
     14 C           3.1936   -0.4569   20.4999 C.ar    1  UNL1        0.1659
     15 O           2.8569   -0.1999   19.0610 O.2     1  UNL1       -0.4383
     16 C           0.3265    1.1800   28.1214 C.2     1  UNL1        0.2445
     17 O           0.4285    2.2239   29.1937 O.2     1  UNL1       -0.2730
     18 N           0.6513   -0.2506   28.4340 N.am    1  UNL1       -0.1970
     19 O           1.0783   -0.6374   29.8190 O.3     1  UNL1       -0.2952
     20 H           0.5844   -0.9358   27.7302 H       1  UNL1        0.1822
     21 H           1.0918    0.1503   30.3849 H       1  UNL1        0.2414
     22 C          -2.2403    3.1743   25.6257 C.ar    1  UNL1       -0.0217
     23 C          -2.6002    3.6550   24.2511 C.ar    1  UNL1       -0.0043
     24 C          -3.8006    4.5326   24.0540 C.ar    1  UNL1       -0.0003
     25 C          -4.6410    4.9295   25.2313 C.ar    1  UNL1       -0.0000
     26 C          -4.2811    4.4488   26.6058 C.ar    1  UNL1       -0.0003
     27 C          -3.0808    3.5712   26.8030 C.ar    1  UNL1       -0.0043
@<TRIPOS>BOND
     1    10    11    1
     2    11    12   ar
     3    12    13   ar
     4    13    14   ar
     5    14     4    1
     6     4     5   ar
     7     5     6   ar
     8     6     7   ar
     9     1     7    1
    10     1     2    1
    11     2    16    1
    12    16    17    2
    13    16    18   am
    14    18    19    1
    15     2     3    1
    16     3    22    1
    17    22    23   ar
    18    23    24   ar
    19    24    25   ar
    20    25    26   ar
    21    26    27   ar
    22     7     8   ar
    23     8     9   ar
    24    14    15   ar
    25    15    11   ar
    26     9     4   ar
    27     3     1    1
    28    27    22   ar
    29    18    20    1
    30    19    21    1
@<TRIPOS>MOLECULE
*****
 27 30 0 0 0
SMALL
GASTEIGER

@<TRIPOS>ATOM
      1 C           0.2166    1.4498   25.0017 C.3     1  UNL1        0.0358
      2 C           0.0874    1.5406   26.4934 C.3     1  UNL1        0.0872
      3 C          -0.8918    2.2562   25.6108 C.3     1  UNL1        0.0358
      4 C           2.3603   -0.1042   21.3631 C.ar    1  UNL1        0.0362
      5 C           1.1104    0.7102   21.2064 C.ar    1  UNL1        0.0028
      6 C           0.3959    1.2281   22.4193 C.ar    1  UNL1       -0.0042
      7 C           0.9313    0.9318   23.7888 C.ar    1  UNL1       -0.0217
      8 C           2.1811    0.1174   23.9455 C.ar    1  UNL1       -0.0042
      9 C           2.8957   -0.4006   22.7326 C.ar    1  UNL1        0.0028
     10 C           5.4612   -2.9924   18.2128 C.3     1  UNL1        0.0950
     11 C           4.5002   -1.9497   18.7022 C.ar    1  UNL1        0.2062
     12 N           3.8488   -0.8889   17.8653 N.ar    1  UNL1       -0.2104
     13 C           2.9679   -0.0685   18.7602 C.ar    1  UNL1        0.1391
     14 C           3.0749   -0.6222   20.1502 C.ar    1  UNL1        0.1659
     15 O           4.0219   -1.7849   20.1143 O.2     1  UNL1       -0.4383
     16 C           0.5782    1.1798   27.8641 C.2     1  UNL1        0.2445
     17 O           1.1574    2.2378   28.7559 O.2     1  UNL1       -0.2730
     18 N           0.4898   -0.2389   28.3431 N.am    1  UNL1       -0.1970
     19 O           0.9806   -0.5996   29.7139 O.3     1  UNL1       -0.2952
     20 H           0.1097   -0.9332   27.7578 H       1  UNL1        0.1822
     21 H           1.3214    0.1944   30.1546 H       1  UNL1        0.2414
     22 C          -2.0971    3.1350   25.4529 C.ar    1  UNL1       -0.0217
     23 C          -2.9194    3.5029   26.6523 C.ar    1  UNL1       -0.0043
     24 C          -4.1247    4.3817   26.4944 C.ar    1  UNL1       -0.0003
     25 C          -4.5078    4.8925   25.1371 C.ar    1  UNL1       -0.0000
     26 C          -3.6856    4.5246   23.9377 C.ar    1  UNL1       -0.0003
     27 C          -2.4802    3.6459   24.0956 C.ar    1  UNL1       -0.0043
@<TRIPOS>BOND
     1    10    11    1
     2    11    12   ar
     3    12    13   ar
     4    13    14   ar
     5    14     4    1
     6     4     5   ar
     7     5     6   ar
     8     6     7   ar
     9     1     7    1
    10     1     2    1
    11     2    16    1
    12    16    17    2
    13    16    18   am
    14    18    19    1
    15     2     3    1
    16     3    22    1
    17    22    23   ar
    18    23    24   ar
    19    24    25   ar
    20    25    26   ar
    21    26    27   ar
    22     7     8   ar
    23     8     9   ar
    24    14    15   ar
    25    15    11   ar
    26     9     4   ar
    27     3     1    1
    28    27    22   ar
    29    18    20    1
    30    19    21    1
@<TRIPOS>MOLECULE
*****
 27 30 0 0 0
SMALL
GASTEIGER

@<TRIPOS>ATOM
      1 C           5.1536   -1.5429   31.8074 C.3     1  UNL1        0.0358
      2 C           6.1105   -2.5898   32.2955 C.3     1  UNL1        0.0872
      3 C           5.7630   -1.4239   33.1729 C.3     1  UNL1        0.0358
      4 C           2.4408    0.0645   28.5969 C.ar    1  UNL1        0.0362
      5 C           1.9546   -0.0277   30.0129 C.ar    1  UNL1        0.0028
      6 C           2.8588   -0.5635   31.0830 C.ar    1  UNL1       -0.0042
      7 C           4.2494   -1.0071   30.7372 C.ar    1  UNL1       -0.0217
      8 C           4.7356   -0.9149   29.3212 C.ar    1  UNL1       -0.0042
      9 C           3.8314   -0.3791   28.2511 C.ar    1  UNL1        0.0028
     10 C           0.6174    1.7103   23.9227 C.3     1  UNL1        0.0950
     11 C           0.6985    1.3568   25.3782 C.ar    1  UNL1        0.2062
     12 N          -0.4084    1.4928   26.3815 N.ar    1  UNL1       -0.2104
     13 C           0.1097    1.0253   27.7093 C.ar    1  UNL1        0.1391
     14 C           1.5366    0.6003   27.5267 C.ar    1  UNL1        0.1659
     15 O           1.9005    0.8052   26.0860 O.2     1  UNL1       -0.4383
     16 C           6.8636   -3.8675   32.0707 C.2     1  UNL1        0.2445
     17 O           8.1984   -3.8409   31.3868 O.2     1  UNL1       -0.2730
     18 N           6.2819   -5.1716   32.5298 N.am    1  UNL1       -0.1970
     19 O           7.0350   -6.4492   32.3050 O.3     1  UNL1       -0.2952
     20 H           5.4058   -5.1890   32.9786 H       1  UNL1        0.1822
     21 H           7.8719   -6.2562   31.8543 H       1  UNL1        0.2414
     22 C           5.9141   -0.6821   34.4678 C.ar    1  UNL1       -0.0217
     23 C           4.7495   -0.5661   35.4060 C.ar    1  UNL1       -0.0043
     24 C           4.9007    0.1758   36.7010 C.ar    1  UNL1       -0.0003
     25 C           6.2164    0.8016   37.0576 C.ar    1  UNL1       -0.0000
     26 C           7.3810    0.6856   36.1194 C.ar    1  UNL1       -0.0003
     27 C           7.2298   -0.0563   34.8245 C.ar    1  UNL1       -0.0043
@<TRIPOS>BOND
     1    10    11    1
     2    11    12   ar
     3    12    13   ar
     4    13    14   ar
     5    14     4    1
     6     4     5   ar
     7     5     6   ar
     8     6     7   ar
     9     1     7    1
    10     1     2    1
    11     2    16    1
    12    16    17    2
    13    16    18   am
    14    18    19    1
    15     2     3    1
    16     3    22    1
    17    22    23   ar
    18    23    24   ar
    19    24    25   ar
    20    25    26   ar
    21    26    27   ar
    22     7     8   ar
    23     8     9   ar
    24    14    15   ar
    25    15    11   ar
    26     9     4   ar
    27     3     1    1
    28    27    22   ar
    29    18    20    1
    30    19    21    1
@<TRIPOS>MOLECULE
*****
 27 30 0 0 0
SMALL
GASTEIGER

@<TRIPOS>ATOM
      1 C           3.2847   -1.4788   21.9591 C.3     1  UNL1        0.0358
      2 C           4.1951   -2.6222   21.6218 C.3     1  UNL1        0.0872
      3 C           4.1739   -2.0662   23.0148 C.3     1  UNL1        0.0358
      4 C           0.1677    1.5189   20.7151 C.ar    1  UNL1        0.0362
      5 C           0.8105    1.6223   22.0664 C.ar    1  UNL1        0.0028
      6 C           1.8495    0.6230   22.4811 C.ar    1  UNL1       -0.0042
      7 C           2.2456   -0.4796   21.5444 C.ar    1  UNL1       -0.0217
      8 C           1.6028   -0.5829   20.1931 C.ar    1  UNL1       -0.0042
      9 C           0.5639    0.4163   19.7785 C.ar    1  UNL1        0.0028
     10 C          -4.3913    4.1538   20.3218 C.3     1  UNL1        0.0950
     11 C          -2.9668    3.7293   20.1196 C.ar    1  UNL1        0.2062
     12 N          -1.9735    4.3825   19.2047 N.ar    1  UNL1       -0.2104
     13 C          -0.6785    3.6339   19.3165 C.ar    1  UNL1        0.1391
     14 C          -0.8714    2.5182   20.3004 C.ar    1  UNL1        0.1659
     15 O          -2.2856    2.5772   20.7967 O.2     1  UNL1       -0.4383
     16 C           4.7331   -3.6033   20.6228 C.2     1  UNL1        0.2445
     17 O           5.9995   -4.3524   20.9143 O.2     1  UNL1       -0.2730
     18 N           4.0046   -3.8352   19.3322 N.am    1  UNL1       -0.1970
     19 O           4.5426   -4.8163   18.3332 O.3     1  UNL1       -0.2952
     20 H           3.1735   -3.3435   19.1409 H       1  UNL1        0.1822
     21 H           5.3607   -5.2098   18.6748 H       1  UNL1        0.2414
     22 C           4.6749   -2.0843   24.4285 C.ar    1  UNL1       -0.0217
     23 C           5.9304   -2.8308   24.7697 C.ar    1  UNL1       -0.0043
     24 C           6.4315   -2.8489   26.1835 C.ar    1  UNL1       -0.0003
     25 C           5.6770   -2.1206   27.2559 C.ar    1  UNL1       -0.0000
     26 C           4.4215   -1.3741   26.9147 C.ar    1  UNL1       -0.0003
     27 C           3.9204   -1.3560   25.5010 C.ar    1  UNL1       -0.0043
@<TRIPOS>BOND
     1    10    11    1
     2    11    12   ar
     3    12    13   ar
     4    13    14   ar
     5    14     4    1
     6     4     5   ar
     7     5     6   ar
     8     6     7   ar
     9     1     7    1
    10     1     2    1
    11     2    16    1
    12    16    17    2
    13    16    18   am
    14    18    19    1
    15     2     3    1
    16     3    22    1
    17    22    23   ar
    18    23    24   ar
    19    24    25   ar
    20    25    26   ar
    21    26    27   ar
    22     7     8   ar
    23     8     9   ar
    24    14    15   ar
    25    15    11   ar
    26     9     4   ar
    27     3     1    1
    28    27    22   ar
    29    18    20    1
    30    19    21    1
@<TRIPOS>MOLECULE
*****
 27 30 0 0 0
SMALL
GASTEIGER

@<TRIPOS>ATOM
      1 C           4.8704   -1.1861   32.0003 C.3     1  UNL1        0.0358
      2 C           5.7953   -2.3454   32.2249 C.3     1  UNL1        0.0872
      3 C           5.7352   -1.2294   33.2252 C.3     1  UNL1        0.0358
      4 C           1.7707    0.8968   29.4897 C.ar    1  UNL1        0.0362
      5 C           2.6954   -0.1037   28.8622 C.ar    1  UNL1        0.0028
      6 C           3.7286   -0.7980   29.6991 C.ar    1  UNL1       -0.0042
      7 C           3.8371   -0.4918   31.1635 C.ar    1  UNL1       -0.0217
      8 C           2.9124    0.5087   31.7910 C.ar    1  UNL1       -0.0042
      9 C           1.8792    1.2030   30.9541 C.ar    1  UNL1        0.0028
     10 C          -0.8827    4.6294   26.8614 C.3     1  UNL1        0.0950
     11 C          -0.4822    3.3068   27.4448 C.ar    1  UNL1        0.2062
     12 N          -1.2231    2.0122   27.2855 N.ar    1  UNL1       -0.2104
     13 C          -0.4693    0.9519   28.0321 C.ar    1  UNL1        0.1391
     14 C           0.7374    1.5911   28.6529 C.ar    1  UNL1        0.1659
     15 O           0.7294    3.0465   28.2899 O.2     1  UNL1       -0.4383
     16 C           6.3641   -3.6592   31.7769 C.2     1  UNL1        0.2445
     17 O           7.1411   -3.7425   30.4965 O.2     1  UNL1       -0.2730
     18 N           6.1558   -4.8895   32.6093 N.am    1  UNL1       -0.1970
     19 O           6.7246   -6.2032   32.1614 O.3     1  UNL1       -0.2952
     20 H           5.6459   -4.8348   33.4496 H       1  UNL1        0.1822
     21 H           7.1940   -6.0827   31.3211 H       1  UNL1        0.2414
     22 C           6.1996   -0.6100   34.5100 C.ar    1  UNL1       -0.0217
     23 C           7.6318   -0.1924   34.6665 C.ar    1  UNL1       -0.0043
     24 C           8.0963    0.4270   35.9513 C.ar    1  UNL1       -0.0003
     25 C           7.1286    0.6288   37.0795 C.ar    1  UNL1       -0.0000
     26 C           5.6964    0.2112   36.9229 C.ar    1  UNL1       -0.0003
     27 C           5.2319   -0.4082   35.6382 C.ar    1  UNL1       -0.0043
@<TRIPOS>BOND
     1    10    11    1
     2    11    12   ar
     3    12    13   ar
     4    13    14   ar
     5    14     4    1
     6     4     5   ar
     7     5     6   ar
     8     6     7   ar
     9     1     7    1
    10     1     2    1
    11     2    16    1
    12    16    17    2
    13    16    18   am
    14    18    19    1
    15     2     3    1
    16     3    22    1
    17    22    23   ar
    18    23    24   ar
    19    24    25   ar
    20    25    26   ar
    21    26    27   ar
    22     7     8   ar
    23     8     9   ar
    24    14    15   ar
    25    15    11   ar
    26     9     4   ar
    27     3     1    1
    28    27    22   ar
    29    18    20    1
    30    19    21    1
@<TRIPOS>MOLECULE
*****
 27 30 0 0 0
SMALL
GASTEIGER

@<TRIPOS>ATOM
      1 C           0.6810    1.2798   22.1674 C.3     1  UNL1        0.0358
      2 C           0.0101    1.8327   20.9451 C.3     1  UNL1        0.0872
      3 C           1.1403    0.8569   20.8035 C.3     1  UNL1        0.0358
      4 C           1.0474    1.0548   26.6468 C.ar    1  UNL1        0.0362
      5 C          -0.2102    1.5831   26.0228 C.ar    1  UNL1        0.0028
      6 C          -0.3323    1.6581   24.5297 C.ar    1  UNL1       -0.0042
      7 C           0.8032    1.2048   23.6606 C.ar    1  UNL1       -0.0217
      8 C           2.0607    0.6766   24.2846 C.ar    1  UNL1       -0.0042
      9 C           2.1828    0.6016   25.7777 C.ar    1  UNL1        0.0028
     10 C           0.8884    2.3284   31.7687 C.3     1  UNL1        0.0950
     11 C           1.0965    1.5652   30.4942 C.ar    1  UNL1        0.2062
     12 N           1.6186    0.1635   30.3811 N.ar    1  UNL1       -0.2104
     13 C           1.6637   -0.1982   28.9261 C.ar    1  UNL1        0.1391
     14 C           1.1695    0.9798   28.1400 C.ar    1  UNL1        0.1659
     15 O           0.8190    2.0697   29.1092 O.2     1  UNL1       -0.4383
     16 C          -1.0299    2.7154   20.3211 C.2     1  UNL1        0.2445
     17 O          -0.6910    3.5331   19.1101 O.2     1  UNL1       -0.2730
     18 N          -2.4087    2.7804   20.9081 N.am    1  UNL1       -0.1970
     19 O          -3.4487    3.6631   20.2841 O.3     1  UNL1       -0.2952
     20 H          -2.6311    2.2437   21.7029 H       1  UNL1        0.1822
     21 H          -3.0682    4.1183   19.5167 H       1  UNL1        0.2414
     22 C           2.0581    0.0492   19.9345 C.ar    1  UNL1       -0.0217
     23 C           2.5964   -1.2616   20.4265 C.ar    1  UNL1       -0.0043
     24 C           3.5142   -2.0692   19.5573 C.ar    1  UNL1       -0.0003
     25 C           3.8937   -1.5661   18.1962 C.ar    1  UNL1       -0.0000
     26 C           3.3554   -0.2553   17.7041 C.ar    1  UNL1       -0.0003
     27 C           2.4376    0.5523   18.5732 C.ar    1  UNL1       -0.0043
@<TRIPOS>BOND
     1    10    11    1
     2    11    12   ar
     3    12    13   ar
     4    13    14   ar
     5    14     4    1
     6     4     5   ar
     7     5     6   ar
     8     6     7   ar
     9     1     7    1
    10     1     2    1
    11     2    16    1
    12    16    17    2
    13    16    18   am
    14    18    19    1
    15     2     3    1
    16     3    22    1
    17    22    23   ar
    18    23    24   ar
    19    24    25   ar
    20    25    26   ar
    21    26    27   ar
    22     7     8   ar
    23     8     9   ar
    24    14    15   ar
    25    15    11   ar
    26     9     4   ar
    27     3     1    1
    28    27    22   ar
    29    18    20    1
    30    19    21    1
@<TRIPOS>MOLECULE
*****
 27 30 0 0 0
SMALL
GASTEIGER

@<TRIPOS>ATOM
      1 C          -5.3392    3.9944   23.4066 C.3     1  UNL1        0.0358
      2 C          -6.7806    4.2672   23.0938 C.3     1  UNL1        0.0872
      3 C          -5.7929    4.0852   21.9797 C.3     1  UNL1        0.0358
      4 C          -2.0569    3.3649   26.4198 C.ar    1  UNL1        0.0362
      5 C          -1.7715    3.2061   24.9559 C.ar    1  UNL1        0.0028
      6 C          -2.8656    3.4160   23.9515 C.ar    1  UNL1       -0.0042
      7 C          -4.2451    3.7846   24.4111 C.ar    1  UNL1       -0.0217
      8 C          -4.5304    3.9434   25.8751 C.ar    1  UNL1       -0.0042
      9 C          -3.4363    3.7335   26.8795 C.ar    1  UNL1        0.0028
     10 C           1.2272    1.0774   29.8643 C.3     1  UNL1        0.0950
     11 C           0.5467    2.1036   29.0075 C.ar    1  UNL1        0.2062
     12 N           0.8951    3.5607   28.9325 N.ar    1  UNL1       -0.2104
     13 C          -0.0378    4.2105   27.9540 C.ar    1  UNL1        0.1391
     14 C          -0.9627    3.1550   27.4243 C.ar    1  UNL1        0.1659
     15 O          -0.6014    1.8529   28.0754 O.2     1  UNL1       -0.4383
     16 C          -8.1832    4.5297   23.5563 C.2     1  UNL1        0.2445
     17 O          -8.6682    5.9400   23.7173 O.2     1  UNL1       -0.2730
     18 N          -9.1006    3.3820   23.8580 N.am    1  UNL1       -0.1970
     19 O         -10.5032    3.6446   24.3206 O.3     1  UNL1       -0.2952
     20 H          -8.7823    2.4564   23.7524 H       1  UNL1        0.1822
     21 H         -10.6533    4.6016   24.3708 H       1  UNL1        0.2414
     22 C          -5.4844    4.0325   20.5127 C.ar    1  UNL1       -0.0217
     23 C          -6.5981    4.0915   19.5096 C.ar    1  UNL1       -0.0043
     24 C          -6.2896    4.0388   18.0426 C.ar    1  UNL1       -0.0003
     25 C          -4.8675    3.9271   17.5787 C.ar    1  UNL1       -0.0000
     26 C          -3.7539    3.8680   18.5819 C.ar    1  UNL1       -0.0003
     27 C          -4.0623    3.9207   20.0488 C.ar    1  UNL1       -0.0043
@<TRIPOS>BOND
     1    10    11    1
     2    11    12   ar
     3    12    13   ar
     4    13    14   ar
     5    14     4    1
     6     4     5   ar
     7     5     6   ar
     8     6     7   ar
     9     1     7    1
    10     1     2    1
    11     2    16    1
    12    16    17    2
    13    16    18   am
    14    18    19    1
    15     2     3    1
    16     3    22    1
    17    22    23   ar
    18    23    24   ar
    19    24    25   ar
    20    25    26   ar
    21    26    27   ar
    22     7     8   ar
    23     8     9   ar
    24    14    15   ar
    25    15    11   ar
    26     9     4   ar
    27     3     1    1
    28    27    22   ar
    29    18    20    1
    30    19    21    1
@<TRIPOS>MOLECULE
*****
 27 30 0 0 0
SMALL
GASTEIGER

@<TRIPOS>ATOM
      1 C           3.3962    1.3806   35.5240 C.3     1  UNL1        0.0358
      2 C           3.1126    1.6486   36.9723 C.3     1  UNL1        0.0872
      3 C           2.6564    2.6220   35.9262 C.3     1  UNL1        0.0358
      4 C           5.1690   -1.2336   32.3189 C.ar    1  UNL1        0.0362
      5 C           4.0068   -0.3404   32.0005 C.ar    1  UNL1        0.0028
      6 C           3.4159    0.5310   33.0689 C.ar    1  UNL1       -0.0042
      7 C           3.9872    0.5092   34.4556 C.ar    1  UNL1       -0.0217
      8 C           5.1494   -0.3840   34.7740 C.ar    1  UNL1       -0.0042
      9 C           5.7403   -1.2554   33.7057 C.ar    1  UNL1        0.0028
     10 C           7.2081   -5.3980   29.7928 C.3     1  UNL1        0.0950
     11 C           6.6972   -4.0192   30.0894 C.ar    1  UNL1        0.2062
     12 N           6.6414   -2.8729   29.1235 N.ar    1  UNL1       -0.2104
     13 C           6.0621   -1.6899   29.8411 C.ar    1  UNL1        0.1391
     14 C           5.7600   -2.1051   31.2505 C.ar    1  UNL1        0.1659
     15 O           6.1525   -3.5447   31.4039 O.2     1  UNL1       -0.4383
     16 C           3.2121    1.2414   38.4126 C.2     1  UNL1        0.2445
     17 O           4.2231    1.8939   39.3083 O.2     1  UNL1       -0.2730
     18 N           2.3008    0.1817   38.9571 N.am    1  UNL1       -0.1970
     19 O           2.4003   -0.2255   40.3973 O.3     1  UNL1       -0.2952
     20 H           1.6373   -0.2465   38.3692 H       1  UNL1        0.1822
     21 H           3.0985    0.2894   40.8314 H       1  UNL1        0.2414
     22 C           1.9659    3.9006   35.5543 C.ar    1  UNL1       -0.0217
     23 C           1.6501    4.9172   36.6110 C.ar    1  UNL1       -0.0043
     24 C           0.9596    6.1959   36.2391 C.ar    1  UNL1       -0.0003
     25 C           0.5849    6.4579   34.8105 C.ar    1  UNL1       -0.0000
     26 C           0.9007    5.4413   33.7538 C.ar    1  UNL1       -0.0003
     27 C           1.5912    4.1626   34.1256 C.ar    1  UNL1       -0.0043
@<TRIPOS>BOND
     1    10    11    1
     2    11    12   ar
     3    12    13   ar
     4    13    14   ar
     5    14     4    1
     6     4     5   ar
     7     5     6   ar
     8     6     7   ar
     9     1     7    1
    10     1     2    1
    11     2    16    1
    12    16    17    2
    13    16    18   am
    14    18    19    1
    15     2     3    1
    16     3    22    1
    17    22    23   ar
    18    23    24   ar
    19    24    25   ar
    20    25    26   ar
    21    26    27   ar
    22     7     8   ar
    23     8     9   ar
    24    14    15   ar
    25    15    11   ar
    26     9     4   ar
    27     3     1    1
    28    27    22   ar
    29    18    20    1
    30    19    21    1
