@<TRIPOS>MOLECULE
*****
 41 45 0 0 0
SMALL
GASTEIGER

@<TRIPOS>ATOM
      1 C           3.3461   -0.5386   24.7168 C.ar    1  UNL1        0.0782
      2 N           4.1352   -1.7234   24.2440 N.ar    1  UNL1       -0.2480
      3 C           4.0660   -2.1453   22.8062 C.ar    1  UNL1        0.0812
      4 C           4.8552   -3.3301   22.3335 C.ar    1  UNL1        0.0214
      5 C           4.7859   -3.7520   20.8957 C.ar    1  UNL1        0.0312
      6 C           3.9275   -2.9892   19.9308 C.ar    1  UNL1        0.1402
      7 F           3.8583   -3.4111   18.4929 F       1  UNL1       -0.2042
      8 C           3.1384   -1.8044   20.4035 C.ar    1  UNL1        0.0313
      9 C           3.2076   -1.3825   21.8412 C.ar    1  UNL1        0.0243
     10 C           2.4184   -0.1977   22.3141 C.ar    1  UNL1        0.0577
     11 C           2.4877    0.2242   23.7518 C.ar    1  UNL1        0.0372
     12 C           1.5600    0.5652   21.3491 C.2     1  UNL1        0.2492
     13 O           0.1184    0.1914   21.1702 O.2     1  UNL1       -0.2699
     14 N           2.1433    1.7018   20.5629 N.am    1  UNL1       -0.2732
     15 C           3.5849    2.0756   20.7418 C.3     1  UNL1        0.1108
     16 C           4.1681    3.2122   19.9558 C.3     1  UNL1        0.0904
     17 N           3.3097    3.9750   18.9908 N.3     1  UNL1       -0.2946
     18 C           1.8681    3.6012   18.8119 C.3     1  UNL1        0.0904
     19 C           1.2849    2.4647   19.5980 C.3     1  UNL1        0.1108
     20 H           3.7511    3.8923   18.0750 H       1  UNL1        0.1233
     21 C           1.6985    1.4090   24.2246 C.ar    1  UNL1        0.0826
     22 C           0.3337    1.2137   24.8155 C.ar    1  UNL1        0.0192
     23 C          -0.4555    2.3984   25.2883 C.ar    1  UNL1        0.0031
     24 C           0.1201    3.7785   25.1702 C.ar    1  UNL1        0.0207
     25 C           1.4849    3.9738   24.5794 C.ar    1  UNL1        0.0988
     26 N           2.2741    2.7891   24.1065 N.ar    1  UNL1       -0.2438
     27 C           4.1881    1.1099   26.5399 C.3     1  UNL1        0.0278
     28 C           3.4153   -0.1166   26.1546 C.3     1  UNL1        0.1110
     29 N           2.7118   -0.9212   27.2071 N.pl3   1  UNL1       -0.3141
     30 H           2.6407   -1.8987   27.1139 H       1  UNL1        0.1485
     31 C           2.1165   -0.2364   28.4015 C.ar    1  UNL1        0.1429
     32 N           0.7667    0.4100   28.3001 N.ar    1  UNL1       -0.2084
     33 C           0.1715    1.0948   29.4945 C.ar    1  UNL1        0.2012
     34 N           0.9260    1.1332   30.7904 N.ar    1  UNL1       -0.2087
     35 C           2.2757    0.4868   30.8918 C.ar    1  UNL1        0.1396
     36 N           3.0302    0.5252   32.1877 N.pl3   1  UNL1       -0.3420
     37 C           2.8710   -0.1980   29.6973 C.ar    1  UNL1        0.1308
     38 H           2.6396    0.9747   32.9716 H       1  UNL1        0.1437
     39 H           3.9161    0.1010   32.2542 H       1  UNL1        0.1437
     40 C           4.2208   -0.8444   29.7988 C.1     1  UNL1        0.1061
     41 N           5.5705   -1.4908   29.9002 N.1     1  UNL1       -0.1906
@<TRIPOS>BOND
     1    27    28    1
     2    28    29    1
     3    29    31    1
     4    31    32   ar
     5    32    33   ar
     6    33    34   ar
     7    34    35   ar
     8    35    36    1
     9    35    37   ar
    10    37    40    1
    11    40    41    3
    12    28     1    1
    13     1     2   ar
    14     2     3   ar
    15     3     4   ar
    16     4     5   ar
    17     5     6   ar
    18     6     7    1
    19     6     8   ar
    20     8     9   ar
    21     9    10   ar
    22    10    12    1
    23    12    13    2
    24    12    14   am
    25    14    15    1
    26    15    16    1
    27    16    17    1
    28    17    18    1
    29    18    19    1
    30    10    11   ar
    31    11    21    1
    32    21    22   ar
    33    22    23   ar
    34    23    24   ar
    35    24    25   ar
    36    25    26   ar
    37    37    31   ar
    38    11     1   ar
    39    26    21   ar
    40     9     3   ar
    41    19    14    1
    42    29    30    1
    43    36    38    1
    44    36    39    1
    45    17    20    1
@<TRIPOS>MOLECULE
*****
 41 45 0 0 0
SMALL
GASTEIGER

@<TRIPOS>ATOM
      1 C           5.0031   -3.0974   21.1806 C.ar    1  UNL1        0.0782
      2 N           5.7977   -4.0317   22.0441 N.ar    1  UNL1       -0.2480
      3 C           6.0042   -3.7180   23.4963 C.ar    1  UNL1        0.0812
      4 C           6.7988   -4.6523   24.3598 C.ar    1  UNL1        0.0214
      5 C           7.0053   -4.3386   25.8120 C.ar    1  UNL1        0.0312
      6 C           6.4172   -3.0906   26.4007 C.ar    1  UNL1        0.1402
      7 F           6.6238   -2.7769   27.8530 F       1  UNL1       -0.2042
      8 C           5.6226   -2.1563   25.5372 C.ar    1  UNL1        0.0313
      9 C           5.4161   -2.4700   24.0850 C.ar    1  UNL1        0.0243
     10 C           4.6215   -1.5357   23.2215 C.ar    1  UNL1        0.0577
     11 C           4.4150   -1.8494   21.7693 C.ar    1  UNL1        0.0372
     12 C           4.0334   -0.2876   23.8102 C.2     1  UNL1        0.2492
     13 O           2.6368   -0.3023   24.3571 O.2     1  UNL1       -0.2699
     14 N           4.8420    0.9751   23.8520 N.am    1  UNL1       -0.2732
     15 C           6.2387    0.9898   23.3051 C.3     1  UNL1        0.1108
     16 C           7.0472    2.2525   23.3469 C.3     1  UNL1        0.0904
     17 N           6.4591    3.5005   23.9356 N.3     1  UNL1       -0.2946
     18 C           5.0625    3.4858   24.4825 C.3     1  UNL1        0.0904
     19 C           4.2539    2.2231   24.4407 C.3     1  UNL1        0.1108
     20 H           6.4811    4.2102   23.2033 H       1  UNL1        0.1233
     21 C           3.6203   -0.9151   20.9057 C.ar    1  UNL1        0.0826
     22 C           2.1669   -1.1835   20.6500 C.ar    1  UNL1        0.0192
     23 C           1.3723   -0.2493   19.7865 C.ar    1  UNL1        0.0031
     24 C           2.0311    0.9534   19.1787 C.ar    1  UNL1        0.0207
     25 C           3.4845    1.2219   19.4345 C.ar    1  UNL1        0.0988
     26 N           4.2792    0.2876   20.2980 N.ar    1  UNL1       -0.2438
     27 C           3.4471   -3.8474   19.2398 C.3     1  UNL1        0.0278
     28 C           4.7965   -3.4111   19.7283 C.3     1  UNL1        0.1110
     29 N           5.9394   -3.2885   18.7646 N.pl3   1  UNL1       -0.3141
     30 H           6.1553   -4.0345   18.1596 H       1  UNL1        0.1485
     31 C           6.7533   -2.0293   18.7228 C.ar    1  UNL1        0.1429
     32 N           8.0316   -1.9362   19.5022 N.ar    1  UNL1       -0.2084
     33 C           8.8455   -0.6769   19.4603 C.ar    1  UNL1        0.2012
     34 N           8.3812    0.4893   18.6391 N.ar    1  UNL1       -0.2087
     35 C           7.1030    0.3962   17.8598 C.ar    1  UNL1        0.1396
     36 N           6.6387    1.5624   17.0385 N.pl3   1  UNL1       -0.3420
     37 C           6.2890   -0.8631   17.9016 C.ar    1  UNL1        0.1308
     38 H           7.1729    2.3889   17.0111 H       1  UNL1        0.1437
     39 H           5.7998    1.5013   16.5270 H       1  UNL1        0.1437
     40 C           5.0108   -0.9561   17.1222 C.1     1  UNL1        0.1061
     41 N           3.7326   -1.0492   16.3428 N.1     1  UNL1       -0.1906
@<TRIPOS>BOND
     1    27    28    1
     2    28    29    1
     3    29    31    1
     4    31    32   ar
     5    32    33   ar
     6    33    34   ar
     7    34    35   ar
     8    35    36    1
     9    35    37   ar
    10    37    40    1
    11    40    41    3
    12    28     1    1
    13     1     2   ar
    14     2     3   ar
    15     3     4   ar
    16     4     5   ar
    17     5     6   ar
    18     6     7    1
    19     6     8   ar
    20     8     9   ar
    21     9    10   ar
    22    10    12    1
    23    12    13    2
    24    12    14   am
    25    14    15    1
    26    15    16    1
    27    16    17    1
    28    17    18    1
    29    18    19    1
    30    10    11   ar
    31    11    21    1
    32    21    22   ar
    33    22    23   ar
    34    23    24   ar
    35    24    25   ar
    36    25    26   ar
    37    37    31   ar
    38    11     1   ar
    39    26    21   ar
    40     9     3   ar
    41    19    14    1
    42    29    30    1
    43    36    38    1
    44    36    39    1
    45    17    20    1
@<TRIPOS>MOLECULE
*****
 41 45 0 0 0
SMALL
GASTEIGER

@<TRIPOS>ATOM
      1 C           4.0917    0.1071   32.9644 C.ar    1  UNL1        0.0782
      2 N           2.8636    0.4685   32.1827 N.ar    1  UNL1       -0.2480
      3 C           2.1287    1.7405   32.4862 C.ar    1  UNL1        0.0812
      4 C           0.9006    2.1020   31.7046 C.ar    1  UNL1        0.0214
      5 C           0.1658    3.3739   32.0081 C.ar    1  UNL1        0.0312
      6 C           0.6591    4.2844   33.0933 C.ar    1  UNL1        0.1402
      7 F          -0.0758    5.5564   33.3968 F       1  UNL1       -0.2042
      8 C           1.8872    3.9230   33.8750 C.ar    1  UNL1        0.0313
      9 C           2.6220    2.6510   33.5714 C.ar    1  UNL1        0.0243
     10 C           3.8502    2.2895   34.3531 C.ar    1  UNL1        0.0577
     11 C           4.5850    1.0176   34.0496 C.ar    1  UNL1        0.0372
     12 C           4.3435    3.2000   35.4383 C.2     1  UNL1        0.2492
     13 O           5.3885    4.2322   35.1340 O.2     1  UNL1       -0.2699
     14 N           3.7918    3.0783   36.8279 N.am    1  UNL1       -0.2732
     15 C           2.7468    2.0462   37.1322 C.3     1  UNL1        0.1108
     16 C           2.1952    1.9245   38.5218 C.3     1  UNL1        0.0904
     17 N           2.6885    2.8350   39.6070 N.3     1  UNL1       -0.2946
     18 C           3.7335    3.8671   39.3026 C.3     1  UNL1        0.0904
     19 C           4.2851    3.9888   37.9131 C.3     1  UNL1        0.1108
     20 H           3.0691    2.2384   40.3415 H       1  UNL1        0.1233
     21 C           5.8132    0.6560   34.8313 C.ar    1  UNL1        0.0826
     22 C           5.6819   -0.0136   36.1671 C.ar    1  UNL1        0.0192
     23 C           6.9100   -0.3751   36.9487 C.ar    1  UNL1        0.0031
     24 C           8.2693   -0.0670   36.3946 C.ar    1  UNL1        0.0207
     25 C           8.4006    0.6027   35.0588 C.ar    1  UNL1        0.0988
     26 N           7.1726    0.9642   34.2772 N.ar    1  UNL1       -0.2438
     27 C           4.3703   -2.4580   33.2689 C.3     1  UNL1        0.0278
     28 C           4.8265   -1.1649   32.6609 C.3     1  UNL1        0.1110
     29 N           6.0176   -1.1438   31.7494 N.pl3   1  UNL1       -0.3141
     30 H           6.9191   -1.0065   32.1205 H       1  UNL1        0.1485
     31 C           5.8351   -1.3319   30.2725 C.ar    1  UNL1        0.1429
     32 N           5.3933   -0.1804   29.4187 N.ar    1  UNL1       -0.2084
     33 C           5.2108   -0.3684   27.9418 C.ar    1  UNL1        0.2012
     34 N           5.4702   -1.7080   27.3186 N.ar    1  UNL1       -0.2087
     35 C           5.9120   -2.8594   28.1723 C.ar    1  UNL1        0.1396
     36 N           6.1714   -4.1990   27.5491 N.pl3   1  UNL1       -0.3420
     37 C           6.0945   -2.6714   29.6493 C.ar    1  UNL1        0.1308
     38 H           6.0516   -4.3224   26.5797 H       1  UNL1        0.1437
     39 H           6.4614   -4.9547   28.1094 H       1  UNL1        0.1437
     40 C           6.5363   -3.8229   30.5030 C.1     1  UNL1        0.1061
     41 N           6.9782   -4.9743   31.3567 N.1     1  UNL1       -0.1906
@<TRIPOS>BOND
     1    27    28    1
     2    28    29    1
     3    29    31    1
     4    31    32   ar
     5    32    33   ar
     6    33    34   ar
     7    34    35   ar
     8    35    36    1
     9    35    37   ar
    10    37    40    1
    11    40    41    3
    12    28     1    1
    13     1     2   ar
    14     2     3   ar
    15     3     4   ar
    16     4     5   ar
    17     5     6   ar
    18     6     7    1
    19     6     8   ar
    20     8     9   ar
    21     9    10   ar
    22    10    12    1
    23    12    13    2
    24    12    14   am
    25    14    15    1
    26    15    16    1
    27    16    17    1
    28    17    18    1
    29    18    19    1
    30    10    11   ar
    31    11    21    1
    32    21    22   ar
    33    22    23   ar
    34    23    24   ar
    35    24    25   ar
    36    25    26   ar
    37    37    31   ar
    38    11     1   ar
    39    26    21   ar
    40     9     3   ar
    41    19    14    1
    42    29    30    1
    43    36    38    1
    44    36    39    1
    45    17    20    1
@<TRIPOS>MOLECULE
*****
 41 45 0 0 0
SMALL
GASTEIGER

@<TRIPOS>ATOM
      1 C          -0.9813    2.6029   21.3144 C.ar    1  UNL1        0.0782
      2 N          -0.4308    1.4087   20.5927 N.ar    1  UNL1       -0.2480
      3 C           0.7932    0.7159   21.1140 C.ar    1  UNL1        0.0812
      4 C           1.3437   -0.4783   20.3923 C.ar    1  UNL1        0.0214
      5 C           2.5677   -1.1711   20.9136 C.ar    1  UNL1        0.0312
      6 C           3.2412   -0.6698   22.1566 C.ar    1  UNL1        0.1402
      7 F           4.4652   -1.3627   22.6779 F       1  UNL1       -0.2042
      8 C           2.6907    0.5244   22.8783 C.ar    1  UNL1        0.0313
      9 C           1.4667    1.2172   22.3570 C.ar    1  UNL1        0.0243
     10 C           0.9161    2.4114   23.0787 C.ar    1  UNL1        0.0577
     11 C          -0.3079    3.1042   22.5574 C.ar    1  UNL1        0.0372
     12 C           1.5896    2.9127   24.3217 C.2     1  UNL1        0.2492
     13 O           2.7179    3.8957   24.2190 O.2     1  UNL1       -0.2699
     14 N           1.1347    2.4310   25.6675 N.am    1  UNL1       -0.2732
     15 C           0.0064    1.4480   25.7703 C.3     1  UNL1        0.1108
     16 C          -0.4484    0.9664   27.1160 C.3     1  UNL1        0.0904
     17 N           0.2251    1.4677   28.3590 N.3     1  UNL1       -0.2946
     18 C           1.3534    2.4507   28.2563 C.3     1  UNL1        0.0904
     19 C           1.8082    2.9324   26.9105 C.3     1  UNL1        0.1108
     20 H           0.5908    0.6496   28.8462 H       1  UNL1        0.1233
     21 C          -0.8584    4.2985   23.2791 C.ar    1  UNL1        0.0826
     22 C          -2.0151    4.1382   24.2206 C.ar    1  UNL1        0.0192
     23 C          -2.5657    5.3324   24.9423 C.ar    1  UNL1        0.0031
     24 C          -1.9596    6.6867   24.7225 C.ar    1  UNL1        0.0207
     25 C          -0.8029    6.8469   23.7810 C.ar    1  UNL1        0.0988
     26 N          -0.2523    5.6528   23.0593 N.ar    1  UNL1       -0.2438
     27 C          -2.1074    4.6975   20.2681 C.3     1  UNL1        0.0278
     28 C          -2.2054    3.2958   20.7931 C.3     1  UNL1        0.1110
     29 N          -3.5273    2.5870   20.7968 N.pl3   1  UNL1       -0.3141
     30 H          -3.5719    1.6273   20.5816 H       1  UNL1        0.1485
     31 C          -4.7813    3.3403   21.1284 C.ar    1  UNL1        0.1429
     32 N          -5.1672    3.5607   22.5611 N.ar    1  UNL1       -0.2084
     33 C          -6.4212    4.3140   22.8926 C.ar    1  UNL1        0.2012
     34 N          -7.2893    4.8470   21.7916 N.ar    1  UNL1       -0.2087
     35 C          -6.9034    4.6267   20.3589 C.ar    1  UNL1        0.1396
     36 N          -7.7715    5.1597   19.2579 N.pl3   1  UNL1       -0.3420
     37 C          -5.6494    3.8733   20.0273 C.ar    1  UNL1        0.1308
     38 H          -8.5945    5.6541   19.4755 H       1  UNL1        0.1437
     39 H          -7.5182    5.0150   18.3176 H       1  UNL1        0.1437
     40 C          -5.2635    3.6530   18.5947 C.1     1  UNL1        0.1061
     41 N          -4.8776    3.4326   17.1620 N.1     1  UNL1       -0.1906
@<TRIPOS>BOND
     1    27    28    1
     2    28    29    1
     3    29    31    1
     4    31    32   ar
     5    32    33   ar
     6    33    34   ar
     7    34    35   ar
     8    35    36    1
     9    35    37   ar
    10    37    40    1
    11    40    41    3
    12    28     1    1
    13     1     2   ar
    14     2     3   ar
    15     3     4   ar
    16     4     5   ar
    17     5     6   ar
    18     6     7    1
    19     6     8   ar
    20     8     9   ar
    21     9    10   ar
    22    10    12    1
    23    12    13    2
    24    12    14   am
    25    14    15    1
    26    15    16    1
    27    16    17    1
    28    17    18    1
    29    18    19    1
    30    10    11   ar
    31    11    21    1
    32    21    22   ar
    33    22    23   ar
    34    23    24   ar
    35    24    25   ar
    36    25    26   ar
    37    37    31   ar
    38    11     1   ar
    39    26    21   ar
    40     9     3   ar
    41    19    14    1
    42    29    30    1
    43    36    38    1
    44    36    39    1
    45    17    20    1
@<TRIPOS>MOLECULE
*****
 41 45 0 0 0
SMALL
GASTEIGER

@<TRIPOS>ATOM
      1 C           3.3809   -0.2601   24.0907 C.ar    1  UNL1        0.0782
      2 N           4.2015   -1.0354   25.0783 N.ar    1  UNL1       -0.2480
      3 C           5.1028   -2.1367   24.6040 C.ar    1  UNL1        0.0812
      4 C           5.9235   -2.9120   25.5916 C.ar    1  UNL1        0.0214
      5 C           6.8247   -4.0132   25.1172 C.ar    1  UNL1        0.0312
      6 C           6.9053   -4.3391   23.6553 C.ar    1  UNL1        0.1402
      7 F           7.8066   -5.4404   23.1810 F       1  UNL1       -0.2042
      8 C           6.0846   -3.5639   22.6677 C.ar    1  UNL1        0.0313
      9 C           5.1834   -2.4626   23.1420 C.ar    1  UNL1        0.0243
     10 C           4.3627   -1.6873   22.1544 C.ar    1  UNL1        0.0577
     11 C           3.4614   -0.5861   22.6288 C.ar    1  UNL1        0.0372
     12 C           4.4432   -2.0132   20.6925 C.2     1  UNL1        0.2492
     13 O           3.5359   -3.0530   20.1048 O.2     1  UNL1       -0.2699
     14 N           5.4313   -1.2993   19.8182 N.am    1  UNL1       -0.2732
     15 C           6.3386   -0.2595   20.4060 C.3     1  UNL1        0.1108
     16 C           7.3265    0.4544   19.5317 C.3     1  UNL1        0.0904
     17 N           7.4071    0.1285   18.0698 N.3     1  UNL1       -0.2946
     18 C           6.4998   -0.9113   17.4821 C.3     1  UNL1        0.0904
     19 C           5.5118   -1.6252   18.3563 C.3     1  UNL1        0.1108
     20 H           8.3629   -0.1785   17.8888 H       1  UNL1        0.1233
     21 C           2.6407    0.1893   21.6411 C.ar    1  UNL1        0.0826
     22 C           1.3559   -0.3833   21.1201 C.ar    1  UNL1        0.0192
     23 C           0.5352    0.3919   20.1326 C.ar    1  UNL1        0.0031
     24 C           0.9993    1.7398   19.6660 C.ar    1  UNL1        0.0207
     25 C           2.2841    2.3125   20.1870 C.ar    1  UNL1        0.0988
     26 N           3.1048    1.5372   21.1746 N.ar    1  UNL1       -0.2438
     27 C           3.0457    2.1980   24.8624 C.3     1  UNL1        0.0278
     28 C           2.4795    0.8411   24.5650 C.3     1  UNL1        0.1110
     29 N           1.0122    0.5855   24.7420 N.pl3   1  UNL1       -0.3141
     30 H           0.6974   -0.3058   25.0170 H       1  UNL1        0.1485
     31 C           0.0243    1.6880   24.4999 C.ar    1  UNL1        0.1429
     32 N          -0.0706    2.3261   23.1456 N.ar    1  UNL1       -0.2084
     33 C          -1.0584    3.4286   22.9036 C.ar    1  UNL1        0.2012
     34 N          -1.9514    3.8931   24.0157 N.ar    1  UNL1       -0.2087
     35 C          -1.8565    3.2551   25.3699 C.ar    1  UNL1        0.1396
     36 N          -2.7495    3.7196   26.4820 N.pl3   1  UNL1       -0.3420
     37 C          -0.8687    2.1526   25.6120 C.ar    1  UNL1        0.1308
     38 H          -3.3978    4.4433   26.3231 H       1  UNL1        0.1437
     39 H          -2.6872    3.3009   27.3708 H       1  UNL1        0.1437
     40 C          -0.7738    1.5146   26.9662 C.1     1  UNL1        0.1061
     41 N          -0.6790    0.8766   28.3205 N.1     1  UNL1       -0.1906
@<TRIPOS>BOND
     1    27    28    1
     2    28    29    1
     3    29    31    1
     4    31    32   ar
     5    32    33   ar
     6    33    34   ar
     7    34    35   ar
     8    35    36    1
     9    35    37   ar
    10    37    40    1
    11    40    41    3
    12    28     1    1
    13     1     2   ar
    14     2     3   ar
    15     3     4   ar
    16     4     5   ar
    17     5     6   ar
    18     6     7    1
    19     6     8   ar
    20     8     9   ar
    21     9    10   ar
    22    10    12    1
    23    12    13    2
    24    12    14   am
    25    14    15    1
    26    15    16    1
    27    16    17    1
    28    17    18    1
    29    18    19    1
    30    10    11   ar
    31    11    21    1
    32    21    22   ar
    33    22    23   ar
    34    23    24   ar
    35    24    25   ar
    36    25    26   ar
    37    37    31   ar
    38    11     1   ar
    39    26    21   ar
    40     9     3   ar
    41    19    14    1
    42    29    30    1
    43    36    38    1
    44    36    39    1
    45    17    20    1
@<TRIPOS>MOLECULE
*****
 41 45 0 0 0
SMALL
GASTEIGER

@<TRIPOS>ATOM
      1 C           4.1607   -1.9997   19.9330 C.ar    1  UNL1        0.0782
      2 N           2.7491   -1.5391   19.7203 N.ar    1  UNL1       -0.2480
      3 C           2.4770   -0.1264   19.2957 C.ar    1  UNL1        0.0812
      4 C           1.0655    0.3342   19.0830 C.ar    1  UNL1        0.0214
      5 C           0.7934    1.7468   18.6584 C.ar    1  UNL1        0.0312
      6 C           1.9330    2.6989   18.4464 C.ar    1  UNL1        0.1402
      7 F           1.6609    4.1117   18.0218 F       1  UNL1       -0.2042
      8 C           3.3445    2.2384   18.6591 C.ar    1  UNL1        0.0313
      9 C           3.6166    0.8257   19.0837 C.ar    1  UNL1        0.0243
     10 C           5.0282    0.3651   19.2964 C.ar    1  UNL1        0.0577
     11 C           5.3003   -1.0476   19.7210 C.ar    1  UNL1        0.0372
     12 C           6.1678    1.3172   19.0844 C.2     1  UNL1        0.2492
     13 O           6.8145    1.4244   17.7352 O.2     1  UNL1       -0.2699
     14 N           6.6606    2.1621   20.2216 N.am    1  UNL1       -0.2732
     15 C           6.0139    2.0549   21.5708 C.3     1  UNL1        0.1108
     16 C           6.5068    2.8998   22.7079 C.3     1  UNL1        0.0904
     17 N           7.6463    3.8519   22.4960 N.3     1  UNL1       -0.2946
     18 C           8.2930    3.9591   21.1468 C.3     1  UNL1        0.0904
     19 C           7.8002    3.1142   20.0096 C.3     1  UNL1        0.1108
     20 H           8.3791    3.5851   23.1534 H       1  UNL1        0.1233
     21 C           6.7119   -1.5082   19.9336 C.ar    1  UNL1        0.0826
     22 C           7.4794   -2.1218   18.8003 C.ar    1  UNL1        0.0192
     23 C           8.8910   -2.5824   19.0129 C.ar    1  UNL1        0.0031
     24 C           9.5351   -2.4294   20.3588 C.ar    1  UNL1        0.0207
     25 C           8.7676   -1.8158   21.4922 C.ar    1  UNL1        0.0988
     26 N           7.3561   -1.3552   21.2796 N.ar    1  UNL1       -0.2438
     27 C           4.9071   -4.4196   19.3523 C.3     1  UNL1        0.0278
     28 C           4.4328   -3.4124   20.3576 C.3     1  UNL1        0.1110
     29 N           4.2307   -3.8179   21.7875 N.pl3   1  UNL1       -0.3141
     30 H           3.3666   -4.1914   22.0758 H       1  UNL1        0.1485
     31 C           5.3450   -3.6542   22.7781 C.ar    1  UNL1        0.1429
     32 N           6.5149   -4.5929   22.7529 N.ar    1  UNL1       -0.2084
     33 C           7.6292   -4.4293   23.7436 C.ar    1  UNL1        0.2012
     34 N           7.5738   -3.3270   24.7594 N.ar    1  UNL1       -0.2087
     35 C           6.4041   -2.3884   24.7847 C.ar    1  UNL1        0.1396
     36 N           6.3487   -1.2862   25.8006 N.pl3   1  UNL1       -0.3420
     37 C           5.2897   -2.5520   23.7940 C.ar    1  UNL1        0.1308
     38 H           7.0801   -1.1788   26.4507 H       1  UNL1        0.1437
     39 H           5.5809   -0.6701   25.8171 H       1  UNL1        0.1437
     40 C           4.1199   -1.6134   23.8192 C.1     1  UNL1        0.1061
     41 N           2.9502   -0.6748   23.8445 N.1     1  UNL1       -0.1906
@<TRIPOS>BOND
     1    27    28    1
     2    28    29    1
     3    29    31    1
     4    31    32   ar
     5    32    33   ar
     6    33    34   ar
     7    34    35   ar
     8    35    36    1
     9    35    37   ar
    10    37    40    1
    11    40    41    3
    12    28     1    1
    13     1     2   ar
    14     2     3   ar
    15     3     4   ar
    16     4     5   ar
    17     5     6   ar
    18     6     7    1
    19     6     8   ar
    20     8     9   ar
    21     9    10   ar
    22    10    12    1
    23    12    13    2
    24    12    14   am
    25    14    15    1
    26    15    16    1
    27    16    17    1
    28    17    18    1
    29    18    19    1
    30    10    11   ar
    31    11    21    1
    32    21    22   ar
    33    22    23   ar
    34    23    24   ar
    35    24    25   ar
    36    25    26   ar
    37    37    31   ar
    38    11     1   ar
    39    26    21   ar
    40     9     3   ar
    41    19    14    1
    42    29    30    1
    43    36    38    1
    44    36    39    1
    45    17    20    1
@<TRIPOS>MOLECULE
*****
 41 45 0 0 0
SMALL
GASTEIGER

@<TRIPOS>ATOM
      1 C           2.7391    3.1594   33.7607 C.ar    1  UNL1        0.0782
      2 N           1.6407    4.0643   33.2867 N.ar    1  UNL1       -0.2480
      3 C           0.9103    4.9342   34.2665 C.ar    1  UNL1        0.0812
      4 C          -0.1880    5.8391   33.7925 C.ar    1  UNL1        0.0214
      5 C          -0.9184    6.7089   34.7723 C.ar    1  UNL1        0.0312
      6 C          -0.5504    6.6738   36.2260 C.ar    1  UNL1        0.1402
      7 F          -1.2808    7.5437   37.2058 F       1  UNL1       -0.2042
      8 C           0.5479    5.7689   36.7000 C.ar    1  UNL1        0.0313
      9 C           1.2783    4.8991   35.7202 C.ar    1  UNL1        0.0243
     10 C           2.3767    3.9941   36.1942 C.ar    1  UNL1        0.0577
     11 C           3.1071    3.1243   35.2145 C.ar    1  UNL1        0.0372
     12 C           2.7447    3.9590   37.6479 C.2     1  UNL1        0.2492
     13 O           2.0617    2.9943   38.5714 O.2     1  UNL1       -0.2699
     14 N           3.7958    4.8886   38.1782 N.am    1  UNL1       -0.2732
     15 C           4.4788    5.8533   37.2548 C.3     1  UNL1        0.1108
     16 C           5.5298    6.7829   37.7850 C.3     1  UNL1        0.0904
     17 N           5.8978    6.7478   39.2388 N.3     1  UNL1       -0.2946
     18 C           5.2148    5.7831   40.1622 C.3     1  UNL1        0.0904
     19 C           4.1637    4.8535   39.6320 C.3     1  UNL1        0.1108
     20 H           5.7249    7.6824   39.6089 H       1  UNL1        0.1233
     21 C           4.2055    2.2193   35.6884 C.ar    1  UNL1        0.0826
     22 C           3.8827    0.8343   36.1655 C.ar    1  UNL1        0.0192
     23 C           4.9810   -0.0707   36.6394 C.ar    1  UNL1        0.0031
     24 C           6.4021    0.4094   36.6363 C.ar    1  UNL1        0.0207
     25 C           6.7249    1.7944   36.1593 C.ar    1  UNL1        0.0988
     26 N           5.6266    2.6994   35.6853 N.ar    1  UNL1       -0.2438
     27 C           4.7316    2.7816   32.1368 C.3     1  UNL1        0.0278
     28 C           3.4695    2.2896   32.7809 C.3     1  UNL1        0.1110
     29 N           2.9378    0.9277   32.4454 N.pl3   1  UNL1       -0.3141
     30 H           3.0496    0.1851   33.0820 H       1  UNL1        0.1485
     31 C           2.2360    0.6973   31.1400 C.ar    1  UNL1        0.1429
     32 N           0.8787    1.2907   30.9032 N.ar    1  UNL1       -0.2084
     33 C           0.1769    1.0603   29.5977 C.ar    1  UNL1        0.2012
     34 N           0.8321    0.2366   28.5290 N.ar    1  UNL1       -0.2087
     35 C           2.1893   -0.3567   28.7657 C.ar    1  UNL1        0.1396
     36 N           2.8445   -1.1803   27.6970 N.pl3   1  UNL1       -0.3420
     37 C           2.8912   -0.1263   30.0712 C.ar    1  UNL1        0.1308
     38 H           2.3839   -1.3315   26.8401 H       1  UNL1        0.1437
     39 H           3.7353   -1.5697   27.8523 H       1  UNL1        0.1437
     40 C           4.2484   -0.7196   30.3079 C.1     1  UNL1        0.1061
     41 N           5.6055   -1.3129   30.5446 N.1     1  UNL1       -0.1906
@<TRIPOS>BOND
     1    27    28    1
     2    28    29    1
     3    29    31    1
     4    31    32   ar
     5    32    33   ar
     6    33    34   ar
     7    34    35   ar
     8    35    36    1
     9    35    37   ar
    10    37    40    1
    11    40    41    3
    12    28     1    1
    13     1     2   ar
    14     2     3   ar
    15     3     4   ar
    16     4     5   ar
    17     5     6   ar
    18     6     7    1
    19     6     8   ar
    20     8     9   ar
    21     9    10   ar
    22    10    12    1
    23    12    13    2
    24    12    14   am
    25    14    15    1
    26    15    16    1
    27    16    17    1
    28    17    18    1
    29    18    19    1
    30    10    11   ar
    31    11    21    1
    32    21    22   ar
    33    22    23   ar
    34    23    24   ar
    35    24    25   ar
    36    25    26   ar
    37    37    31   ar
    38    11     1   ar
    39    26    21   ar
    40     9     3   ar
    41    19    14    1
    42    29    30    1
    43    36    38    1
    44    36    39    1
    45    17    20    1
@<TRIPOS>MOLECULE
*****
 41 45 0 0 0
SMALL
GASTEIGER

@<TRIPOS>ATOM
      1 C           5.8546   -3.3190   24.3726 C.ar    1  UNL1        0.0782
      2 N           5.5984   -3.9138   23.0197 N.ar    1  UNL1       -0.2480
      3 C           4.6972   -3.2095   22.0492 C.ar    1  UNL1        0.0812
      4 C           4.4410   -3.8043   20.6962 C.ar    1  UNL1        0.0214
      5 C           3.5399   -3.1000   19.7258 C.ar    1  UNL1        0.0312
      6 C           2.8949   -1.8009   20.1083 C.ar    1  UNL1        0.1402
      7 F           1.9936   -1.0966   19.1378 F       1  UNL1       -0.2042
      8 C           3.1510   -1.2061   21.4613 C.ar    1  UNL1        0.0313
      9 C           4.0522   -1.9104   22.4317 C.ar    1  UNL1        0.0243
     10 C           4.3084   -1.3156   23.7847 C.ar    1  UNL1        0.0577
     11 C           5.2096   -2.0199   24.7552 C.ar    1  UNL1        0.0372
     12 C           3.6634   -0.0165   24.1673 C.2     1  UNL1        0.2492
     13 O           2.3261   -0.0145   24.8465 O.2     1  UNL1       -0.2699
     14 N           4.3559    1.2806   23.8706 N.am    1  UNL1       -0.2732
     15 C           5.6933    1.2786   23.1914 C.3     1  UNL1        0.1108
     16 C           6.3857    2.5758   22.8947 C.3     1  UNL1        0.0904
     17 N           5.7407    3.8748   23.2773 N.3     1  UNL1       -0.2946
     18 C           4.4033    3.8768   23.9564 C.3     1  UNL1        0.0904
     19 C           3.7109    2.5797   24.2531 C.3     1  UNL1        0.1108
     20 H           5.6357    4.4155   22.4187 H       1  UNL1        0.1233
     21 C           5.4658   -1.4252   26.1082 C.ar    1  UNL1        0.0826
     22 C           6.6711   -0.5605   26.3313 C.ar    1  UNL1        0.0192
     23 C           6.9273    0.0343   27.6843 C.ar    1  UNL1        0.0031
     24 C           5.9783   -0.2356   28.8141 C.ar    1  UNL1        0.0207
     25 C           4.7731   -1.1003   28.5910 C.ar    1  UNL1        0.0988
     26 N           4.5169   -1.6950   27.2380 N.ar    1  UNL1       -0.2438
     27 C           8.2357   -3.7818   25.3034 C.3     1  UNL1        0.0278
     28 C           6.7558   -4.0233   25.3432 C.3     1  UNL1        0.1110
     29 N           6.1771   -4.9691   26.3534 N.pl3   1  UNL1       -0.3141
     30 H           5.2427   -4.8659   26.6456 H       1  UNL1        0.1485
     31 C           7.0222   -6.0721   26.9183 C.ar    1  UNL1        0.1429
     32 N           7.2858   -7.3058   26.1067 N.ar    1  UNL1       -0.2084
     33 C           8.1308   -8.4088   26.6717 C.ar    1  UNL1        0.2012
     34 N           8.7123   -8.2782   28.0482 N.ar    1  UNL1       -0.2087
     35 C           8.4488   -7.0446   28.8598 C.ar    1  UNL1        0.1396
     36 N           9.0303   -6.9140   30.2363 N.pl3   1  UNL1       -0.3420
     37 C           7.6037   -5.9415   28.2948 C.ar    1  UNL1        0.1308
     38 H           9.5849   -7.6380   30.6071 H       1  UNL1        0.1437
     39 H           8.8573   -6.1043   30.7689 H       1  UNL1        0.1437
     40 C           7.3401   -4.7079   29.1064 C.1     1  UNL1        0.1061
     41 N           7.0766   -3.4743   29.9180 N.1     1  UNL1       -0.1906
@<TRIPOS>BOND
     1    27    28    1
     2    28    29    1
     3    29    31    1
     4    31    32   ar
     5    32    33   ar
     6    33    34   ar
     7    34    35   ar
     8    35    36    1
     9    35    37   ar
    10    37    40    1
    11    40    41    3
    12    28     1    1
    13     1     2   ar
    14     2     3   ar
    15     3     4   ar
    16     4     5   ar
    17     5     6   ar
    18     6     7    1
    19     6     8   ar
    20     8     9   ar
    21     9    10   ar
    22    10    12    1
    23    12    13    2
    24    12    14   am
    25    14    15    1
    26    15    16    1
    27    16    17    1
    28    17    18    1
    29    18    19    1
    30    10    11   ar
    31    11    21    1
    32    21    22   ar
    33    22    23   ar
    34    23    24   ar
    35    24    25   ar
    36    25    26   ar
    37    37    31   ar
    38    11     1   ar
    39    26    21   ar
    40     9     3   ar
    41    19    14    1
    42    29    30    1
    43    36    38    1
    44    36    39    1
    45    17    20    1
@<TRIPOS>MOLECULE
*****
 41 45 0 0 0
SMALL
GASTEIGER

@<TRIPOS>ATOM
      1 C           1.2980    1.9245   21.9937 C.ar    1  UNL1        0.0782
      2 N           1.1324    1.3419   23.3660 N.ar    1  UNL1       -0.2480
      3 C           0.1520    1.9491   24.3253 C.ar    1  UNL1        0.0812
      4 C          -0.0136    1.3665   25.6975 C.ar    1  UNL1        0.0214
      5 C          -0.9940    1.9738   26.6568 C.ar    1  UNL1        0.0312
      6 C          -1.8087    3.1636   26.2437 C.ar    1  UNL1        0.1402
      7 F          -2.7891    3.7708   27.2031 F       1  UNL1       -0.2042
      8 C          -1.6431    3.7462   24.8715 C.ar    1  UNL1        0.0313
      9 C          -0.6627    3.1389   23.9123 C.ar    1  UNL1        0.0243
     10 C          -0.4971    3.7215   22.5399 C.ar    1  UNL1        0.0577
     11 C           0.4833    3.1143   21.5807 C.ar    1  UNL1        0.0372
     12 C          -1.3118    4.9114   22.1269 C.2     1  UNL1        0.2492
     13 O          -0.7586    6.2951   22.2980 O.2     1  UNL1       -0.2699
     14 N          -2.6798    4.7174   21.5428 N.am    1  UNL1       -0.2732
     15 C          -3.2330    3.3337   21.3718 C.3     1  UNL1        0.1108
     16 C          -4.6009    3.1398   20.7878 C.3     1  UNL1        0.0904
     17 N          -5.4156    4.3296   20.3747 N.3     1  UNL1       -0.2946
     18 C          -4.8624    5.7133   20.5458 C.3     1  UNL1        0.0904
     19 C          -3.4945    5.9072   21.1298 C.3     1  UNL1        0.1108
     20 H          -6.2839    4.2916   20.9086 H       1  UNL1        0.1233
     21 C           0.6490    3.6969   20.2084 C.ar    1  UNL1        0.0826
     22 C          -0.1719    3.1734   19.0673 C.ar    1  UNL1        0.0192
     23 C          -0.0063    3.7560   17.6950 C.ar    1  UNL1        0.0031
     24 C           0.9802    4.8620   17.4638 C.ar    1  UNL1        0.0207
     25 C           1.8011    5.3855   18.6050 C.ar    1  UNL1        0.0988
     26 N           1.6355    4.8030   19.9772 N.ar    1  UNL1       -0.2438
     27 C           3.6289    1.9424   20.8461 C.3     1  UNL1        0.0278
     28 C           2.2784    1.3173   21.0344 C.3     1  UNL1        0.1110
     29 N           1.9083    0.0850   20.2635 N.pl3   1  UNL1       -0.3141
     30 H           1.0252   -0.3303   20.3935 H       1  UNL1        0.1485
     31 C           2.8837   -0.5145   19.2944 C.ar    1  UNL1        0.1429
     32 N           2.8461   -0.1155   17.8488 N.ar    1  UNL1       -0.2084
     33 C           3.8215   -0.7150   16.8797 C.ar    1  UNL1        0.2012
     34 N           4.8345   -1.7135   17.3561 N.ar    1  UNL1       -0.2087
     35 C           4.8721   -2.1125   18.8015 C.ar    1  UNL1        0.1396
     36 N           5.8851   -3.1110   19.2779 N.pl3   1  UNL1       -0.3420
     37 C           3.8967   -1.5130   19.7707 C.ar    1  UNL1        0.1308
     38 H           6.5252   -3.5044   18.6418 H       1  UNL1        0.1437
     39 H           5.9097   -3.3728   20.2266 H       1  UNL1        0.1437
     40 C           3.9343   -1.9120   21.2161 C.1     1  UNL1        0.1061
     41 N           3.9718   -2.3110   22.6616 N.1     1  UNL1       -0.1906
@<TRIPOS>BOND
     1    27    28    1
     2    28    29    1
     3    29    31    1
     4    31    32   ar
     5    32    33   ar
     6    33    34   ar
     7    34    35   ar
     8    35    36    1
     9    35    37   ar
    10    37    40    1
    11    40    41    3
    12    28     1    1
    13     1     2   ar
    14     2     3   ar
    15     3     4   ar
    16     4     5   ar
    17     5     6   ar
    18     6     7    1
    19     6     8   ar
    20     8     9   ar
    21     9    10   ar
    22    10    12    1
    23    12    13    2
    24    12    14   am
    25    14    15    1
    26    15    16    1
    27    16    17    1
    28    17    18    1
    29    18    19    1
    30    10    11   ar
    31    11    21    1
    32    21    22   ar
    33    22    23   ar
    34    23    24   ar
    35    24    25   ar
    36    25    26   ar
    37    37    31   ar
    38    11     1   ar
    39    26    21   ar
    40     9     3   ar
    41    19    14    1
    42    29    30    1
    43    36    38    1
    44    36    39    1
    45    17    20    1
