@<TRIPOS>MOLECULE
*****
 22 24 0 0 0
SMALL
GASTEIGER

@<TRIPOS>ATOM
      1 C          -7.6432  -18.4611   22.1722 C.3     1  UNL1        0.1753
      2 O          -8.3098  -19.7140   21.6867 O.3     1  UNL1       -0.3460
      3 C          -9.7964  -19.7444   21.4891 C.3     1  UNL1        0.1685
      4 C         -10.6165  -18.5218   21.7770 C.ar    1  UNL1        0.0067
      5 C         -12.1031  -18.5522   21.5795 C.ar    1  UNL1       -0.0021
      6 C         -12.9230  -17.3296   21.8674 C.ar    1  UNL1       -0.0003
      7 C         -12.2564  -16.0767   22.3528 C.ar    1  UNL1       -0.0002
      8 C         -10.7698  -16.0463   22.5504 C.ar    1  UNL1       -0.0010
      9 C          -9.9499  -17.2688   22.2625 C.ar    1  UNL1        0.0181
     10 C          -8.4632  -17.2385   22.4601 C.3     1  UNL1        0.2161
     11 C          -6.1565  -18.4307   22.3698 C.3     1  UNL1        0.1027
     12 C          -4.8893  -19.9551   20.6905 C.3     1  UNL1        0.0859
     13 N          -5.2402  -18.5858   21.1925 N.3     1  UNL1       -0.2942
     14 H          -5.6739  -18.0891   20.4143 H       1  UNL1        0.1234
     15 O          -7.7966  -15.9855   22.9456 O.3     1  UNL1       -0.4725
     16 C          -7.4964  -15.8128   24.4051 C.ar    1  UNL1        0.1349
     17 C          -8.5905  -15.9689   25.4194 C.ar    1  UNL1        0.0366
     18 C          -8.2904  -15.7962   26.8788 C.ar    1  UNL1        0.0031
     19 C          -6.8963  -15.4674   27.3241 C.ar    1  UNL1       -0.0001
     20 C          -5.8022  -15.3114   26.3099 C.ar    1  UNL1       -0.0013
     21 C          -6.1023  -15.4841   24.8503 C.ar    1  UNL1        0.0121
     22 C          -5.0082  -15.3281   23.8361 C.3     1  UNL1        0.0342
@<TRIPOS>BOND
     1    12    13    1
     2    13    11    1
     3     1    11    1
     4     1     2    1
     5     2     3    1
     6     3     4    1
     7     4     5   ar
     8     5     6   ar
     9     6     7   ar
    10     7     8   ar
    11     8     9   ar
    12     9    10    1
    13    10    15    1
    14    15    16    1
    15    16    17   ar
    16    17    18   ar
    17    18    19   ar
    18    19    20   ar
    19    20    21   ar
    20    21    22    1
    21    10     1    1
    22    21    16   ar
    23     9     4   ar
    24    13    14    1
@<TRIPOS>MOLECULE
*****
 22 24 0 0 0
SMALL
GASTEIGER

@<TRIPOS>ATOM
      1 C          -6.8588  -16.4699   23.1155 C.3     1  UNL1        0.1753
      2 O          -5.4746  -16.9424   23.4485 O.3     1  UNL1       -0.3460
      3 C          -4.9232  -18.1721   22.7899 C.3     1  UNL1        0.1685
      4 C          -5.7559  -18.9294   21.7983 C.ar    1  UNL1        0.0067
      5 C          -5.2045  -20.1591   21.1398 C.ar    1  UNL1       -0.0021
      6 C          -6.0372  -20.9162   20.1482 C.ar    1  UNL1       -0.0003
      7 C          -7.4214  -20.4437   19.8152 C.ar    1  UNL1       -0.0002
      8 C          -7.9728  -19.2141   20.4738 C.ar    1  UNL1       -0.0010
      9 C          -7.1401  -18.4569   21.4653 C.ar    1  UNL1        0.0181
     10 C          -7.6915  -17.2271   22.1240 C.3     1  UNL1        0.2161
     11 C          -7.4102  -15.2402   23.7741 C.3     1  UNL1        0.1027
     12 C          -6.3560  -15.1816   26.1479 C.3     1  UNL1        0.0859
     13 N          -6.6083  -14.5270   24.8221 N.3     1  UNL1       -0.2942
     14 H          -5.6952  -14.3315   24.4118 H       1  UNL1        0.1234
     15 O          -9.0757  -16.7546   21.7910 O.3     1  UNL1       -0.4725
     16 C         -10.2564  -17.3130   22.5285 C.ar    1  UNL1        0.1349
     17 C         -10.0496  -18.1054   23.7852 C.ar    1  UNL1        0.0366
     18 C         -11.2304  -18.6638   24.5227 C.ar    1  UNL1        0.0031
     19 C         -12.6181  -18.4297   24.0035 C.ar    1  UNL1       -0.0001
     20 C         -12.8250  -17.6374   22.7468 C.ar    1  UNL1       -0.0013
     21 C         -11.6441  -17.0790   22.0092 C.ar    1  UNL1        0.0121
     22 C         -11.8510  -16.2866   20.7526 C.3     1  UNL1        0.0342
@<TRIPOS>BOND
     1    12    13    1
     2    13    11    1
     3     1    11    1
     4     1     2    1
     5     2     3    1
     6     3     4    1
     7     4     5   ar
     8     5     6   ar
     9     6     7   ar
    10     7     8   ar
    11     8     9   ar
    12     9    10    1
    13    10    15    1
    14    15    16    1
    15    16    17   ar
    16    17    18   ar
    17    18    19   ar
    18    19    20   ar
    19    20    21   ar
    20    21    22    1
    21    10     1    1
    22    21    16   ar
    23     9     4   ar
    24    13    14    1
@<TRIPOS>MOLECULE
*****
 22 24 0 0 0
SMALL
GASTEIGER

@<TRIPOS>ATOM
      1 C          -7.2317  -17.3466   22.7866 C.3     1  UNL1        0.1753
      2 O          -5.9572  -16.5556   22.7964 O.3     1  UNL1       -0.3460
      3 C          -5.5763  -15.7623   24.0111 C.3     1  UNL1        0.1685
      4 C          -6.4699  -15.7598   25.2159 C.ar    1  UNL1        0.0067
      5 C          -6.0890  -14.9664   26.4306 C.ar    1  UNL1       -0.0021
      6 C          -6.9826  -14.9640   27.6353 C.ar    1  UNL1       -0.0003
      7 C          -8.2571  -15.7550   27.6254 C.ar    1  UNL1       -0.0002
      8 C          -8.6380  -16.5484   26.4108 C.ar    1  UNL1       -0.0010
      9 C          -7.7444  -16.5508   25.2060 C.ar    1  UNL1        0.0181
     10 C          -8.1253  -17.3442   23.9913 C.3     1  UNL1        0.2161
     11 C          -7.6126  -18.1400   21.5718 C.3     1  UNL1        0.1027
     12 C          -6.2430  -20.3004   22.0262 C.3     1  UNL1        0.0859
     13 N          -7.5166  -19.6368   21.5932 N.3     1  UNL1       -0.2942
     14 H          -8.2498  -19.9700   22.2190 H       1  UNL1        0.1234
     15 O          -9.3997  -18.1352   23.9814 O.3     1  UNL1       -0.4725
     16 C         -10.5449  -17.7015   23.1151 C.ar    1  UNL1        0.1349
     17 C         -10.9436  -16.2562   23.0670 C.ar    1  UNL1        0.0366
     18 C         -12.0888  -15.8226   22.2007 C.ar    1  UNL1        0.0031
     19 C         -12.8352  -16.8341   21.3824 C.ar    1  UNL1       -0.0001
     20 C         -12.4366  -18.2793   21.4305 C.ar    1  UNL1       -0.0013
     21 C         -11.2914  -18.7131   22.2969 C.ar    1  UNL1        0.0121
     22 C         -10.8927  -20.1583   22.3449 C.3     1  UNL1        0.0342
@<TRIPOS>BOND
     1    12    13    1
     2    13    11    1
     3     1    11    1
     4     1     2    1
     5     2     3    1
     6     3     4    1
     7     4     5   ar
     8     5     6   ar
     9     6     7   ar
    10     7     8   ar
    11     8     9   ar
    12     9    10    1
    13    10    15    1
    14    15    16    1
    15    16    17   ar
    16    17    18   ar
    17    18    19   ar
    18    19    20   ar
    19    20    21   ar
    20    21    22    1
    21    10     1    1
    22    21    16   ar
    23     9     4   ar
    24    13    14    1
@<TRIPOS>MOLECULE
*****
 22 24 0 0 0
SMALL
GASTEIGER

@<TRIPOS>ATOM
      1 C          -7.0718  -16.7535   23.3514 C.3     1  UNL1        0.1753
      2 O          -6.1622  -15.5704   23.5028 O.3     1  UNL1       -0.3460
      3 C          -4.6943  -15.7131   23.2294 C.3     1  UNL1        0.1685
      4 C          -4.1359  -17.0390   22.8046 C.ar    1  UNL1        0.0067
      5 C          -2.6680  -17.1817   22.5312 C.ar    1  UNL1       -0.0021
      6 C          -2.1096  -18.5075   22.1064 C.ar    1  UNL1       -0.0003
      7 C          -3.0192  -19.6906   21.9550 C.ar    1  UNL1       -0.0002
      8 C          -4.4872  -19.5479   22.2284 C.ar    1  UNL1       -0.0010
      9 C          -5.0455  -18.2221   22.6532 C.ar    1  UNL1        0.0181
     10 C          -6.5135  -18.0793   22.9266 C.3     1  UNL1        0.2161
     11 C          -8.5398  -16.6108   23.6248 C.3     1  UNL1        0.1027
     12 C         -10.9220  -16.2097   22.6687 C.3     1  UNL1        0.0859
     13 N          -9.4389  -15.9983   22.5921 N.3     1  UNL1       -0.2942
     14 H          -9.2830  -14.9909   22.6261 H       1  UNL1        0.1234
     15 O          -7.4231  -19.2624   22.7751 O.3     1  UNL1       -0.4725
     16 C          -8.2807  -19.3974   21.5519 C.ar    1  UNL1        0.1349
     17 C          -7.6624  -19.3039   20.1884 C.ar    1  UNL1        0.0366
     18 C          -8.5200  -19.4389   18.9652 C.ar    1  UNL1        0.0031
     19 C          -9.9958  -19.6674   19.1054 C.ar    1  UNL1       -0.0001
     20 C         -10.6141  -19.7609   20.4689 C.ar    1  UNL1       -0.0013
     21 C          -9.7565  -19.6259   21.6922 C.ar    1  UNL1        0.0121
     22 C         -10.3748  -19.7194   23.0556 C.3     1  UNL1        0.0342
@<TRIPOS>BOND
     1    12    13    1
     2    13    11    1
     3     1    11    1
     4     1     2    1
     5     2     3    1
     6     3     4    1
     7     4     5   ar
     8     5     6   ar
     9     6     7   ar
    10     7     8   ar
    11     8     9   ar
    12     9    10    1
    13    10    15    1
    14    15    16    1
    15    16    17   ar
    16    17    18   ar
    17    18    19   ar
    18    19    20   ar
    19    20    21   ar
    20    21    22    1
    21    10     1    1
    22    21    16   ar
    23     9     4   ar
    24    13    14    1
@<TRIPOS>MOLECULE
*****
 22 24 0 0 0
SMALL
GASTEIGER

@<TRIPOS>ATOM
      1 C          -7.1236  -16.6697   23.0549 C.3     1  UNL1        0.1753
      2 O          -8.1112  -15.5548   22.8770 O.3     1  UNL1       -0.3460
      3 C          -9.3281  -15.7598   22.0243 C.3     1  UNL1        0.1685
      4 C          -9.5574  -17.0797   21.3494 C.ar    1  UNL1        0.0067
      5 C         -10.7743  -17.2846   20.4967 C.ar    1  UNL1       -0.0021
      6 C         -11.0036  -18.6045   19.8220 C.ar    1  UNL1       -0.0003
      7 C         -10.0160  -19.7194   19.9999 C.ar    1  UNL1       -0.0002
      8 C          -8.7991  -19.5144   20.8526 C.ar    1  UNL1       -0.0010
      9 C          -8.5699  -18.1946   21.5274 C.ar    1  UNL1        0.0181
     10 C          -7.3529  -17.9896   22.3801 C.3     1  UNL1        0.2161
     11 C          -5.9067  -16.4647   23.9077 C.3     1  UNL1        0.1027
     12 C          -5.4869  -15.1146   26.0872 C.3     1  UNL1        0.0859
     13 N          -5.6894  -15.1528   24.6015 N.3     1  UNL1       -0.2942
     14 H          -4.8618  -14.7306   24.1805 H       1  UNL1        0.1234
     15 O          -6.3653  -19.1045   22.5580 O.3     1  UNL1       -0.4725
     16 C          -5.0949  -19.1155   21.7606 C.ar    1  UNL1        0.1349
     17 C          -3.9710  -18.1924   22.1277 C.ar    1  UNL1        0.0366
     18 C          -2.7006  -18.2034   21.3303 C.ar    1  UNL1        0.0031
     19 C          -2.5540  -19.1374   20.1658 C.ar    1  UNL1       -0.0001
     20 C          -3.6779  -20.0605   19.7987 C.ar    1  UNL1       -0.0013
     21 C          -4.9484  -20.0495   20.5961 C.ar    1  UNL1        0.0121
     22 C          -6.0723  -20.9726   20.2290 C.3     1  UNL1        0.0342
@<TRIPOS>BOND
     1    12    13    1
     2    13    11    1
     3     1    11    1
     4     1     2    1
     5     2     3    1
     6     3     4    1
     7     4     5   ar
     8     5     6   ar
     9     6     7   ar
    10     7     8   ar
    11     8     9   ar
    12     9    10    1
    13    10    15    1
    14    15    16    1
    15    16    17   ar
    16    17    18   ar
    17    18    19   ar
    18    19    20   ar
    19    20    21   ar
    20    21    22    1
    21    10     1    1
    22    21    16   ar
    23     9     4   ar
    24    13    14    1
@<TRIPOS>MOLECULE
*****
 22 24 0 0 0
SMALL
GASTEIGER

@<TRIPOS>ATOM
      1 C          -9.6124  -18.1615   23.2254 C.3     1  UNL1        0.1753
      2 O         -10.1713  -18.0653   24.6140 O.3     1  UNL1       -0.3460
      3 C          -9.4479  -17.2704   25.6603 C.3     1  UNL1        0.1685
      4 C          -8.1654  -16.5717   25.3179 C.ar    1  UNL1        0.0067
      5 C          -7.4419  -15.7768   26.3642 C.ar    1  UNL1       -0.0021
      6 C          -6.1595  -15.0782   26.0218 C.ar    1  UNL1       -0.0003
      7 C          -5.6006  -15.1744   24.6331 C.ar    1  UNL1       -0.0002
      8 C          -6.3241  -15.9692   23.5869 C.ar    1  UNL1       -0.0010
      9 C          -7.6065  -16.6679   23.9293 C.ar    1  UNL1        0.0181
     10 C          -8.3300  -17.4628   22.8830 C.3     1  UNL1        0.2161
     11 C         -10.3360  -18.9564   22.1791 C.3     1  UNL1        0.1027
     12 C         -11.5382  -17.6336   20.2937 C.3     1  UNL1        0.0859
     13 N         -11.5973  -18.4208   21.5692 N.3     1  UNL1       -0.2942
     14 H         -12.2026  -19.2226   21.3925 H       1  UNL1        0.1234
     15 O          -7.7711  -17.5590   21.4943 O.3     1  UNL1       -0.4725
     16 C          -6.8220  -18.6661   21.1429 C.ar    1  UNL1        0.1349
     17 C          -5.5005  -18.7721   21.8446 C.ar    1  UNL1        0.0366
     18 C          -4.5513  -19.8791   21.4932 C.ar    1  UNL1        0.0031
     19 C          -4.9236  -20.8802   20.4400 C.ar    1  UNL1       -0.0001
     20 C          -6.2451  -20.7742   19.7382 C.ar    1  UNL1       -0.0013
     21 C          -7.1943  -19.6671   20.0897 C.ar    1  UNL1        0.0121
     22 C          -8.5157  -19.5611   19.3879 C.3     1  UNL1        0.0342
@<TRIPOS>BOND
     1    12    13    1
     2    13    11    1
     3     1    11    1
     4     1     2    1
     5     2     3    1
     6     3     4    1
     7     4     5   ar
     8     5     6   ar
     9     6     7   ar
    10     7     8   ar
    11     8     9   ar
    12     9    10    1
    13    10    15    1
    14    15    16    1
    15    16    17   ar
    16    17    18   ar
    17    18    19   ar
    18    19    20   ar
    19    20    21   ar
    20    21    22    1
    21    10     1    1
    22    21    16   ar
    23     9     4   ar
    24    13    14    1
@<TRIPOS>MOLECULE
*****
 22 24 0 0 0
SMALL
GASTEIGER

@<TRIPOS>ATOM
      1 C          -8.6868  -16.8557   24.3404 C.3     1  UNL1        0.1753
      2 O          -9.9556  -17.3392   24.9778 O.3     1  UNL1       -0.3460
      3 C         -10.8699  -18.2594   24.2248 C.3     1  UNL1        0.1685
      4 C         -10.5155  -18.6962   22.8342 C.ar    1  UNL1        0.0067
      5 C         -11.4298  -19.6164   22.0812 C.ar    1  UNL1       -0.0021
      6 C         -11.0753  -20.0531   20.6906 C.ar    1  UNL1       -0.0003
      7 C          -9.8065  -19.5696   20.0532 C.ar    1  UNL1       -0.0002
      8 C          -8.8922  -18.6494   20.8062 C.ar    1  UNL1       -0.0010
      9 C          -9.2467  -18.2127   22.1967 C.ar    1  UNL1        0.0181
     10 C          -8.3323  -17.2924   22.9498 C.3     1  UNL1        0.2161
     11 C          -7.7724  -15.9354   25.0935 C.3     1  UNL1        0.1027
     12 C          -8.2535  -15.8651   27.6456 C.3     1  UNL1        0.0859
     13 N          -8.2755  -15.2011   26.3008 N.3     1  UNL1       -0.2942
     14 H          -7.7169  -14.3516   26.3827 H       1  UNL1        0.1234
     15 O          -7.0635  -16.8088   22.3124 O.3     1  UNL1       -0.4725
     16 C          -5.7990  -17.6014   22.4632 C.ar    1  UNL1        0.1349
     17 C          -5.6865  -18.9603   21.8380 C.ar    1  UNL1        0.0366
     18 C          -4.4220  -19.7529   21.9888 C.ar    1  UNL1        0.0031
     19 C          -3.2700  -19.1867   22.7649 C.ar    1  UNL1       -0.0001
     20 C          -3.3825  -17.8278   23.3901 C.ar    1  UNL1       -0.0013
     21 C          -4.6470  -17.0352   23.2392 C.ar    1  UNL1        0.0121
     22 C          -4.7595  -15.6764   23.8644 C.3     1  UNL1        0.0342
@<TRIPOS>BOND
     1    12    13    1
     2    13    11    1
     3     1    11    1
     4     1     2    1
     5     2     3    1
     6     3     4    1
     7     4     5   ar
     8     5     6   ar
     9     6     7   ar
    10     7     8   ar
    11     8     9   ar
    12     9    10    1
    13    10    15    1
    14    15    16    1
    15    16    17   ar
    16    17    18   ar
    17    18    19   ar
    18    19    20   ar
    19    20    21   ar
    20    21    22    1
    21    10     1    1
    22    21    16   ar
    23     9     4   ar
    24    13    14    1
@<TRIPOS>MOLECULE
*****
 22 24 0 0 0
SMALL
GASTEIGER

@<TRIPOS>ATOM
      1 C          -7.8385  -16.2284   23.3834 C.3     1  UNL1        0.1753
      2 O          -8.7533  -15.8752   24.5185 O.3     1  UNL1       -0.3460
      3 C         -10.2134  -16.2091   24.4368 C.3     1  UNL1        0.1685
      4 C         -10.7587  -16.8962   23.2199 C.ar    1  UNL1        0.0067
      5 C         -12.2188  -17.2301   23.1382 C.ar    1  UNL1       -0.0021
      6 C         -12.7640  -17.9171   21.9214 C.ar    1  UNL1       -0.0003
      7 C         -11.8492  -18.2703   20.7863 C.ar    1  UNL1       -0.0002
      8 C         -10.3892  -17.9364   20.8680 C.ar    1  UNL1       -0.0010
      9 C          -9.8439  -17.2494   22.0848 C.ar    1  UNL1        0.0181
     10 C          -8.3838  -16.9155   22.1666 C.3     1  UNL1        0.2161
     11 C          -6.3784  -15.8945   23.4651 C.3     1  UNL1        0.1027
     12 C          -5.4176  -15.1854   25.7724 C.3     1  UNL1        0.0859
     13 N          -5.9055  -14.8222   24.4013 N.3     1  UNL1       -0.2942
     14 H          -5.1377  -14.3405   23.9336 H       1  UNL1        0.1234
     15 O          -7.4690  -17.2686   21.0315 O.3     1  UNL1       -0.4725
     16 C          -6.7482  -18.5840   21.0306 C.ar    1  UNL1        0.1349
     17 C          -5.6309  -18.8277   22.0014 C.ar    1  UNL1        0.0366
     18 C          -4.9101  -20.1432   22.0005 C.ar    1  UNL1        0.0031
     19 C          -5.3065  -21.2149   21.0288 C.ar    1  UNL1       -0.0001
     20 C          -6.4237  -20.9713   20.0581 C.ar    1  UNL1       -0.0013
     21 C          -7.1446  -19.6558   20.0589 C.ar    1  UNL1        0.0121
     22 C          -8.2618  -19.4122   19.0881 C.3     1  UNL1        0.0342
@<TRIPOS>BOND
     1    12    13    1
     2    13    11    1
     3     1    11    1
     4     1     2    1
     5     2     3    1
     6     3     4    1
     7     4     5   ar
     8     5     6   ar
     9     6     7   ar
    10     7     8   ar
    11     8     9   ar
    12     9    10    1
    13    10    15    1
    14    15    16    1
    15    16    17   ar
    16    17    18   ar
    17    18    19   ar
    18    19    20   ar
    19    20    21   ar
    20    21    22    1
    21    10     1    1
    22    21    16   ar
    23     9     4   ar
    24    13    14    1
@<TRIPOS>MOLECULE
*****
 22 24 0 0 0
SMALL
GASTEIGER

@<TRIPOS>ATOM
      1 C          -7.5902  -16.2992   24.0239 C.3     1  UNL1        0.1753
      2 O          -8.3476  -16.2928   25.3186 O.3     1  UNL1       -0.3460
      3 C          -9.4812  -17.2523   25.5292 C.3     1  UNL1        0.1685
      4 C          -9.8574  -18.2182   24.4449 C.ar    1  UNL1        0.0067
      5 C         -10.9910  -19.1777   24.6555 C.ar    1  UNL1       -0.0021
      6 C         -11.3672  -20.1435   23.5713 C.ar    1  UNL1       -0.0003
      7 C         -10.6098  -20.1499   22.2765 C.ar    1  UNL1       -0.0002
      8 C          -9.4762  -19.1905   22.0660 C.ar    1  UNL1       -0.0010
      9 C          -9.1000  -18.2246   23.1502 C.ar    1  UNL1        0.0181
     10 C          -7.9664  -17.2651   22.9397 C.3     1  UNL1        0.2161
     11 C          -6.4565  -15.3397   23.8134 C.3     1  UNL1        0.1027
     12 C          -5.1789  -15.3930   26.0749 C.3     1  UNL1        0.0859
     13 N          -5.8572  -14.6184   24.9841 N.3     1  UNL1       -0.2942
     14 H          -5.1644  -13.9712   24.6079 H       1  UNL1        0.1234
     15 O          -7.2090  -17.2715   21.6450 O.3     1  UNL1       -0.4725
     16 C          -6.4861  -18.5100   21.2051 C.ar    1  UNL1        0.1349
     17 C          -7.0992  -19.4097   20.1732 C.ar    1  UNL1        0.0366
     18 C          -6.3763  -20.6482   19.7334 C.ar    1  UNL1        0.0031
     19 C          -5.0402  -20.9870   20.3252 C.ar    1  UNL1       -0.0001
     20 C          -4.4272  -20.0873   21.3570 C.ar    1  UNL1       -0.0013
     21 C          -5.1501  -18.8487   21.7970 C.ar    1  UNL1        0.0121
     22 C          -4.5370  -17.9490   22.8288 C.3     1  UNL1        0.0342
@<TRIPOS>BOND
     1    12    13    1
     2    13    11    1
     3     1    11    1
     4     1     2    1
     5     2     3    1
     6     3     4    1
     7     4     5   ar
     8     5     6   ar
     9     6     7   ar
    10     7     8   ar
    11     8     9   ar
    12     9    10    1
    13    10    15    1
    14    15    16    1
    15    16    17   ar
    16    17    18   ar
    17    18    19   ar
    18    19    20   ar
    19    20    21   ar
    20    21    22    1
    21    10     1    1
    22    21    16   ar
    23     9     4   ar
    24    13    14    1
