@<TRIPOS>MOLECULE
*****
 29 32 0 0 0
SMALL
GASTEIGER

@<TRIPOS>ATOM
      1 C          -7.7004  -15.9097   24.7288 C.3     1  UNL1        0.0545
      2 C          -7.2555  -15.4039   26.0690 C.3     1  UNL1        0.0157
      3 C          -5.7949  -15.3642   26.4086 C.3     1  UNL1        0.0017
      4 C          -4.7794  -15.8304   25.4080 C.3     1  UNL1        0.0044
      5 C          -5.2243  -16.3362   24.0677 C.3     1  UNL1        0.0237
      6 C          -6.6848  -16.3759   23.7281 C.3     1  UNL1        0.0201
      7 C          -4.2087  -16.8023   23.0671 C.ar    1  UNL1       -0.0225
      8 C          -3.1604  -15.8541   22.5650 C.ar    1  UNL1       -0.0042
      9 C          -2.1448  -16.3203   21.5644 C.ar    1  UNL1        0.0008
     10 C          -2.1775  -17.7346   21.0658 C.ar    1  UNL1        0.0140
     11 C          -3.2257  -18.6828   21.5679 C.ar    1  UNL1        0.0008
     12 C          -4.2413  -18.2167   22.5685 C.ar    1  UNL1       -0.0042
     13 C          -1.1619  -18.2007   20.0652 C.2     1  UNL1        0.0729
     14 O          -1.5781  -18.4909   18.6536 O.co2   1  UNL1       -0.5446
     15 O           0.2700  -18.3767   20.4762 O.co2   1  UNL1       -0.5446
     16 N          -9.1609  -15.9494   24.3892 N.3     1  UNL1       -0.2962
     17 H          -9.6578  -15.5335   25.1770 H       1  UNL1        0.1235
     18 C          -9.9258  -18.3056   25.1724 C.3     1  UNL1        0.0220
     19 C          -9.8283  -17.2613   24.1001 C.3     1  UNL1        0.0768
     20 C         -10.3982  -17.5288   22.7386 C.ar    1  UNL1       -0.0080
     21 C         -11.7730  -17.0395   22.3916 C.ar    1  UNL1       -0.0030
     22 C         -12.3429  -17.3070   21.0301 C.ar    1  UNL1       -0.0003
     23 C         -11.5379  -18.0638   20.0156 C.ar    1  UNL1       -0.0000
     24 C         -10.1630  -18.5532   20.3625 C.ar    1  UNL1       -0.0003
     25 C          -9.3581  -19.3100   19.3480 C.ar    1  UNL1       -0.0000
     26 C          -7.9833  -19.7993   19.6950 C.ar    1  UNL1       -0.0000
     27 C          -7.4134  -19.5318   21.0565 C.ar    1  UNL1       -0.0000
     28 C          -8.2184  -18.7750   22.0710 C.ar    1  UNL1       -0.0003
     29 C          -9.5932  -18.2857   21.7240 C.ar    1  UNL1       -0.0027
@<TRIPOS>UNITY_ATOM_ATTR
14 1
charge -1
@<TRIPOS>BOND
     1    19    18    1
     2    19    16    1
     3    16     1    1
     4     1     2    1
     5     2     3    1
     6     3     4    1
     7     4     5    1
     8     5     7    1
     9     7     8   ar
    10     8     9   ar
    11     9    10   ar
    12    10    13    1
    13    13    14   ar
    14    13    15   ar
    15    10    11   ar
    16    11    12   ar
    17     5     6    1
    18    19    20    1
    19    20    21   ar
    20    21    22   ar
    21    22    23   ar
    22    23    24   ar
    23    24    25   ar
    24    25    26   ar
    25    26    27   ar
    26    27    28   ar
    27    28    29   ar
    28     6     1    1
    29    29    20   ar
    30    12     7   ar
    31    29    24   ar
    32    16    17    1
@<TRIPOS>MOLECULE
*****
 29 32 0 0 0
SMALL
GASTEIGER

@<TRIPOS>ATOM
      1 C          -5.5001  -15.8435   24.3570 C.3     1  UNL1        0.0545
      2 C          -5.3264  -15.3171   25.7508 C.3     1  UNL1        0.0157
      3 C          -6.5049  -15.2398   26.6756 C.3     1  UNL1        0.0017
      4 C          -7.8570  -15.6889   26.2067 C.3     1  UNL1        0.0044
      5 C          -8.0308  -16.2153   24.8128 C.3     1  UNL1        0.0237
      6 C          -6.8523  -16.2926   23.8880 C.3     1  UNL1        0.0201
      7 C          -9.3829  -16.6644   24.3438 C.ar    1  UNL1       -0.0225
      8 C         -10.1525  -15.8292   23.3640 C.ar    1  UNL1       -0.0042
      9 C         -11.5047  -16.2784   22.8950 C.ar    1  UNL1        0.0008
     10 C         -12.0873  -17.5627   23.4059 C.ar    1  UNL1        0.0140
     11 C         -11.3177  -18.3979   24.3858 C.ar    1  UNL1        0.0008
     12 C          -9.9656  -17.9488   24.8548 C.ar    1  UNL1       -0.0042
     13 C         -13.4394  -18.0118   22.9370 C.2     1  UNL1        0.0729
     14 O         -13.7347  -18.0947   21.4686 O.co2   1  UNL1       -0.5446
     15 O         -14.4964  -18.3781   23.9363 O.co2   1  UNL1       -0.5446
     16 N          -4.3217  -15.9207   23.4322 N.3     1  UNL1       -0.2962
     17 H          -4.6671  -15.7065   22.4966 H       1  UNL1        0.1235
     18 C          -3.0521  -17.8854   24.5627 C.3     1  UNL1        0.0220
     19 C          -3.5364  -17.1941   23.3228 C.3     1  UNL1        0.0768
     20 C          -3.2354  -17.7761   21.9735 C.ar    1  UNL1       -0.0080
     21 C          -2.0658  -17.2700   21.1824 C.ar    1  UNL1       -0.0030
     22 C          -1.7648  -17.8519   19.8330 C.ar    1  UNL1       -0.0003
     23 C          -2.6334  -18.9400   19.2748 C.ar    1  UNL1       -0.0000
     24 C          -3.8030  -19.4461   20.0659 C.ar    1  UNL1       -0.0003
     25 C          -4.6716  -20.5342   19.5077 C.ar    1  UNL1       -0.0000
     26 C          -5.8412  -21.0403   20.2988 C.ar    1  UNL1       -0.0000
     27 C          -6.1422  -20.4583   21.6481 C.ar    1  UNL1       -0.0000
     28 C          -5.2736  -19.3703   22.2063 C.ar    1  UNL1       -0.0003
     29 C          -4.1040  -18.8642   21.4152 C.ar    1  UNL1       -0.0027
@<TRIPOS>UNITY_ATOM_ATTR
14 1
charge -1
@<TRIPOS>BOND
     1    19    18    1
     2    19    16    1
     3    16     1    1
     4     1     2    1
     5     2     3    1
     6     3     4    1
     7     4     5    1
     8     5     7    1
     9     7     8   ar
    10     8     9   ar
    11     9    10   ar
    12    10    13    1
    13    13    14   ar
    14    13    15   ar
    15    10    11   ar
    16    11    12   ar
    17     5     6    1
    18    19    20    1
    19    20    21   ar
    20    21    22   ar
    21    22    23   ar
    22    23    24   ar
    23    24    25   ar
    24    25    26   ar
    25    26    27   ar
    26    27    28   ar
    27    28    29   ar
    28     6     1    1
    29    29    20   ar
    30    12     7   ar
    31    29    24   ar
    32    16    17    1
@<TRIPOS>MOLECULE
*****
 29 32 0 0 0
SMALL
GASTEIGER

@<TRIPOS>ATOM
      1 C          -9.9312  -19.7671   21.9778 C.3     1  UNL1        0.0545
      2 C         -10.6252  -19.8304   20.6496 C.3     1  UNL1        0.0157
      3 C          -9.8283  -19.7401   19.3820 C.3     1  UNL1        0.0017
      4 C          -8.3375  -19.5865   19.4426 C.3     1  UNL1        0.0044
      5 C          -7.6434  -19.5232   20.7709 C.3     1  UNL1        0.0237
      6 C          -8.4402  -19.6135   22.0385 C.3     1  UNL1        0.0201
      7 C          -6.1525  -19.3696   20.8315 C.ar    1  UNL1       -0.0225
      8 C          -5.3702  -19.1423   19.5721 C.ar    1  UNL1       -0.0042
      9 C          -3.8792  -18.9887   19.6328 C.ar    1  UNL1        0.0008
     10 C          -3.1708  -19.0625   20.9528 C.ar    1  UNL1        0.0140
     11 C          -3.9532  -19.2898   22.2122 C.ar    1  UNL1        0.0008
     12 C          -5.4440  -19.4434   22.1516 C.ar    1  UNL1       -0.0042
     13 C          -1.6799  -18.9089   21.0134 C.2     1  UNL1        0.0729
     14 O          -0.8739  -18.9083   19.7483 O.co2   1  UNL1       -0.5446
     15 O          -0.9950  -18.7558   22.3391 O.co2   1  UNL1       -0.5446
     16 N         -10.7280  -19.8574   23.2455 N.3     1  UNL1       -0.2962
     17 H         -11.5927  -20.3471   23.0155 H       1  UNL1        0.1235
     18 C         -12.5473  -18.1473   23.9635 C.3     1  UNL1        0.0220
     19 C         -11.1196  -18.6071   23.9758 C.3     1  UNL1        0.0768
     20 C         -10.0835  -17.8166   24.7185 C.ar    1  UNL1       -0.0080
     21 C          -9.8721  -18.0486   26.1853 C.ar    1  UNL1       -0.0030
     22 C          -8.8360  -17.2581   26.9280 C.ar    1  UNL1       -0.0003
     23 C          -8.0112  -16.2357   26.2039 C.ar    1  UNL1       -0.0000
     24 C          -8.2225  -16.0037   24.7370 C.ar    1  UNL1       -0.0003
     25 C          -7.3977  -14.9813   24.0129 C.ar    1  UNL1       -0.0000
     26 C          -7.6091  -14.7494   22.5461 C.ar    1  UNL1       -0.0000
     27 C          -8.6453  -15.5398   21.8035 C.ar    1  UNL1       -0.0000
     28 C          -9.4700  -16.5622   22.5276 C.ar    1  UNL1       -0.0003
     29 C          -9.2587  -16.7942   23.9943 C.ar    1  UNL1       -0.0027
@<TRIPOS>UNITY_ATOM_ATTR
14 1
charge -1
@<TRIPOS>BOND
     1    19    18    1
     2    19    16    1
     3    16     1    1
     4     1     2    1
     5     2     3    1
     6     3     4    1
     7     4     5    1
     8     5     7    1
     9     7     8   ar
    10     8     9   ar
    11     9    10   ar
    12    10    13    1
    13    13    14   ar
    14    13    15   ar
    15    10    11   ar
    16    11    12   ar
    17     5     6    1
    18    19    20    1
    19    20    21   ar
    20    21    22   ar
    21    22    23   ar
    22    23    24   ar
    23    24    25   ar
    24    25    26   ar
    25    26    27   ar
    26    27    28   ar
    27    28    29   ar
    28     6     1    1
    29    29    20   ar
    30    12     7   ar
    31    29    24   ar
    32    16    17    1
@<TRIPOS>MOLECULE
*****
 29 32 0 0 0
SMALL
GASTEIGER

@<TRIPOS>ATOM
      1 C          -9.8527  -19.5312   21.5099 C.3     1  UNL1        0.0545
      2 C         -10.4463  -19.8250   20.1641 C.3     1  UNL1        0.0157
      3 C          -9.5552  -19.9646   18.9656 C.3     1  UNL1        0.0017
      4 C          -8.0705  -19.8103   19.1129 C.3     1  UNL1        0.0044
      5 C          -7.4768  -19.5165   20.4587 C.3     1  UNL1        0.0237
      6 C          -8.3679  -19.3769   21.6572 C.3     1  UNL1        0.0201
      7 C          -5.9920  -19.3622   20.6060 C.ar    1  UNL1       -0.0225
      8 C          -5.3671  -19.3863   21.9694 C.ar    1  UNL1       -0.0042
      9 C          -3.8822  -19.2320   22.1166 C.ar    1  UNL1        0.0008
     10 C          -3.0225  -19.0536   20.9005 C.ar    1  UNL1        0.0140
     11 C          -3.6475  -19.0295   19.5371 C.ar    1  UNL1        0.0008
     12 C          -5.1322  -19.1838   19.3899 C.ar    1  UNL1       -0.0042
     13 C          -1.5378  -18.8993   21.0478 C.2     1  UNL1        0.0729
     14 O          -0.9304  -18.7539   22.4117 O.co2   1  UNL1       -0.5446
     15 O          -0.6603  -18.8905   19.8312 O.co2   1  UNL1       -0.5446
     16 N         -10.7438  -19.3916   22.7084 N.3     1  UNL1       -0.2962
     17 H         -11.6526  -19.7728   22.4456 H       1  UNL1        0.1235
     18 C         -12.3543  -17.6972   23.8422 C.3     1  UNL1        0.0220
     19 C         -10.9973  -18.0370   23.3008 C.3     1  UNL1        0.0768
     20 C          -9.8938  -17.0222   23.3517 C.ar    1  UNL1       -0.0080
     21 C          -9.5080  -16.2709   22.1121 C.ar    1  UNL1       -0.0030
     22 C          -8.4045  -15.2562   22.1631 C.ar    1  UNL1       -0.0003
     23 C          -7.6869  -14.9927   23.4536 C.ar    1  UNL1       -0.0000
     24 C          -8.0727  -15.7440   24.6933 C.ar    1  UNL1       -0.0003
     25 C          -7.3551  -15.4805   25.9839 C.ar    1  UNL1       -0.0000
     26 C          -7.7409  -16.2318   27.2235 C.ar    1  UNL1       -0.0000
     27 C          -8.8444  -17.2465   27.1725 C.ar    1  UNL1       -0.0000
     28 C          -9.5620  -17.5100   25.8820 C.ar    1  UNL1       -0.0003
     29 C          -9.1762  -16.7587   24.6424 C.ar    1  UNL1       -0.0027
@<TRIPOS>UNITY_ATOM_ATTR
14 1
charge -1
@<TRIPOS>BOND
     1    19    18    1
     2    19    16    1
     3    16     1    1
     4     1     2    1
     5     2     3    1
     6     3     4    1
     7     4     5    1
     8     5     7    1
     9     7     8   ar
    10     8     9   ar
    11     9    10   ar
    12    10    13    1
    13    13    14   ar
    14    13    15   ar
    15    10    11   ar
    16    11    12   ar
    17     5     6    1
    18    19    20    1
    19    20    21   ar
    20    21    22   ar
    21    22    23   ar
    22    23    24   ar
    23    24    25   ar
    24    25    26   ar
    25    26    27   ar
    26    27    28   ar
    27    28    29   ar
    28     6     1    1
    29    29    20   ar
    30    12     7   ar
    31    29    24   ar
    32    16    17    1
@<TRIPOS>MOLECULE
*****
 29 32 0 0 0
SMALL
GASTEIGER

@<TRIPOS>ATOM
      1 C          -5.5962  -15.9264   24.5581 C.3     1  UNL1        0.0545
      2 C          -5.4732  -15.3103   25.9201 C.3     1  UNL1        0.0157
      3 C          -6.6902  -15.1456   26.7814 C.3     1  UNL1        0.0017
      4 C          -8.0301  -15.5970   26.2807 C.3     1  UNL1        0.0044
      5 C          -8.1531  -16.2131   24.9185 C.3     1  UNL1        0.0237
      6 C          -6.9362  -16.3778   24.0572 C.3     1  UNL1        0.0201
      7 C          -9.4931  -16.6645   24.4177 C.ar    1  UNL1       -0.0225
      8 C         -10.0894  -17.9454   24.9214 C.ar    1  UNL1       -0.0042
      9 C         -11.4294  -18.3968   24.4206 C.ar    1  UNL1        0.0008
     10 C         -12.1730  -17.5673   23.4161 C.ar    1  UNL1        0.0140
     11 C         -11.5766  -16.2864   22.9124 C.ar    1  UNL1        0.0008
     12 C         -10.2367  -15.8350   23.4132 C.ar    1  UNL1       -0.0042
     13 C         -13.5129  -18.0186   22.9153 C.2     1  UNL1        0.0729
     14 O         -13.7719  -18.1058   21.4404 O.co2   1  UNL1       -0.5446
     15 O         -14.5939  -18.3829   23.8894 O.co2   1  UNL1       -0.5446
     16 N          -4.3792  -16.0911   23.6968 N.3     1  UNL1       -0.2962
     17 H          -4.6412  -15.7936   22.7569 H       1  UNL1        0.1235
     18 C          -2.9342  -18.0052   24.6959 C.3     1  UNL1        0.0220
     19 C          -3.7336  -17.4382   23.5604 C.3     1  UNL1        0.0768
     20 C          -3.8875  -18.2183   22.2884 C.ar    1  UNL1       -0.0080
     21 C          -5.0228  -19.1865   22.1351 C.ar    1  UNL1       -0.0030
     22 C          -5.1767  -19.9666   20.8632 C.ar    1  UNL1       -0.0003
     23 C          -4.1953  -19.7785   19.7446 C.ar    1  UNL1       -0.0000
     24 C          -3.0599  -18.8102   19.8979 C.ar    1  UNL1       -0.0003
     25 C          -2.0785  -18.6220   18.7792 C.ar    1  UNL1       -0.0000
     26 C          -0.9432  -17.6538   18.9326 C.ar    1  UNL1       -0.0000
     27 C          -0.7893  -16.8738   20.2045 C.ar    1  UNL1       -0.0000
     28 C          -1.7707  -17.0619   21.3231 C.ar    1  UNL1       -0.0003
     29 C          -2.9060  -18.0301   21.1698 C.ar    1  UNL1       -0.0027
@<TRIPOS>UNITY_ATOM_ATTR
14 1
charge -1
@<TRIPOS>BOND
     1    19    18    1
     2    19    16    1
     3    16     1    1
     4     1     2    1
     5     2     3    1
     6     3     4    1
     7     4     5    1
     8     5     7    1
     9     7     8   ar
    10     8     9   ar
    11     9    10   ar
    12    10    13    1
    13    13    14   ar
    14    13    15   ar
    15    10    11   ar
    16    11    12   ar
    17     5     6    1
    18    19    20    1
    19    20    21   ar
    20    21    22   ar
    21    22    23   ar
    22    23    24   ar
    23    24    25   ar
    24    25    26   ar
    25    26    27   ar
    26    27    28   ar
    27    28    29   ar
    28     6     1    1
    29    29    20   ar
    30    12     7   ar
    31    29    24   ar
    32    16    17    1
@<TRIPOS>MOLECULE
*****
 29 32 0 0 0
SMALL
GASTEIGER

@<TRIPOS>ATOM
      1 C          -8.0487  -19.3065   22.4795 C.3     1  UNL1        0.0545
      2 C          -8.9277  -19.7012   21.3299 C.3     1  UNL1        0.0157
      3 C          -8.3488  -19.8268   19.9518 C.3     1  UNL1        0.0017
      4 C          -6.8909  -19.5578   19.7234 C.3     1  UNL1        0.0044
      5 C          -6.0119  -19.1630   20.8730 C.3     1  UNL1        0.0237
      6 C          -6.5908  -19.0374   22.2511 C.3     1  UNL1        0.0201
      7 C          -4.5541  -18.8939   20.6445 C.ar    1  UNL1       -0.0225
      8 C          -4.0733  -18.4690   19.2886 C.ar    1  UNL1       -0.0042
      9 C          -2.6154  -18.1999   19.0602 C.ar    1  UNL1        0.0008
     10 C          -1.6383  -18.3557   20.1876 C.ar    1  UNL1        0.0140
     11 C          -2.1191  -18.7806   21.5434 C.ar    1  UNL1        0.0008
     12 C          -3.5769  -19.0497   21.7719 C.ar    1  UNL1       -0.0042
     13 C          -0.1805  -18.0866   19.9591 C.2     1  UNL1        0.0729
     14 O           0.3555  -16.6924   20.0969 O.co2   1  UNL1       -0.5446
     15 O           0.7415  -19.2117   19.5928 O.co2   1  UNL1       -0.5446
     16 N          -8.6276  -19.1809   23.8576 N.3     1  UNL1       -0.2962
     17 H          -9.2195  -19.9986   24.0040 H       1  UNL1        0.1235
     18 C          -8.8535  -16.8832   25.0490 C.3     1  UNL1        0.0220
     19 C          -9.4510  -17.9801   24.2186 C.3     1  UNL1        0.0768
     20 C         -10.8719  -17.8764   23.7492 C.ar    1  UNL1       -0.0080
     21 C         -11.9788  -18.4638   24.5735 C.ar    1  UNL1       -0.0030
     22 C         -13.3997  -18.3601   24.1040 C.ar    1  UNL1       -0.0003
     23 C         -13.7136  -17.6689   22.8103 C.ar    1  UNL1       -0.0000
     24 C         -12.6066  -17.0815   21.9859 C.ar    1  UNL1       -0.0003
     25 C         -12.9205  -16.3904   20.6922 C.ar    1  UNL1       -0.0000
     26 C         -11.8135  -15.8030   19.8679 C.ar    1  UNL1       -0.0000
     27 C         -10.3926  -15.9067   20.3374 C.ar    1  UNL1       -0.0000
     28 C         -10.0787  -16.5978   21.6311 C.ar    1  UNL1       -0.0003
     29 C         -11.1857  -17.1852   22.4554 C.ar    1  UNL1       -0.0027
@<TRIPOS>UNITY_ATOM_ATTR
14 1
charge -1
@<TRIPOS>BOND
     1    19    18    1
     2    19    16    1
     3    16     1    1
     4     1     2    1
     5     2     3    1
     6     3     4    1
     7     4     5    1
     8     5     7    1
     9     7     8   ar
    10     8     9   ar
    11     9    10   ar
    12    10    13    1
    13    13    14   ar
    14    13    15   ar
    15    10    11   ar
    16    11    12   ar
    17     5     6    1
    18    19    20    1
    19    20    21   ar
    20    21    22   ar
    21    22    23   ar
    22    23    24   ar
    23    24    25   ar
    24    25    26   ar
    25    26    27   ar
    26    27    28   ar
    27    28    29   ar
    28     6     1    1
    29    29    20   ar
    30    12     7   ar
    31    29    24   ar
    32    16    17    1
@<TRIPOS>MOLECULE
*****
 29 32 0 0 0
SMALL
GASTEIGER

@<TRIPOS>ATOM
      1 C         -10.1583  -19.2629   19.6594 C.3     1  UNL1        0.0545
      2 C         -10.2398  -20.2891   18.5684 C.3     1  UNL1        0.0157
      3 C          -8.9984  -20.9933   18.1069 C.3     1  UNL1        0.0017
      4 C          -7.6755  -20.6714   18.7363 C.3     1  UNL1        0.0044
      5 C          -7.5940  -19.6451   19.8273 C.3     1  UNL1        0.0237
      6 C          -8.8353  -18.9409   20.2889 C.3     1  UNL1        0.0201
      7 C          -6.2711  -19.3231   20.4567 C.ar    1  UNL1       -0.0225
      8 C          -6.2067  -18.9092   21.8971 C.ar    1  UNL1       -0.0042
      9 C          -4.8837  -18.5872   22.5265 C.ar    1  UNL1        0.0008
     10 C          -3.6252  -18.6792   21.7156 C.ar    1  UNL1        0.0140
     11 C          -3.6895  -19.0931   20.2753 C.ar    1  UNL1        0.0008
     12 C          -5.0124  -19.4151   19.6458 C.ar    1  UNL1       -0.0042
     13 C          -2.3023  -18.3572   22.3450 C.2     1  UNL1        0.0729
     14 O          -2.2521  -17.6116   23.6456 O.co2   1  UNL1       -0.5446
     15 O          -1.0294  -18.7808   21.6738 O.co2   1  UNL1       -0.5446
     16 N         -11.3997  -18.5587   20.1209 N.3     1  UNL1       -0.2962
     17 H         -11.8511  -18.1811   19.2877 H       1  UNL1        0.1235
     18 C         -11.6560  -16.0367   20.6903 C.3     1  UNL1        0.0220
     19 C         -11.3006  -17.4330   21.1074 C.3     1  UNL1        0.0768
     20 C         -10.8461  -17.7037   22.5110 C.ar    1  UNL1       -0.0080
     21 C         -11.5829  -18.6974   23.3595 C.ar    1  UNL1       -0.0030
     22 C         -11.1284  -18.9681   24.7631 C.ar    1  UNL1       -0.0003
     23 C          -9.9371  -18.2452   25.3183 C.ar    1  UNL1       -0.0000
     24 C          -9.2003  -17.2515   24.4698 C.ar    1  UNL1       -0.0003
     25 C          -8.0090  -16.5286   25.0250 C.ar    1  UNL1       -0.0000
     26 C          -7.2722  -15.5350   24.1766 C.ar    1  UNL1       -0.0000
     27 C          -7.7267  -15.2643   22.7730 C.ar    1  UNL1       -0.0000
     28 C          -8.9180  -15.9872   22.2178 C.ar    1  UNL1       -0.0003
     29 C          -9.6548  -16.9808   23.0662 C.ar    1  UNL1       -0.0027
@<TRIPOS>UNITY_ATOM_ATTR
14 1
charge -1
@<TRIPOS>BOND
     1    19    18    1
     2    19    16    1
     3    16     1    1
     4     1     2    1
     5     2     3    1
     6     3     4    1
     7     4     5    1
     8     5     7    1
     9     7     8   ar
    10     8     9   ar
    11     9    10   ar
    12    10    13    1
    13    13    14   ar
    14    13    15   ar
    15    10    11   ar
    16    11    12   ar
    17     5     6    1
    18    19    20    1
    19    20    21   ar
    20    21    22   ar
    21    22    23   ar
    22    23    24   ar
    23    24    25   ar
    24    25    26   ar
    25    26    27   ar
    26    27    28   ar
    27    28    29   ar
    28     6     1    1
    29    29    20   ar
    30    12     7   ar
    31    29    24   ar
    32    16    17    1
@<TRIPOS>MOLECULE
*****
 29 32 0 0 0
SMALL
GASTEIGER

@<TRIPOS>ATOM
      1 C         -10.0813  -19.1467   19.6460 C.3     1  UNL1        0.0545
      2 C         -10.2256  -20.2244   18.6127 C.3     1  UNL1        0.0157
      3 C          -9.0255  -21.0125   18.1784 C.3     1  UNL1        0.0017
      4 C          -7.6811  -20.7229   18.7773 C.3     1  UNL1        0.0044
      5 C          -7.5368  -19.6451   19.8106 C.3     1  UNL1        0.0237
      6 C          -8.7369  -18.8570   20.2449 C.3     1  UNL1        0.0201
      7 C          -6.1924  -19.3554   20.4095 C.ar    1  UNL1       -0.0225
      8 C          -4.9501  -19.5434   19.5901 C.ar    1  UNL1       -0.0042
      9 C          -3.6056  -19.2537   20.1891 C.ar    1  UNL1        0.0008
     10 C          -3.5036  -18.7761   21.6073 C.ar    1  UNL1        0.0140
     11 C          -4.7459  -18.5882   22.4267 C.ar    1  UNL1        0.0008
     12 C          -6.0903  -18.8778   21.8278 C.ar    1  UNL1       -0.0042
     13 C          -2.1592  -18.4865   22.2062 C.2     1  UNL1        0.0729
     14 O          -2.0598  -17.9639   23.6088 O.co2   1  UNL1       -0.5446
     15 O          -0.9142  -18.7193   21.4026 O.co2   1  UNL1       -0.5446
     16 N         -11.2814  -18.3586   20.0803 N.3     1  UNL1       -0.2962
     17 H         -11.9155  -18.3239   19.2821 H       1  UNL1        0.1235
     18 C         -11.9427  -15.8487   19.9653 C.3     1  UNL1        0.0220
     19 C         -11.1175  -16.9484   20.5648 C.3     1  UNL1        0.0768
     20 C         -10.1282  -16.6381   21.6488 C.ar    1  UNL1       -0.0080
     21 C          -9.0887  -15.5781   21.4345 C.ar    1  UNL1       -0.0030
     22 C          -8.0995  -15.2678   22.5185 C.ar    1  UNL1       -0.0003
     23 C          -8.1497  -16.0174   23.8168 C.ar    1  UNL1       -0.0000
     24 C          -9.1892  -17.0774   24.0311 C.ar    1  UNL1       -0.0003
     25 C          -9.2394  -17.8270   25.3293 C.ar    1  UNL1       -0.0000
     26 C         -10.2788  -18.8870   25.5436 C.ar    1  UNL1       -0.0000
     27 C         -11.2681  -19.1973   24.4596 C.ar    1  UNL1       -0.0000
     28 C         -11.2179  -18.4477   23.1614 C.ar    1  UNL1       -0.0003
     29 C         -10.1784  -17.3878   22.9471 C.ar    1  UNL1       -0.0027
@<TRIPOS>UNITY_ATOM_ATTR
14 1
charge -1
@<TRIPOS>BOND
     1    19    18    1
     2    19    16    1
     3    16     1    1
     4     1     2    1
     5     2     3    1
     6     3     4    1
     7     4     5    1
     8     5     7    1
     9     7     8   ar
    10     8     9   ar
    11     9    10   ar
    12    10    13    1
    13    13    14   ar
    14    13    15   ar
    15    10    11   ar
    16    11    12   ar
    17     5     6    1
    18    19    20    1
    19    20    21   ar
    20    21    22   ar
    21    22    23   ar
    22    23    24   ar
    23    24    25   ar
    24    25    26   ar
    25    26    27   ar
    26    27    28   ar
    27    28    29   ar
    28     6     1    1
    29    29    20   ar
    30    12     7   ar
    31    29    24   ar
    32    16    17    1
