@<TRIPOS>MOLECULE
*****
 32 36 0 0 0
SMALL
GASTEIGER

@<TRIPOS>ATOM
      1 C          -6.6616  -19.0900   20.8746 C.ar    1  UNL1        0.1603
      2 C          -7.6803  -18.3734   21.7105 C.ar    1  UNL1        0.0549
      3 C          -7.2364  -17.4682   22.8212 C.ar    1  UNL1        0.0741
      4 C          -5.7739  -17.2797   23.0960 C.ar    1  UNL1        0.1139
      5 N          -4.7553  -17.9963   22.2601 N.ar    1  UNL1       -0.2366
      6 C          -5.1991  -18.9015   21.1494 C.ar    1  UNL1        0.1497
      7 C          -8.4423  -19.7877   19.1161 C.3     1  UNL1        0.2525
      8 O          -7.1055  -19.9952   19.7638 O.3     1  UNL1       -0.4698
      9 C          -4.1804  -19.6181   20.3135 C.2     1  UNL1        0.1934
     10 O          -4.2356  -21.1112   20.1805 O.2     1  UNL1       -0.2896
     11 C          -3.1066  -18.8417   19.6105 C.3     1  UNL1        0.0691
     12 C          -2.4010  -18.4537   18.3451 C.3     1  UNL1        0.0141
     13 C          -1.9525  -17.8849   19.6586 C.3     1  UNL1        0.0443
     14 C          -1.0271  -17.0041   20.4446 C.2     1  UNL1        0.0504
     15 O          -1.5767  -16.0928   21.5017 O.co2   1  UNL1       -0.5492
     16 O           0.4479  -17.0345   20.1735 O.co2   1  UNL1       -0.5492
     17 N          -8.2551  -16.7515   23.6571 N.pl3   1  UNL1       -0.2856
     18 C          -9.6917  -17.1816   23.6210 C.ar    1  UNL1        0.0516
     19 C         -10.2534  -18.0148   24.7346 C.ar    1  UNL1        0.0157
     20 C         -11.6900  -18.4448   24.6984 C.ar    1  UNL1        0.0127
     21 C         -12.5649  -18.0416   23.5486 C.ar    1  UNL1        0.0577
     22 CL        -14.0015  -18.4716   23.5124 Cl      1  UNL1       -0.0822
     23 C         -12.0031  -17.2083   22.4349 C.ar    1  UNL1        0.0118
     24 C         -12.8780  -16.8052   21.2851 C.ar    1  UNL1        0.0009
     25 C         -12.3163  -15.9719   20.1715 C.ar    1  UNL1        0.0000
     26 C         -10.8797  -15.5419   20.2077 C.ar    1  UNL1        0.0000
     27 C         -10.0048  -15.9451   21.3575 C.ar    1  UNL1        0.0013
     28 C         -10.5666  -16.7783   22.4711 C.ar    1  UNL1        0.0144
     29 C          -7.8372  -15.6049   24.5292 C.3     1  UNL1        0.0955
     30 C          -7.7014  -15.7997   26.0103 C.3     1  UNL1        0.0201
     31 C          -8.2672  -16.2767   27.3150 C.3     1  UNL1        0.0018
     32 C          -6.9005  -15.6600   27.2708 C.3     1  UNL1        0.0018
@<TRIPOS>UNITY_ATOM_ATTR
15 1
charge -1
@<TRIPOS>BOND
     1     7     8    1
     2     8     1    1
     3     1     2   ar
     4     2     3   ar
     5     3    17    1
     6    17    29    1
     7    29    30    1
     8    30    31    1
     9    31    32    1
    10    17    18    1
    11    18    19   ar
    12    19    20   ar
    13    20    21   ar
    14    21    22    1
    15    21    23   ar
    16    23    24   ar
    17    24    25   ar
    18    25    26   ar
    19    26    27   ar
    20    27    28   ar
    21     3     4   ar
    22     4     5   ar
    23     5     6   ar
    24     6     9    1
    25     9    10    2
    26    11     9    1
    27    11    12    1
    28    12    13    1
    29    13    14    1
    30    14    15   ar
    31    14    16   ar
    32     6     1   ar
    33    13    11    1
    34    32    30    1
    35    28    18   ar
    36    28    23   ar
@<TRIPOS>MOLECULE
*****
 32 36 0 0 0
SMALL
GASTEIGER

@<TRIPOS>ATOM
      1 C          -5.0553  -18.8540   21.8891 C.ar    1  UNL1        0.1603
      2 C          -6.2631  -18.1077   22.3728 C.ar    1  UNL1        0.0549
      3 C          -6.0978  -16.8201   23.1244 C.ar    1  UNL1        0.0741
      4 C          -4.7247  -16.2790   23.3922 C.ar    1  UNL1        0.1139
      5 N          -3.5169  -17.0253   22.9084 N.ar    1  UNL1       -0.2366
      6 C          -3.6821  -18.3129   22.1569 C.ar    1  UNL1        0.1497
      7 C          -6.4682  -20.3918   20.3435 C.3     1  UNL1        0.2525
      8 O          -5.2205  -20.1417   21.1375 O.3     1  UNL1       -0.4698
      9 C          -2.4743  -19.0593   21.6731 C.2     1  UNL1        0.1934
     10 O          -2.1541  -20.4126   22.2351 O.2     1  UNL1       -0.2896
     11 C          -1.5867  -18.4523   20.6273 C.3     1  UNL1        0.0691
     12 C          -0.2289  -17.9976   20.1804 C.3     1  UNL1        0.0141
     13 C          -1.4071  -17.8557   19.2628 C.3     1  UNL1        0.0443
     14 C          -1.9835  -17.4292   17.9454 C.2     1  UNL1        0.0504
     15 O          -3.2509  -16.6279   17.9054 O.co2   1  UNL1       -0.5492
     16 O          -1.2926  -17.8041   16.6678 O.co2   1  UNL1       -0.5492
     17 N          -7.3056  -16.0737   23.6082 N.pl3   1  UNL1       -0.2856
     18 C          -8.6383  -16.3020   22.9587 C.ar    1  UNL1        0.0516
     19 C          -9.0273  -15.5093   21.7462 C.ar    1  UNL1        0.0157
     20 C         -10.3600  -15.7376   21.0966 C.ar    1  UNL1        0.0127
     21 C         -11.3036  -16.7586   21.6596 C.ar    1  UNL1        0.0577
     22 CL        -12.6363  -16.9869   21.0100 Cl      1  UNL1       -0.0822
     23 C         -10.9146  -17.5514   22.8721 C.ar    1  UNL1        0.0118
     24 C         -11.8583  -18.5725   23.4351 C.ar    1  UNL1        0.0009
     25 C         -11.4693  -19.3652   24.6476 C.ar    1  UNL1        0.0000
     26 C         -10.1366  -19.1369   25.2971 C.ar    1  UNL1        0.0000
     27 C          -9.1930  -18.1159   24.7342 C.ar    1  UNL1        0.0013
     28 C          -9.5820  -17.3231   23.5217 C.ar    1  UNL1        0.0144
     29 C          -7.1808  -15.0990   24.7415 C.3     1  UNL1        0.0955
     30 C          -7.3931  -15.5592   26.1533 C.3     1  UNL1        0.0201
     31 C          -8.2996  -15.7621   27.3310 C.3     1  UNL1        0.0018
     32 C          -6.8543  -16.1532   27.4208 C.3     1  UNL1        0.0018
@<TRIPOS>UNITY_ATOM_ATTR
15 1
charge -1
@<TRIPOS>BOND
     1     7     8    1
     2     8     1    1
     3     1     2   ar
     4     2     3   ar
     5     3    17    1
     6    17    29    1
     7    29    30    1
     8    30    31    1
     9    31    32    1
    10    17    18    1
    11    18    19   ar
    12    19    20   ar
    13    20    21   ar
    14    21    22    1
    15    21    23   ar
    16    23    24   ar
    17    24    25   ar
    18    25    26   ar
    19    26    27   ar
    20    27    28   ar
    21     3     4   ar
    22     4     5   ar
    23     5     6   ar
    24     6     9    1
    25     9    10    2
    26    11     9    1
    27    11    12    1
    28    12    13    1
    29    13    14    1
    30    14    15   ar
    31    14    16   ar
    32     6     1   ar
    33    13    11    1
    34    32    30    1
    35    28    18   ar
    36    28    23   ar
@<TRIPOS>MOLECULE
*****
 32 36 0 0 0
SMALL
GASTEIGER

@<TRIPOS>ATOM
      1 C          -4.8398  -18.3561   22.3589 C.ar    1  UNL1        0.1603
      2 C          -5.8452  -17.6528   23.2217 C.ar    1  UNL1        0.0549
      3 C          -7.2503  -17.4621   22.7327 C.ar    1  UNL1        0.0741
      4 C          -7.6501  -17.9747   21.3809 C.ar    1  UNL1        0.1139
      5 N          -6.6447  -18.6780   20.5181 N.ar    1  UNL1       -0.2366
      6 C          -5.2396  -18.8687   21.0071 C.ar    1  UNL1        0.1497
      7 C          -2.4909  -17.3817   22.8911 C.3     1  UNL1        0.2525
      8 O          -3.4346  -18.5468   22.8479 O.3     1  UNL1       -0.4698
      9 C          -4.2341  -19.5721   20.1443 C.2     1  UNL1        0.1934
     10 O          -4.2193  -21.0706   20.0791 O.2     1  UNL1       -0.2896
     11 C          -3.2434  -18.7769   19.3466 C.3     1  UNL1        0.0691
     12 C          -2.8887  -18.0141   18.1047 C.3     1  UNL1        0.0141
     13 C          -1.8822  -18.1624   19.2070 C.3     1  UNL1        0.0443
     14 C          -0.5153  -17.8932   19.7628 C.2     1  UNL1        0.0504
     15 O           0.5336  -18.9649   19.7264 O.co2   1  UNL1       -0.5492
     16 O          -0.1971  -16.5522   20.3550 O.co2   1  UNL1       -0.5492
     17 N          -8.2558  -16.7587   23.5955 N.pl3   1  UNL1       -0.2856
     18 C          -9.6896  -17.1993   23.5877 C.ar    1  UNL1        0.0516
     19 C         -10.2205  -18.0447   24.7072 C.ar    1  UNL1        0.0157
     20 C         -11.6543  -18.4854   24.6994 C.ar    1  UNL1        0.0127
     21 C         -12.5572  -18.0805   23.5721 C.ar    1  UNL1        0.0577
     22 CL        -13.9910  -18.5211   23.5643 Cl      1  UNL1       -0.0822
     23 C         -12.0263  -17.2350   22.4525 C.ar    1  UNL1        0.0118
     24 C         -12.9292  -16.8302   21.3252 C.ar    1  UNL1        0.0009
     25 C         -12.3983  -15.9848   20.2058 C.ar    1  UNL1        0.0000
     26 C         -10.9645  -15.5442   20.2136 C.ar    1  UNL1        0.0000
     27 C         -10.0616  -15.9490   21.3409 C.ar    1  UNL1        0.0013
     28 C         -10.5925  -16.7944   22.4604 C.ar    1  UNL1        0.0144
     29 C          -7.8274  -15.6148   24.4661 C.3     1  UNL1        0.0955
     30 C          -7.6789  -15.8128   25.9455 C.3     1  UNL1        0.0201
     31 C          -6.8580  -15.6977   27.1956 C.3     1  UNL1        0.0018
     32 C          -8.2427  -16.2710   27.2579 C.3     1  UNL1        0.0018
@<TRIPOS>UNITY_ATOM_ATTR
15 1
charge -1
@<TRIPOS>BOND
     1     7     8    1
     2     8     1    1
     3     1     2   ar
     4     2     3   ar
     5     3    17    1
     6    17    29    1
     7    29    30    1
     8    30    31    1
     9    31    32    1
    10    17    18    1
    11    18    19   ar
    12    19    20   ar
    13    20    21   ar
    14    21    22    1
    15    21    23   ar
    16    23    24   ar
    17    24    25   ar
    18    25    26   ar
    19    26    27   ar
    20    27    28   ar
    21     3     4   ar
    22     4     5   ar
    23     5     6   ar
    24     6     9    1
    25     9    10    2
    26    11     9    1
    27    11    12    1
    28    12    13    1
    29    13    14    1
    30    14    15   ar
    31    14    16   ar
    32     6     1   ar
    33    13    11    1
    34    32    30    1
    35    28    18   ar
    36    28    23   ar
@<TRIPOS>MOLECULE
*****
 32 36 0 0 0
SMALL
GASTEIGER

@<TRIPOS>ATOM
      1 C          -5.7483  -18.9327   22.0618 C.ar    1  UNL1        0.1603
      2 C          -6.9982  -18.2957   22.5928 C.ar    1  UNL1        0.0549
      3 C          -6.9122  -17.0361   23.4026 C.ar    1  UNL1        0.0741
      4 C          -5.5764  -16.4134   23.6815 C.ar    1  UNL1        0.1139
      5 N          -4.3265  -17.0504   23.1505 N.ar    1  UNL1       -0.2366
      6 C          -4.4124  -18.3100   22.3407 C.ar    1  UNL1        0.1497
      7 C          -6.8177  -20.2932   20.1239 C.3     1  UNL1        0.2525
      8 O          -5.8342  -20.1924   21.2519 O.3     1  UNL1       -0.4698
      9 C          -3.1625  -18.9470   21.8097 C.2     1  UNL1        0.1934
     10 O          -2.8516  -20.3771   22.1385 O.2     1  UNL1       -0.2896
     11 C          -2.2235  -18.1539   20.9499 C.3     1  UNL1        0.0691
     12 C          -0.9484  -17.3802   20.7899 C.3     1  UNL1        0.0141
     13 C          -1.8721  -17.5538   19.6209 C.3     1  UNL1        0.0443
     14 C          -2.2026  -17.3076   18.1786 C.2     1  UNL1        0.0504
     15 O          -3.4209  -16.5124   17.8135 O.co2   1  UNL1       -0.5492
     16 O          -1.3147  -17.8566   17.1014 O.co2   1  UNL1       -0.5492
     17 N          -8.1622  -16.3991   23.9336 N.pl3   1  UNL1       -0.2856
     18 C          -9.5052  -16.9301   23.5281 C.ar    1  UNL1        0.0516
     19 C         -10.2200  -17.9126   24.4077 C.ar    1  UNL1        0.0157
     20 C         -11.5629  -18.4437   24.0021 C.ar    1  UNL1        0.0127
     21 C         -12.1911  -17.9923   22.7170 C.ar    1  UNL1        0.0577
     22 CL        -13.5340  -18.5233   22.3115 Cl      1  UNL1       -0.0822
     23 C         -11.4763  -17.0097   21.8373 C.ar    1  UNL1        0.0118
     24 C         -12.1044  -16.5583   20.5522 C.ar    1  UNL1        0.0009
     25 C         -11.3896  -15.5759   19.6726 C.ar    1  UNL1        0.0000
     26 C         -10.0466  -15.0448   20.0781 C.ar    1  UNL1        0.0000
     27 C          -9.4185  -15.4962   21.3632 C.ar    1  UNL1        0.0013
     28 C         -10.1333  -16.4787   22.2429 C.ar    1  UNL1        0.0144
     29 C          -8.0692  -15.2311   24.8701 C.3     1  UNL1        0.0955
     30 C          -8.2201  -15.4406   26.3477 C.3     1  UNL1        0.0201
     31 C          -8.2207  -16.3551   27.5366 C.3     1  UNL1        0.0018
     32 C          -8.4807  -14.8889   27.7180 C.3     1  UNL1        0.0018
@<TRIPOS>UNITY_ATOM_ATTR
15 1
charge -1
@<TRIPOS>BOND
     1     7     8    1
     2     8     1    1
     3     1     2   ar
     4     2     3   ar
     5     3    17    1
     6    17    29    1
     7    29    30    1
     8    30    31    1
     9    31    32    1
    10    17    18    1
    11    18    19   ar
    12    19    20   ar
    13    20    21   ar
    14    21    22    1
    15    21    23   ar
    16    23    24   ar
    17    24    25   ar
    18    25    26   ar
    19    26    27   ar
    20    27    28   ar
    21     3     4   ar
    22     4     5   ar
    23     5     6   ar
    24     6     9    1
    25     9    10    2
    26    11     9    1
    27    11    12    1
    28    12    13    1
    29    13    14    1
    30    14    15   ar
    31    14    16   ar
    32     6     1   ar
    33    13    11    1
    34    32    30    1
    35    28    18   ar
    36    28    23   ar
@<TRIPOS>MOLECULE
*****
 32 36 0 0 0
SMALL
GASTEIGER

@<TRIPOS>ATOM
      1 C          -5.5143  -18.3632   22.6827 C.ar    1  UNL1        0.1603
      2 C          -6.8842  -17.7985   22.9159 C.ar    1  UNL1        0.0549
      3 C          -7.0412  -16.3882   23.4021 C.ar    1  UNL1        0.0741
      4 C          -5.8283  -15.5427   23.6551 C.ar    1  UNL1        0.1139
      5 N          -4.4584  -16.1074   23.4218 N.ar    1  UNL1       -0.2366
      6 C          -4.3014  -17.5177   22.9356 C.ar    1  UNL1        0.1497
      7 C          -6.1163  -20.2397   20.9896 C.3     1  UNL1        0.2525
      8 O          -5.3572  -19.7735   22.1964 O.3     1  UNL1       -0.4698
      9 C          -2.9315  -18.0825   22.7023 C.2     1  UNL1        0.1934
     10 O          -1.8980  -18.0159   23.7874 O.2     1  UNL1       -0.2896
     11 C          -2.5950  -18.7138   21.3839 C.3     1  UNL1        0.0691
     12 C          -2.2528  -19.9302   20.5758 C.3     1  UNL1        0.0141
     13 C          -2.3546  -18.5907   19.9084 C.3     1  UNL1        0.0443
     14 C          -2.2746  -17.7464   18.6713 C.2     1  UNL1        0.0504
     15 O          -3.3001  -16.6802   18.4232 O.co2   1  UNL1       -0.5492
     16 O          -1.1689  -17.9681   17.6821 O.co2   1  UNL1       -0.5492
     17 N          -8.4111  -15.8234   23.6354 N.pl3   1  UNL1       -0.2856
     18 C          -9.4344  -15.8609   22.5393 C.ar    1  UNL1        0.0516
     19 C          -9.2271  -15.0541   21.2919 C.ar    1  UNL1        0.0157
     20 C         -10.2504  -15.0915   20.1958 C.ar    1  UNL1        0.0127
     21 C         -11.4810  -15.9357   20.3471 C.ar    1  UNL1        0.0577
     22 CL        -12.5043  -15.9732   19.2510 Cl      1  UNL1       -0.0822
     23 C         -11.6883  -16.7426   21.5946 C.ar    1  UNL1        0.0118
     24 C         -12.9189  -17.5868   21.7459 C.ar    1  UNL1        0.0009
     25 C         -13.1262  -18.3935   22.9933 C.ar    1  UNL1        0.0000
     26 C         -12.1029  -18.3561   24.0894 C.ar    1  UNL1        0.0000
     27 C         -10.8723  -17.5119   23.9381 C.ar    1  UNL1        0.0013
     28 C         -10.6650  -16.7051   22.6907 C.ar    1  UNL1        0.0144
     29 C          -8.7577  -15.2212   24.9648 C.3     1  UNL1        0.0955
     30 C          -8.1829  -15.8006   26.2234 C.3     1  UNL1        0.0201
     31 C          -8.3390  -16.6409   27.4560 C.3     1  UNL1        0.0018
     32 C          -7.0314  -15.9637   27.1706 C.3     1  UNL1        0.0018
@<TRIPOS>UNITY_ATOM_ATTR
15 1
charge -1
@<TRIPOS>BOND
     1     7     8    1
     2     8     1    1
     3     1     2   ar
     4     2     3   ar
     5     3    17    1
     6    17    29    1
     7    29    30    1
     8    30    31    1
     9    31    32    1
    10    17    18    1
    11    18    19   ar
    12    19    20   ar
    13    20    21   ar
    14    21    22    1
    15    21    23   ar
    16    23    24   ar
    17    24    25   ar
    18    25    26   ar
    19    26    27   ar
    20    27    28   ar
    21     3     4   ar
    22     4     5   ar
    23     5     6   ar
    24     6     9    1
    25     9    10    2
    26    11     9    1
    27    11    12    1
    28    12    13    1
    29    13    14    1
    30    14    15   ar
    31    14    16   ar
    32     6     1   ar
    33    13    11    1
    34    32    30    1
    35    28    18   ar
    36    28    23   ar
@<TRIPOS>MOLECULE
*****
 32 36 0 0 0
SMALL
GASTEIGER

@<TRIPOS>ATOM
      1 C          -6.0843  -17.5901   22.3689 C.ar    1  UNL1        0.1603
      2 C          -7.4571  -17.7480   21.7855 C.ar    1  UNL1        0.0549
      3 C          -7.7011  -18.7597   20.7052 C.ar    1  UNL1        0.0741
      4 C          -6.5723  -19.6134   20.2084 C.ar    1  UNL1        0.1139
      5 N          -5.1995  -19.4555   20.7917 N.ar    1  UNL1       -0.2366
      6 C          -4.9555  -18.4438   21.8720 C.ar    1  UNL1        0.1497
      7 C          -6.8272  -15.4722   23.6776 C.3     1  UNL1        0.2525
      8 O          -5.8403  -16.5784   23.4492 O.3     1  UNL1       -0.4698
      9 C          -3.5826  -18.2859   22.4554 C.2     1  UNL1        0.1934
     10 O          -3.2639  -18.8809   23.7949 O.2     1  UNL1       -0.2896
     11 C          -2.5284  -17.5329   21.6993 C.3     1  UNL1        0.0691
     12 C          -1.7309  -16.2815   21.4805 C.3     1  UNL1        0.0141
     13 C          -1.5002  -17.4800   20.6085 C.3     1  UNL1        0.0443
     14 C          -0.7734  -18.1414   19.4753 C.2     1  UNL1        0.0504
     15 O          -1.2920  -18.0110   18.0738 O.co2   1  UNL1       -0.5492
     16 O           0.4721  -18.9332   19.7435 O.co2   1  UNL1       -0.5492
     17 N          -9.0740  -18.9176   20.1218 N.pl3   1  UNL1       -0.2856
     18 C         -10.2835  -18.6428   20.9653 C.ar    1  UNL1        0.0516
     19 C         -11.4056  -17.8108   20.4189 C.ar    1  UNL1        0.0157
     20 C         -12.6152  -17.5360   21.2624 C.ar    1  UNL1        0.0127
     21 C         -12.7026  -18.0931   22.6523 C.ar    1  UNL1        0.0577
     22 CL        -13.9121  -17.8183   23.4958 Cl      1  UNL1       -0.0822
     23 C         -11.5804  -18.9252   23.1988 C.ar    1  UNL1        0.0118
     24 C         -11.6679  -19.4823   24.5887 C.ar    1  UNL1        0.0009
     25 C         -10.5457  -20.3143   25.1351 C.ar    1  UNL1        0.0000
     26 C          -9.3362  -20.5892   24.2916 C.ar    1  UNL1        0.0000
     27 C          -9.2488  -20.0320   22.9017 C.ar    1  UNL1        0.0013
     28 C         -10.3709  -19.2000   22.3553 C.ar    1  UNL1        0.0144
     29 C          -9.2373  -19.3504   18.6949 C.3     1  UNL1        0.0955
     30 C          -8.9325  -20.7652   18.3007 C.3     1  UNL1        0.0201
     31 C          -8.2566  -22.0747   18.5803 C.3     1  UNL1        0.0018
     32 C          -9.0807  -21.9062   17.3384 C.3     1  UNL1        0.0018
@<TRIPOS>UNITY_ATOM_ATTR
15 1
charge -1
@<TRIPOS>BOND
     1     7     8    1
     2     8     1    1
     3     1     2   ar
     4     2     3   ar
     5     3    17    1
     6    17    29    1
     7    29    30    1
     8    30    31    1
     9    31    32    1
    10    17    18    1
    11    18    19   ar
    12    19    20   ar
    13    20    21   ar
    14    21    22    1
    15    21    23   ar
    16    23    24   ar
    17    24    25   ar
    18    25    26   ar
    19    26    27   ar
    20    27    28   ar
    21     3     4   ar
    22     4     5   ar
    23     5     6   ar
    24     6     9    1
    25     9    10    2
    26    11     9    1
    27    11    12    1
    28    12    13    1
    29    13    14    1
    30    14    15   ar
    31    14    16   ar
    32     6     1   ar
    33    13    11    1
    34    32    30    1
    35    28    18   ar
    36    28    23   ar
@<TRIPOS>MOLECULE
*****
 32 36 0 0 0
SMALL
GASTEIGER

@<TRIPOS>ATOM
      1 C          -6.0984  -17.3890   22.8526 C.ar    1  UNL1        0.1603
      2 C          -7.4612  -17.8783   22.4612 C.ar    1  UNL1        0.0549
      3 C          -7.6466  -19.2944   22.0027 C.ar    1  UNL1        0.0741
      4 C          -6.4691  -20.2212   21.9356 C.ar    1  UNL1        0.1139
      5 N          -5.1063  -19.7320   22.3270 N.ar    1  UNL1       -0.2366
      6 C          -4.9209  -18.3159   22.7855 C.ar    1  UNL1        0.1497
      7 C          -6.1405  -15.6144   24.7497 C.3     1  UNL1        0.2525
      8 O          -5.9130  -15.9728   23.3110 O.3     1  UNL1       -0.4698
      9 C          -3.5580  -17.8265   23.1769 C.2     1  UNL1        0.1934
     10 O          -3.1108  -17.9162   24.6058 O.2     1  UNL1       -0.2896
     11 C          -2.6424  -17.2476   22.1393 C.3     1  UNL1        0.0691
     12 C          -1.8998  -16.0748   21.5711 C.3     1  UNL1        0.0141
     13 C          -1.7993  -17.4177   20.9105 C.3     1  UNL1        0.0443
     14 C          -1.2545  -18.2913   19.8196 C.2     1  UNL1        0.0504
     15 O           0.1599  -18.7857   19.8906 O.co2   1  UNL1       -0.5492
     16 O          -2.1240  -18.6704   18.6576 O.co2   1  UNL1       -0.5492
     17 N          -9.0095  -19.7837   21.6113 N.pl3   1  UNL1       -0.2856
     18 C         -10.2269  -19.2450   22.3026 C.ar    1  UNL1        0.0516
     19 C         -10.6382  -19.7965   23.6354 C.ar    1  UNL1        0.0157
     20 C         -11.8556  -19.2579   24.3267 C.ar    1  UNL1        0.0127
     21 C         -12.6616  -18.1676   23.6851 C.ar    1  UNL1        0.0577
     22 CL        -13.8790  -17.6290   24.3763 Cl      1  UNL1       -0.0822
     23 C         -12.2503  -17.6160   22.3521 C.ar    1  UNL1        0.0118
     24 C         -13.0563  -16.5258   21.7105 C.ar    1  UNL1        0.0009
     25 C         -12.6450  -15.9743   20.3777 C.ar    1  UNL1        0.0000
     26 C         -11.4276  -16.5130   19.6864 C.ar    1  UNL1        0.0000
     27 C         -10.6216  -17.6032   20.3280 C.ar    1  UNL1        0.0013
     28 C         -11.0329  -18.1547   21.6609 C.ar    1  UNL1        0.0144
     29 C          -9.1550  -20.8116   20.5287 C.3     1  UNL1        0.0955
     30 C          -8.8708  -20.4442   19.1024 C.3     1  UNL1        0.0201
     31 C          -8.2202  -19.5385   18.0992 C.3     1  UNL1        0.0018
     32 C          -9.0292  -20.7134   17.6353 C.3     1  UNL1        0.0018
@<TRIPOS>UNITY_ATOM_ATTR
15 1
charge -1
@<TRIPOS>BOND
     1     7     8    1
     2     8     1    1
     3     1     2   ar
     4     2     3   ar
     5     3    17    1
     6    17    29    1
     7    29    30    1
     8    30    31    1
     9    31    32    1
    10    17    18    1
    11    18    19   ar
    12    19    20   ar
    13    20    21   ar
    14    21    22    1
    15    21    23   ar
    16    23    24   ar
    17    24    25   ar
    18    25    26   ar
    19    26    27   ar
    20    27    28   ar
    21     3     4   ar
    22     4     5   ar
    23     5     6   ar
    24     6     9    1
    25     9    10    2
    26    11     9    1
    27    11    12    1
    28    12    13    1
    29    13    14    1
    30    14    15   ar
    31    14    16   ar
    32     6     1   ar
    33    13    11    1
    34    32    30    1
    35    28    18   ar
    36    28    23   ar
@<TRIPOS>MOLECULE
*****
 32 36 0 0 0
SMALL
GASTEIGER

@<TRIPOS>ATOM
      1 C          -4.8934  -19.0711   20.8246 C.ar    1  UNL1        0.1603
      2 C          -6.2568  -19.3339   20.2570 C.ar    1  UNL1        0.0549
      3 C          -7.4734  -18.7905   20.9458 C.ar    1  UNL1        0.0741
      4 C          -7.3266  -17.9843   22.2023 C.ar    1  UNL1        0.1139
      5 N          -5.9633  -17.7216   22.7698 N.ar    1  UNL1       -0.2366
      6 C          -4.7467  -18.2650   22.0810 C.ar    1  UNL1        0.1497
      7 C          -3.6323  -21.0541   19.7166 C.3     1  UNL1        0.2525
      8 O          -3.6767  -19.6145   20.1357 O.3     1  UNL1       -0.4698
      9 C          -3.3832  -18.0022   22.6486 C.2     1  UNL1        0.1934
     10 O          -3.0590  -18.4291   24.0495 O.2     1  UNL1       -0.2896
     11 C          -2.3441  -17.3126   21.8152 C.3     1  UNL1        0.0691
     12 C          -1.5189  -16.0973   21.5116 C.3     1  UNL1        0.0141
     13 C          -1.3694  -17.3335   20.6752 C.3     1  UNL1        0.0443
     14 C          -0.7203  -18.0592   19.5342 C.2     1  UNL1        0.0504
     15 O           0.5357  -18.8465   19.7635 O.co2   1  UNL1       -0.5492
     16 O          -1.3272  -17.9975   18.1638 O.co2   1  UNL1       -0.5492
     17 N          -8.8368  -19.0532   20.3783 N.pl3   1  UNL1       -0.2856
     18 C         -10.0560  -18.8381   21.2253 C.ar    1  UNL1        0.0516
     19 C         -10.3049  -19.7136   22.4175 C.ar    1  UNL1        0.0157
     20 C         -11.5241  -19.4984   23.2645 C.ar    1  UNL1        0.0127
     21 C         -12.4943  -18.4078   22.9192 C.ar    1  UNL1        0.0577
     22 CL        -13.7134  -18.1927   23.7662 Cl      1  UNL1       -0.0822
     23 C         -12.2453  -17.5322   21.7270 C.ar    1  UNL1        0.0118
     24 C         -13.2155  -16.4416   21.3817 C.ar    1  UNL1        0.0009
     25 C         -12.9665  -15.5661   20.1895 C.ar    1  UNL1        0.0000
     26 C         -11.7474  -15.7812   19.3425 C.ar    1  UNL1        0.0000
     27 C         -10.7772  -16.8719   19.6877 C.ar    1  UNL1        0.0013
     28 C         -11.0262  -17.7474   20.8800 C.ar    1  UNL1        0.0144
     29 C          -8.9811  -19.5310   18.9638 C.3     1  UNL1        0.0955
     30 C          -8.5873  -20.9324   18.6017 C.3     1  UNL1        0.0201
     31 C          -7.6555  -22.0987   18.7477 C.3     1  UNL1        0.0018
     32 C          -8.8371  -22.1932   17.8285 C.3     1  UNL1        0.0018
@<TRIPOS>UNITY_ATOM_ATTR
15 1
charge -1
@<TRIPOS>BOND
     1     7     8    1
     2     8     1    1
     3     1     2   ar
     4     2     3   ar
     5     3    17    1
     6    17    29    1
     7    29    30    1
     8    30    31    1
     9    31    32    1
    10    17    18    1
    11    18    19   ar
    12    19    20   ar
    13    20    21   ar
    14    21    22    1
    15    21    23   ar
    16    23    24   ar
    17    24    25   ar
    18    25    26   ar
    19    26    27   ar
    20    27    28   ar
    21     3     4   ar
    22     4     5   ar
    23     5     6   ar
    24     6     9    1
    25     9    10    2
    26    11     9    1
    27    11    12    1
    28    12    13    1
    29    13    14    1
    30    14    15   ar
    31    14    16   ar
    32     6     1   ar
    33    13    11    1
    34    32    30    1
    35    28    18   ar
    36    28    23   ar
@<TRIPOS>MOLECULE
*****
 32 36 0 0 0
SMALL
GASTEIGER

@<TRIPOS>ATOM
      1 C           3.3860    0.5632   25.1489 C.ar    1  UNL1        0.1603
      2 C           3.5200   -0.0301   23.7777 C.ar    1  UNL1        0.0549
      3 C           4.2684   -1.3159   23.5868 C.ar    1  UNL1        0.0741
      4 C           4.8828   -2.0085   24.7670 C.ar    1  UNL1        0.1139
      5 N           4.7488   -1.4152   26.1382 N.ar    1  UNL1       -0.2366
      6 C           4.0003   -0.1294   26.3291 C.ar    1  UNL1        0.1497
      7 C           3.3245    3.1600   25.0962 C.3     1  UNL1        0.2525
      8 O           2.6375    1.8491   25.3398 O.3     1  UNL1       -0.4698
      9 C           3.8663    0.4640   27.7002 C.2     1  UNL1        0.1934
     10 O           4.8325    1.5149   28.1605 O.2     1  UNL1       -0.2896
     11 C           2.7659    0.0063   28.6111 C.3     1  UNL1        0.0691
     12 C           2.3219   -0.5992   29.9096 C.3     1  UNL1        0.0141
     13 C           1.3041   -0.1808   28.8903 C.3     1  UNL1        0.0443
     14 C          -0.1275   -0.0472   28.4631 C.2     1  UNL1        0.0504
     15 O          -1.2063   -0.7631   29.2207 O.co2   1  UNL1       -0.5492
     16 O          -0.4805    0.8023   27.2782 O.co2   1  UNL1       -0.5492
     17 N           4.4025   -1.9092   22.2156 N.pl3   1  UNL1       -0.2856
     18 C           4.6368   -1.0177   21.0323 C.ar    1  UNL1        0.0516
     19 C           6.0364   -0.6605   20.6279 C.ar    1  UNL1        0.0157
     20 C           6.2707    0.2311   19.4446 C.ar    1  UNL1        0.0127
     21 C           5.1055    0.7653   18.6657 C.ar    1  UNL1        0.0577
     22 CL          5.3399    1.6569   17.4823 Cl      1  UNL1       -0.0822
     23 C           3.7059    0.4081   19.0700 C.ar    1  UNL1        0.0118
     24 C           2.5407    0.9424   18.2911 C.ar    1  UNL1        0.0009
     25 C           1.1411    0.5852   18.6955 C.ar    1  UNL1        0.0000
     26 C           0.9068   -0.3064   19.8788 C.ar    1  UNL1        0.0000
     27 C           2.0720   -0.8406   20.6578 C.ar    1  UNL1        0.0013
     28 C           3.4715   -0.4834   20.2534 C.ar    1  UNL1        0.0144
     29 C           4.3022   -3.3940   22.0278 C.3     1  UNL1        0.0955
     30 C           4.2618   -3.9741   20.6451 C.3     1  UNL1        0.0201
     31 C           4.9759   -4.4548   19.4168 C.3     1  UNL1        0.0018
     32 C           3.4778   -4.4980   19.4786 C.3     1  UNL1        0.0018
@<TRIPOS>UNITY_ATOM_ATTR
15 1
charge -1
@<TRIPOS>BOND
     1     7     8    1
     2     8     1    1
     3     1     2   ar
     4     2     3   ar
     5     3    17    1
     6    17    29    1
     7    29    30    1
     8    30    31    1
     9    31    32    1
    10    17    18    1
    11    18    19   ar
    12    19    20   ar
    13    20    21   ar
    14    21    22    1
    15    21    23   ar
    16    23    24   ar
    17    24    25   ar
    18    25    26   ar
    19    26    27   ar
    20    27    28   ar
    21     3     4   ar
    22     4     5   ar
    23     5     6   ar
    24     6     9    1
    25     9    10    2
    26    11     9    1
    27    11    12    1
    28    12    13    1
    29    13    14    1
    30    14    15   ar
    31    14    16   ar
    32     6     1   ar
    33    13    11    1
    34    32    30    1
    35    28    18   ar
    36    28    23   ar
