@<TRIPOS>MOLECULE
*****
 33 37 0 0 0
SMALL
GASTEIGER

@<TRIPOS>ATOM
      1 C          -7.7392  -18.1711   21.6679 C.ar    1  UNL1        0.2398
      2 N          -7.2729  -17.5647   22.9581 N.ar    1  UNL1       -0.1961
      3 C          -8.1663  -16.6239   23.7108 C.ar    1  UNL1        0.1361
      4 C          -9.5262  -16.2894   23.1733 C.ar    1  UNL1        0.0501
      5 C          -9.9926  -16.8958   21.8830 C.ar    1  UNL1        0.0767
      6 N          -9.0991  -17.8366   21.1303 N.ar    1  UNL1       -0.2144
      7 C          -7.2720  -20.0507   19.8257 C.ar    1  UNL1        0.2041
      8 N          -6.0589  -20.7981   19.3569 N.ar    1  UNL1       -0.2134
      9 C          -4.8829  -20.3211   20.1566 C.ar    1  UNL1        0.1003
     10 C          -3.4320  -20.7011   20.1323 C.ar    1  UNL1        0.0207
     11 C          -2.4675  -20.0390   21.0711 C.ar    1  UNL1        0.0016
     12 C          -2.9539  -18.9968   22.0341 C.ar    1  UNL1        0.0016
     13 C          -4.4047  -18.6168   22.0584 C.ar    1  UNL1        0.0192
     14 C          -5.3692  -19.2790   21.1197 C.ar    1  UNL1        0.0869
     15 N          -6.8458  -19.1119   20.9151 N.ar    1  UNL1       -0.2480
     16 C          -8.9020  -20.9630   18.0199 C.3     1  UNL1        0.1108
     17 N          -8.6666  -20.2136   19.2977 N.pl3   1  UNL1       -0.3023
     18 H          -9.4273  -19.8287   19.7899 H       1  UNL1        0.1497
     19 N          -7.6999  -16.0175   25.0011 N.pl3   1  UNL1       -0.2897
     20 C          -8.6273  -15.9536   26.1783 C.3     1  UNL1        0.1242
     21 C          -8.1609  -15.3473   27.4685 C.3     1  UNL1        0.1636
     22 O          -6.7670  -14.8048   27.5816 O.3     1  UNL1       -0.3502
     23 C          -5.8396  -14.8687   26.4045 C.3     1  UNL1        0.1618
     24 C          -6.3060  -15.4750   25.1142 C.3     1  UNL1        0.1038
     25 C          -5.3786  -15.5389   23.9371 C.3     1  UNL1        0.0241
     26 C         -11.3524  -16.5614   21.3455 C.3     1  UNL1        0.1119
     27 C         -12.4137  -16.0137   20.4379 C.3     1  UNL1        0.0204
     28 C         -10.9652  -15.8314   20.0936 C.3     1  UNL1        0.0204
     29 S         -12.2118  -17.1752   22.4106 S.3     1  UNL1        0.0687
     30 C         -13.0712  -17.7891   23.4757 C.3     1  UNL1        0.1170
     31 N         -11.8347  -18.5438   21.9262 N.2     1  UNL1       -0.2504
     32 O         -12.5890  -15.8066   22.8950 O.2     1  UNL1       -0.2461
     33 H         -11.2224  -18.6441   21.1618 H       1  UNL1        0.1971
@<TRIPOS>BOND
     1    16    17    1
     2    17     7    1
     3     7     8   ar
     4     8     9   ar
     5     9    10   ar
     6    10    11   ar
     7    11    12   ar
     8    12    13   ar
     9    13    14   ar
    10    14    15   ar
    11    15     1    1
    12     1     2   ar
    13     2     3   ar
    14     3    19    1
    15    19    20    1
    16    20    21    1
    17    21    22    1
    18    22    23    1
    19    23    24    1
    20    24    25    1
    21     3     4   ar
    22     4     5   ar
    23     5    26    1
    24    26    29    1
    25    29    30    1
    26    29    31    2
    27    29    32    2
    28    26    27    1
    29    27    28    1
    30     5     6   ar
    31    15     7   ar
    32     6     1   ar
    33    14     9   ar
    34    24    19    1
    35    28    26    1
    36    17    18    1
    37    31    33    1
@<TRIPOS>MOLECULE
*****
 33 37 0 0 0
SMALL
GASTEIGER

@<TRIPOS>ATOM
      1 C          -7.0221  -17.9458   22.3943 C.ar    1  UNL1        0.2398
      2 N          -8.3328  -17.7452   21.6932 N.ar    1  UNL1       -0.1961
      3 C          -9.4137  -16.9322   22.3418 C.ar    1  UNL1        0.1361
      4 C          -9.1838  -16.3197   23.6916 C.ar    1  UNL1        0.0501
      5 C          -7.8730  -16.5202   24.3928 C.ar    1  UNL1        0.0767
      6 N          -6.7922  -17.3333   23.7442 N.ar    1  UNL1       -0.2144
      7 C          -6.1457  -19.8718   20.7611 C.ar    1  UNL1        0.2041
      8 N          -4.7970  -20.4025   20.3747 N.ar    1  UNL1       -0.2134
      9 C          -3.7589  -19.6174   21.1205 C.ar    1  UNL1        0.1003
     10 C          -2.2611  -19.6963   21.1375 C.ar    1  UNL1        0.0207
     11 C          -1.4705  -18.7594   22.0018 C.ar    1  UNL1        0.0016
     12 C          -2.1777  -17.7436   22.8491 C.ar    1  UNL1        0.0016
     13 C          -3.6755  -17.6647   22.8321 C.ar    1  UNL1        0.0192
     14 C          -4.4661  -18.6016   21.9678 C.ar    1  UNL1        0.0869
     15 N          -5.9412  -18.7588   21.7457 N.ar    1  UNL1       -0.2480
     16 C          -8.1000  -19.7209   19.0559 C.3     1  UNL1        0.1108
     17 N          -7.4670  -20.3672   20.2523 N.pl3   1  UNL1       -0.3023
     18 H          -7.9186  -21.1166   20.7035 H       1  UNL1        0.1497
     19 N         -10.7244  -16.7316   21.6407 N.pl3   1  UNL1       -0.2897
     20 C         -10.8011  -15.8454   20.4329 C.3     1  UNL1        0.1242
     21 C         -12.1119  -15.6448   19.7317 C.3     1  UNL1        0.1636
     22 O         -13.3461  -16.3305   20.2383 O.3     1  UNL1       -0.3502
     23 C         -13.2694  -17.2168   21.4461 C.3     1  UNL1        0.1618
     24 C         -11.9586  -17.4173   22.1472 C.3     1  UNL1        0.1038
     25 C         -11.8821  -18.3035   23.3550 C.3     1  UNL1        0.0241
     26 C          -7.6430  -15.9078   25.7426 C.3     1  UNL1        0.1119
     27 C          -7.8922  -15.4881   27.1610 C.3     1  UNL1        0.0204
     28 C          -8.9426  -16.2503   26.4089 C.3     1  UNL1        0.0204
     29 S          -6.2637  -15.3525   25.5452 S.3     1  UNL1        0.0687
     30 C          -4.8843  -14.7973   25.3477 C.3     1  UNL1        0.1170
     31 N          -6.7938  -14.4027   24.5123 N.2     1  UNL1       -0.2504
     32 O          -5.7335  -16.3023   26.5780 O.2     1  UNL1       -0.2461
     33 H          -7.7518  -14.4066   24.2856 H       1  UNL1        0.1971
@<TRIPOS>BOND
     1    16    17    1
     2    17     7    1
     3     7     8   ar
     4     8     9   ar
     5     9    10   ar
     6    10    11   ar
     7    11    12   ar
     8    12    13   ar
     9    13    14   ar
    10    14    15   ar
    11    15     1    1
    12     1     2   ar
    13     2     3   ar
    14     3    19    1
    15    19    20    1
    16    20    21    1
    17    21    22    1
    18    22    23    1
    19    23    24    1
    20    24    25    1
    21     3     4   ar
    22     4     5   ar
    23     5    26    1
    24    26    29    1
    25    29    30    1
    26    29    31    2
    27    29    32    2
    28    26    27    1
    29    27    28    1
    30     5     6   ar
    31    15     7   ar
    32     6     1   ar
    33    14     9   ar
    34    24    19    1
    35    28    26    1
    36    17    18    1
    37    31    33    1
@<TRIPOS>MOLECULE
*****
 33 37 0 0 0
SMALL
GASTEIGER

@<TRIPOS>ATOM
      1 C          -7.0091  -18.2329   22.4051 C.ar    1  UNL1        0.2398
      2 N          -8.5026  -18.3646   22.4488 N.ar    1  UNL1       -0.1961
      3 C          -9.2977  -17.5628   23.4362 C.ar    1  UNL1        0.1361
      4 C          -8.5993  -16.6293   24.3800 C.ar    1  UNL1        0.0501
      5 C          -7.1057  -16.4976   24.3364 C.ar    1  UNL1        0.0767
      6 N          -6.3106  -17.2994   23.3490 N.ar    1  UNL1       -0.2144
      7 C          -6.7757  -19.9064   20.3339 C.ar    1  UNL1        0.2041
      8 N          -5.6264  -20.5159   19.5872 N.ar    1  UNL1       -0.2134
      9 C          -4.3545  -20.0209   20.2095 C.ar    1  UNL1        0.1003
     10 C          -2.9126  -20.2855   19.8921 C.ar    1  UNL1        0.0207
     11 C          -1.8338  -19.6347   20.7061 C.ar    1  UNL1        0.0016
     12 C          -2.1970  -18.7192   21.8374 C.ar    1  UNL1        0.0016
     13 C          -3.6389  -18.4546   22.1548 C.ar    1  UNL1        0.0192
     14 C          -4.7177  -19.1055   21.3408 C.ar    1  UNL1        0.0869
     15 N          -6.2140  -19.0347   21.4177 N.ar    1  UNL1       -0.2480
     16 C          -8.8116  -19.6963   18.7337 C.3     1  UNL1        0.1108
     17 N          -8.2310  -20.1294   20.0472 N.pl3   1  UNL1       -0.3023
     18 H          -8.8051  -20.5600   20.7211 H       1  UNL1        0.1497
     19 N         -10.7913  -17.6945   23.4799 N.pl3   1  UNL1       -0.2897
     20 C         -11.4371  -18.5711   24.5116 C.3     1  UNL1        0.1242
     21 C         -12.9307  -18.7028   24.5552 C.3     1  UNL1        0.1636
     22 O         -13.7785  -17.9579   23.5671 O.3     1  UNL1       -0.3502
     23 C         -13.1327  -17.0814   22.5353 C.3     1  UNL1        0.1618
     24 C         -11.6391  -16.9497   22.4917 C.3     1  UNL1        0.1038
     25 C         -10.9933  -16.0731   21.4599 C.3     1  UNL1        0.0241
     26 C          -6.4072  -15.5642   25.2801 C.3     1  UNL1        0.1119
     27 C          -5.3561  -14.6528   25.8410 C.3     1  UNL1        0.0204
     28 C          -5.1494  -15.3036   24.5055 C.3     1  UNL1        0.0204
     29 S          -7.4223  -15.5005   26.3826 S.3     1  UNL1        0.0687
     30 C          -8.4375  -15.4367   27.4850 C.3     1  UNL1        0.1170
     31 N          -8.2729  -14.5905   25.5469 N.2     1  UNL1       -0.2504
     32 O          -6.5718  -16.4105   27.2183 O.2     1  UNL1       -0.2461
     33 H          -7.9751  -14.3280   24.6460 H       1  UNL1        0.1971
@<TRIPOS>BOND
     1    16    17    1
     2    17     7    1
     3     7     8   ar
     4     8     9   ar
     5     9    10   ar
     6    10    11   ar
     7    11    12   ar
     8    12    13   ar
     9    13    14   ar
    10    14    15   ar
    11    15     1    1
    12     1     2   ar
    13     2     3   ar
    14     3    19    1
    15    19    20    1
    16    20    21    1
    17    21    22    1
    18    22    23    1
    19    23    24    1
    20    24    25    1
    21     3     4   ar
    22     4     5   ar
    23     5    26    1
    24    26    29    1
    25    29    30    1
    26    29    31    2
    27    29    32    2
    28    26    27    1
    29    27    28    1
    30     5     6   ar
    31    15     7   ar
    32     6     1   ar
    33    14     9   ar
    34    24    19    1
    35    28    26    1
    36    17    18    1
    37    31    33    1
@<TRIPOS>MOLECULE
*****
 33 37 0 0 0
SMALL
GASTEIGER

@<TRIPOS>ATOM
      1 C           3.6687   -1.0670   22.7288 C.ar    1  UNL1        0.2398
      2 N           3.1423    0.1032   21.9520 N.ar    1  UNL1       -0.1961
      3 C           3.1062    0.0535   20.4533 C.ar    1  UNL1        0.1361
      4 C           3.5966   -1.1665   19.7313 C.ar    1  UNL1        0.0501
      5 C           4.1230   -2.3367   20.5081 C.ar    1  UNL1        0.0767
      6 N           4.1591   -2.2870   22.0068 N.ar    1  UNL1       -0.2144
      7 C           4.5510   -1.8779   25.1182 C.ar    1  UNL1        0.2041
      8 N           4.2702   -1.4907   26.5398 N.ar    1  UNL1       -0.2134
      9 C           3.2503   -0.3907   26.5279 C.ar    1  UNL1        0.1003
     10 C           2.5948    0.3822   27.6337 C.ar    1  UNL1        0.0207
     11 C           1.5898    1.4477   27.3103 C.ar    1  UNL1        0.0016
     12 C           1.2403    1.7403   25.8813 C.ar    1  UNL1        0.0016
     13 C           1.8959    0.9674   24.7755 C.ar    1  UNL1        0.0192
     14 C           2.9009   -0.0981   25.0988 C.ar    1  UNL1        0.0869
     15 N           3.7048   -1.0172   24.2276 N.ar    1  UNL1       -0.2480
     16 C           6.9319   -2.5808   24.3519 C.3     1  UNL1        0.1108
     17 N           5.5098   -2.9394   24.6664 N.pl3   1  UNL1       -0.3023
     18 H           5.2056   -3.8713   24.5763 H       1  UNL1        0.1497
     19 N           2.5797    1.2237   19.6765 N.pl3   1  UNL1       -0.2897
     20 C           3.5328    2.1811   19.0246 C.3     1  UNL1        0.1242
     21 C           3.0063    3.3514   18.2478 C.3     1  UNL1        0.1636
     22 O           1.5267    3.5642   18.1229 O.3     1  UNL1       -0.3502
     23 C           0.5737    2.6068   18.7748 C.3     1  UNL1        0.1618
     24 C           1.1002    1.4365   19.5516 C.3     1  UNL1        0.1038
     25 C           0.1471    0.4791   20.2035 C.3     1  UNL1        0.0241
     26 C           4.6134   -3.5566   19.7862 C.3     1  UNL1        0.1119
     27 C           4.5981   -4.7955   18.9406 C.3     1  UNL1        0.0204
     28 C           3.3277   -4.0346   19.1793 C.3     1  UNL1        0.0204
     29 S           6.0695   -3.5024   20.1423 S.3     1  UNL1        0.0687
     30 C           7.5256   -3.4482   20.4985 C.3     1  UNL1        0.1170
     31 N           5.8122   -4.3835   21.3287 N.2     1  UNL1       -0.2504
     32 O           6.3269   -2.6213   18.9560 O.2     1  UNL1       -0.2461
     33 H           4.9001   -4.7035   21.5156 H       1  UNL1        0.1971
@<TRIPOS>BOND
     1    16    17    1
     2    17     7    1
     3     7     8   ar
     4     8     9   ar
     5     9    10   ar
     6    10    11   ar
     7    11    12   ar
     8    12    13   ar
     9    13    14   ar
    10    14    15   ar
    11    15     1    1
    12     1     2   ar
    13     2     3   ar
    14     3    19    1
    15    19    20    1
    16    20    21    1
    17    21    22    1
    18    22    23    1
    19    23    24    1
    20    24    25    1
    21     3     4   ar
    22     4     5   ar
    23     5    26    1
    24    26    29    1
    25    29    30    1
    26    29    31    2
    27    29    32    2
    28    26    27    1
    29    27    28    1
    30     5     6   ar
    31    15     7   ar
    32     6     1   ar
    33    14     9   ar
    34    24    19    1
    35    28    26    1
    36    17    18    1
    37    31    33    1
@<TRIPOS>MOLECULE
*****
 33 37 0 0 0
SMALL
GASTEIGER

@<TRIPOS>ATOM
      1 C          -6.6618  -17.5935   22.7007 C.ar    1  UNL1        0.2398
      2 N          -7.9852  -17.5666   21.9952 N.ar    1  UNL1       -0.1961
      3 C          -9.1709  -16.9214   22.6493 C.ar    1  UNL1        0.1361
      4 C          -9.0332  -16.3030   24.0089 C.ar    1  UNL1        0.0501
      5 C          -7.7098  -16.3297   24.7144 C.ar    1  UNL1        0.0767
      6 N          -6.5241  -16.9750   24.0604 N.ar    1  UNL1       -0.2144
      7 C          -4.0624  -17.7396   22.0952 C.ar    1  UNL1        0.2041
      8 N          -3.2085  -18.6888   21.3077 N.ar    1  UNL1       -0.2134
      9 C          -4.0945  -19.7744   20.7725 C.ar    1  UNL1        0.1003
     10 C          -3.8062  -20.9803   19.9284 C.ar    1  UNL1        0.0207
     11 C          -4.9194  -21.9080   19.5409 C.ar    1  UNL1        0.0016
     12 C          -6.3208  -21.6298   19.9975 C.ar    1  UNL1        0.0016
     13 C          -6.6091  -20.4239   20.8417 C.ar    1  UNL1        0.0192
     14 C          -5.4960  -19.4962   21.2292 C.ar    1  UNL1        0.0869
     15 N          -5.4761  -18.2387   22.0466 N.ar    1  UNL1       -0.2480
     16 C          -2.4606  -15.6987   22.2330 C.3     1  UNL1        0.1108
     17 N          -3.5861  -16.5078   22.8063 N.pl3   1  UNL1       -0.3023
     18 H          -4.0123  -16.2302   23.6493 H       1  UNL1        0.1497
     19 N         -10.4943  -16.8946   21.9437 N.pl3   1  UNL1       -0.2897
     20 C         -10.7193  -15.9420   20.8072 C.3     1  UNL1        0.1242
     21 C         -12.0427  -15.9152   20.1016 C.3     1  UNL1        0.1636
     22 O         -13.1413  -16.8411   20.5326 O.3     1  UNL1       -0.3502
     23 C         -12.9164  -17.7938   21.6692 C.3     1  UNL1        0.1618
     24 C         -11.5929  -17.8205   22.3748 C.3     1  UNL1        0.1038
     25 C         -11.3681  -18.7732   23.5113 C.3     1  UNL1        0.0241
     26 C          -7.5720  -15.7113   26.0740 C.3     1  UNL1        0.1119
     27 C          -7.9339  -15.2394   27.4511 C.3     1  UNL1        0.0204
     28 C          -8.9628  -15.9182   26.5964 C.3     1  UNL1        0.0204
     29 S          -6.1334  -15.2897   26.0238 S.3     1  UNL1        0.0687
     30 C          -4.6948  -14.8679   25.9736 C.3     1  UNL1        0.1170
     31 N          -6.4572  -14.3146   24.9310 N.2     1  UNL1       -0.2504
     32 O          -5.8095  -16.2647   27.1167 O.2     1  UNL1       -0.2461
     33 H          -7.3812  -14.2343   24.6008 H       1  UNL1        0.1971
@<TRIPOS>BOND
     1    16    17    1
     2    17     7    1
     3     7     8   ar
     4     8     9   ar
     5     9    10   ar
     6    10    11   ar
     7    11    12   ar
     8    12    13   ar
     9    13    14   ar
    10    14    15   ar
    11    15     1    1
    12     1     2   ar
    13     2     3   ar
    14     3    19    1
    15    19    20    1
    16    20    21    1
    17    21    22    1
    18    22    23    1
    19    23    24    1
    20    24    25    1
    21     3     4   ar
    22     4     5   ar
    23     5    26    1
    24    26    29    1
    25    29    30    1
    26    29    31    2
    27    29    32    2
    28    26    27    1
    29    27    28    1
    30     5     6   ar
    31    15     7   ar
    32     6     1   ar
    33    14     9   ar
    34    24    19    1
    35    28    26    1
    36    17    18    1
    37    31    33    1
@<TRIPOS>MOLECULE
*****
 33 37 0 0 0
SMALL
GASTEIGER

@<TRIPOS>ATOM
      1 C          -2.2136    3.2552   20.5264 C.ar    1  UNL1        0.2398
      2 N          -1.1525    2.2638   20.9020 N.ar    1  UNL1       -0.1961
      3 C           0.0859    2.1374   20.0651 C.ar    1  UNL1        0.1361
      4 C           0.2632    3.0024   18.8526 C.ar    1  UNL1        0.0501
      5 C          -0.7979    3.9938   18.4769 C.ar    1  UNL1        0.0767
      6 N          -2.0363    4.1202   19.3137 N.ar    1  UNL1       -0.2144
      7 C          -4.8640    3.3593   20.8575 C.ar    1  UNL1        0.2041
      8 N          -5.7805    3.5165   22.0345 N.ar    1  UNL1       -0.2134
      9 C          -4.9349    3.6360   23.2677 C.ar    1  UNL1        0.1003
     10 C          -5.2895    3.8099   24.7147 C.ar    1  UNL1        0.0207
     11 C          -4.2049    3.9005   25.7469 C.ar    1  UNL1        0.0016
     12 C          -2.7658    3.8172   25.3321 C.ar    1  UNL1        0.0016
     13 C          -2.4113    3.6432   23.8850 C.ar    1  UNL1        0.0192
     14 C          -3.4959    3.5526   22.8528 C.ar    1  UNL1        0.0869
     15 N          -3.4520    3.3816   21.3632 N.ar    1  UNL1       -0.2480
     16 C          -6.6730    3.5932   19.0074 C.3     1  UNL1        0.1108
     17 N          -5.2855    3.2066   19.4260 N.pl3   1  UNL1       -0.3023
     18 H          -4.6514    2.8526   18.7613 H       1  UNL1        0.1497
     19 N           1.1470    1.1460   20.4408 N.pl3   1  UNL1       -0.2897
     20 C           1.1404   -0.2258   19.8342 C.3     1  UNL1        0.1242
     21 C           2.2014   -1.2172   20.2099 C.3     1  UNL1        0.1636
     22 O           3.2692   -0.8369   21.1923 O.3     1  UNL1       -0.3502
     23 C           3.2758    0.5349   21.7990 C.3     1  UNL1        0.1618
     24 C           2.2147    1.5263   21.4233 C.3     1  UNL1        0.1038
     25 C           2.2214    2.8981   22.0301 C.3     1  UNL1        0.0241
     26 C          -0.6206    4.8588   17.2643 C.3     1  UNL1        0.1119
     27 C           0.0536    5.6723   16.1996 C.3     1  UNL1        0.0204
     28 C           0.8717    5.0109   17.2688 C.3     1  UNL1        0.0204
     29 S          -2.0512    5.0072   16.8388 S.3     1  UNL1        0.0687
     30 C          -3.4819    5.1555   16.4131 C.3     1  UNL1        0.1170
     31 N          -2.0325    3.6118   16.2888 N.2     1  UNL1       -0.2504
     32 O          -2.0701    6.4026   17.3886 O.2     1  UNL1       -0.2461
     33 H          -1.2131    3.0695   16.3503 H       1  UNL1        0.1971
@<TRIPOS>BOND
     1    16    17    1
     2    17     7    1
     3     7     8   ar
     4     8     9   ar
     5     9    10   ar
     6    10    11   ar
     7    11    12   ar
     8    12    13   ar
     9    13    14   ar
    10    14    15   ar
    11    15     1    1
    12     1     2   ar
    13     2     3   ar
    14     3    19    1
    15    19    20    1
    16    20    21    1
    17    21    22    1
    18    22    23    1
    19    23    24    1
    20    24    25    1
    21     3     4   ar
    22     4     5   ar
    23     5    26    1
    24    26    29    1
    25    29    30    1
    26    29    31    2
    27    29    32    2
    28    26    27    1
    29    27    28    1
    30     5     6   ar
    31    15     7   ar
    32     6     1   ar
    33    14     9   ar
    34    24    19    1
    35    28    26    1
    36    17    18    1
    37    31    33    1
@<TRIPOS>MOLECULE
*****
 33 37 0 0 0
SMALL
GASTEIGER

@<TRIPOS>ATOM
      1 C           3.8646   -1.1927   22.5171 C.ar    1  UNL1        0.2398
      2 N           3.2482    0.0039   21.8553 N.ar    1  UNL1       -0.1961
      3 C           3.1073    0.0459   20.3626 C.ar    1  UNL1        0.1361
      4 C           3.5830   -1.1086   19.5315 C.ar    1  UNL1        0.0501
      5 C           4.1995   -2.3053   20.1932 C.ar    1  UNL1        0.0767
      6 N           4.3403   -2.3474   21.6860 N.ar    1  UNL1       -0.2144
      7 C           3.1061   -0.5556   24.9998 C.ar    1  UNL1        0.2041
      8 N           3.6152   -0.8646   26.3765 N.ar    1  UNL1       -0.2134
      9 C           4.8292   -1.7347   26.2375 C.ar    1  UNL1        0.1003
     10 C           5.7461   -2.3481   27.2538 C.ar    1  UNL1        0.0207
     11 C           6.9042   -3.1904   26.8074 C.ar    1  UNL1        0.0016
     12 C           7.1453   -3.4192   25.3447 C.ar    1  UNL1        0.0016
     13 C           6.2284   -2.8058   24.3284 C.ar    1  UNL1        0.0192
     14 C           5.0703   -1.9635   24.7748 C.ar    1  UNL1        0.0869
     15 N           4.0054   -1.2348   24.0099 N.ar    1  UNL1       -0.2480
     16 C           1.6540    1.5564   25.4249 C.3     1  UNL1        0.1108
     17 N           1.9081    0.2849   24.6708 N.pl3   1  UNL1       -0.3023
     18 H           1.2886    0.0020   23.9599 H       1  UNL1        0.1497
     19 N           2.4909    1.2426   19.7008 N.pl3   1  UNL1       -0.2897
     20 C           3.3643    2.2662   19.0380 C.3     1  UNL1        0.1242
     21 C           2.7478    3.4629   18.3763 C.3     1  UNL1        0.1636
     22 O           1.2578    3.6360   18.3773 O.3     1  UNL1       -0.3502
     23 C           0.3844    2.6124   19.0401 C.3     1  UNL1        0.1618
     24 C           1.0009    1.4157   19.7019 C.3     1  UNL1        0.1038
     25 C           0.1274    0.3922   20.3646 C.3     1  UNL1        0.0241
     26 C           4.6751   -3.4599   19.3623 C.3     1  UNL1        0.1119
     27 C           4.6969   -4.8061   18.7008 C.3     1  UNL1        0.0204
     28 C           3.5334   -4.4122   19.5617 C.3     1  UNL1        0.0204
     29 S           5.9820   -2.9088   18.8742 S.3     1  UNL1        0.0687
     30 C           7.2889   -2.3576   18.3862 C.3     1  UNL1        0.1170
     31 N           6.6277   -3.2890   20.1736 N.2     1  UNL1       -0.2504
     32 O           5.3363   -2.5285   17.5748 O.2     1  UNL1       -0.2461
     33 H           6.0968   -3.7270   20.8775 H       1  UNL1        0.1971
@<TRIPOS>BOND
     1    16    17    1
     2    17     7    1
     3     7     8   ar
     4     8     9   ar
     5     9    10   ar
     6    10    11   ar
     7    11    12   ar
     8    12    13   ar
     9    13    14   ar
    10    14    15   ar
    11    15     1    1
    12     1     2   ar
    13     2     3   ar
    14     3    19    1
    15    19    20    1
    16    20    21    1
    17    21    22    1
    18    22    23    1
    19    23    24    1
    20    24    25    1
    21     3     4   ar
    22     4     5   ar
    23     5    26    1
    24    26    29    1
    25    29    30    1
    26    29    31    2
    27    29    32    2
    28    26    27    1
    29    27    28    1
    30     5     6   ar
    31    15     7   ar
    32     6     1   ar
    33    14     9   ar
    34    24    19    1
    35    28    26    1
    36    17    18    1
    37    31    33    1
@<TRIPOS>MOLECULE
*****
 33 37 0 0 0
SMALL
GASTEIGER

@<TRIPOS>ATOM
      1 C           5.7776   -2.8687   26.9755 C.ar    1  UNL1        0.2398
      2 N           6.4652   -3.1493   25.6723 N.ar    1  UNL1       -0.1961
      3 C           6.0851   -2.3789   24.4426 C.ar    1  UNL1        0.1361
      4 C           5.0174   -1.3279   24.5162 C.ar    1  UNL1        0.0501
      5 C           4.3298   -1.0472   25.8194 C.ar    1  UNL1        0.0767
      6 N           4.7098   -1.8176   27.0491 N.ar    1  UNL1       -0.2144
      7 C           6.2716   -5.1310   28.3108 C.ar    1  UNL1        0.2041
      8 N           6.6748   -5.4666   29.7161 N.ar    1  UNL1       -0.2134
      9 C           6.8100   -4.1822   30.4789 C.ar    1  UNL1        0.1003
     10 C           7.1829   -3.8952   31.9032 C.ar    1  UNL1        0.0207
     11 C           7.2362   -2.4787   32.3937 C.ar    1  UNL1        0.0016
     12 C           6.9165   -1.3492   31.4599 C.ar    1  UNL1        0.0016
     13 C           6.5436   -1.6361   30.0356 C.ar    1  UNL1        0.0192
     14 C           6.4904   -3.0527   29.5452 C.ar    1  UNL1        0.0869
     15 N           6.1576   -3.6390   28.2052 N.ar    1  UNL1       -0.2480
     16 C           7.1764   -6.8520   26.5877 C.3     1  UNL1        0.1108
     17 N           6.0255   -6.1145   27.2054 N.pl3   1  UNL1       -0.3023
     18 H           5.1087   -6.2760   26.8852 H       1  UNL1        0.1497
     19 N           6.7728   -2.6596   23.1394 N.pl3   1  UNL1       -0.2897
     20 C           8.1859   -2.2051   22.9239 C.3     1  UNL1        0.1242
     21 C           8.8735   -2.4857   21.6207 C.3     1  UNL1        0.1636
     22 O           8.1480   -3.2209   20.5329 O.3     1  UNL1       -0.3502
     23 C           6.7349   -3.6754   20.7485 C.3     1  UNL1        0.1618
     24 C           6.0473   -3.3948   22.0517 C.3     1  UNL1        0.1038
     25 C           4.6342   -3.8493   22.2672 C.3     1  UNL1        0.0241
     26 C           3.2621    0.0037   25.8930 C.3     1  UNL1        0.1119
     27 C           2.1421    0.9073   25.4696 C.3     1  UNL1        0.0204
     28 C           2.7407   -0.0559   24.4878 C.3     1  UNL1        0.0204
     29 S           3.4127    0.4284   27.3236 S.3     1  UNL1        0.0687
     30 C           3.5633    0.8530   28.7544 C.3     1  UNL1        0.1170
     31 N           2.2597   -0.4514   27.7062 N.2     1  UNL1       -0.2504
     32 O           4.5659    1.3082   26.9411 O.2     1  UNL1       -0.2461
     33 H           1.7956   -0.9815   27.0186 H       1  UNL1        0.1971
@<TRIPOS>BOND
     1    16    17    1
     2    17     7    1
     3     7     8   ar
     4     8     9   ar
     5     9    10   ar
     6    10    11   ar
     7    11    12   ar
     8    12    13   ar
     9    13    14   ar
    10    14    15   ar
    11    15     1    1
    12     1     2   ar
    13     2     3   ar
    14     3    19    1
    15    19    20    1
    16    20    21    1
    17    21    22    1
    18    22    23    1
    19    23    24    1
    20    24    25    1
    21     3     4   ar
    22     4     5   ar
    23     5    26    1
    24    26    29    1
    25    29    30    1
    26    29    31    2
    27    29    32    2
    28    26    27    1
    29    27    28    1
    30     5     6   ar
    31    15     7   ar
    32     6     1   ar
    33    14     9   ar
    34    24    19    1
    35    28    26    1
    36    17    18    1
    37    31    33    1
@<TRIPOS>MOLECULE
*****
 33 37 0 0 0
SMALL
GASTEIGER

@<TRIPOS>ATOM
      1 C           3.5428    0.8890   33.7010 C.ar    1  UNL1        0.2398
      2 N           4.7149   -0.0148   33.4576 N.ar    1  UNL1       -0.1961
      3 C           4.9017   -0.6556   32.1143 C.ar    1  UNL1        0.1361
      4 C           3.9163   -0.3927   31.0144 C.ar    1  UNL1        0.0501
      5 C           2.7442    0.5111   31.2577 C.ar    1  UNL1        0.0767
      6 N           2.5574    1.1520   32.6010 N.ar    1  UNL1       -0.2144
      7 C           3.8777    1.0081   36.3503 C.ar    1  UNL1        0.2041
      8 N           3.4588    1.9607   37.4305 N.ar    1  UNL1       -0.2134
      9 C           2.6782    3.0712   36.7922 C.ar    1  UNL1        0.1003
     10 C           2.0170    4.2905   37.3633 C.ar    1  UNL1        0.0207
     11 C           1.2922    5.2434   36.4597 C.ar    1  UNL1        0.0016
     12 C           1.2287    4.9770   34.9849 C.ar    1  UNL1        0.0016
     13 C           1.8899    3.7578   34.4137 C.ar    1  UNL1        0.0192
     14 C           2.6146    2.8049   35.3174 C.ar    1  UNL1        0.0869
     15 N           3.3560    1.5298   35.0443 N.ar    1  UNL1       -0.2480
     16 C           6.1666   -0.1678   36.7083 C.3     1  UNL1        0.1108
     17 N           4.6779   -0.2460   36.5423 N.pl3   1  UNL1       -0.3023
     18 H           4.2260   -1.1205   36.5593 H       1  UNL1        0.1497
     19 N           6.0738   -1.5594   31.8710 N.pl3   1  UNL1       -0.2897
     20 C           5.9414   -3.0365   32.0958 C.3     1  UNL1        0.1242
     21 C           7.1135   -3.9403   31.8524 C.3     1  UNL1        0.1636
     22 O           8.4182   -3.3670   31.3843 O.3     1  UNL1       -0.3502
     23 C           8.5506   -1.8899   31.1595 C.3     1  UNL1        0.1618
     24 C           7.3785   -0.9861   31.4029 C.3     1  UNL1        0.1038
     25 C           7.5110    0.4910   31.1781 C.3     1  UNL1        0.0241
     26 C           1.7588    0.7741   30.1578 C.3     1  UNL1        0.1119
     27 C           0.9491    0.5689   28.9119 C.3     1  UNL1        0.0204
     28 C           1.9223   -0.4827   29.3556 C.3     1  UNL1        0.0204
     29 S           1.2531    2.1223   30.5779 S.3     1  UNL1        0.0687
     30 C           0.7474    3.4706   30.9981 C.3     1  UNL1        0.1170
     31 N           2.5250    2.7511   30.0913 N.2     1  UNL1       -0.2504
     32 O          -0.0189    1.4936   31.0646 O.2     1  UNL1       -0.2461
     33 H           3.2299    2.1912   29.6928 H       1  UNL1        0.1971
@<TRIPOS>BOND
     1    16    17    1
     2    17     7    1
     3     7     8   ar
     4     8     9   ar
     5     9    10   ar
     6    10    11   ar
     7    11    12   ar
     8    12    13   ar
     9    13    14   ar
    10    14    15   ar
    11    15     1    1
    12     1     2   ar
    13     2     3   ar
    14     3    19    1
    15    19    20    1
    16    20    21    1
    17    21    22    1
    18    22    23    1
    19    23    24    1
    20    24    25    1
    21     3     4   ar
    22     4     5   ar
    23     5    26    1
    24    26    29    1
    25    29    30    1
    26    29    31    2
    27    29    32    2
    28    26    27    1
    29    27    28    1
    30     5     6   ar
    31    15     7   ar
    32     6     1   ar
    33    14     9   ar
    34    24    19    1
    35    28    26    1
    36    17    18    1
    37    31    33    1
