@<TRIPOS>MOLECULE
*****
 30 33 0 0 0
SMALL
GASTEIGER

@<TRIPOS>ATOM
      1 C          -8.2255  -16.7744   24.2964 C.3     1  UNL1        0.2959
      2 N          -6.7465  -16.5258   24.2712 N.2     1  UNL1       -0.2191
      3 C          -6.3994  -15.6739   25.4560 C.2     1  UNL1        0.1399
      4 C          -5.0284  -15.1857   25.8196 C.3     1  UNL1        0.0598
      5 C          -7.6639  -15.3960   26.2135 C.2     1  UNL1        0.3289
      6 N          -7.7795  -14.5810   27.4674 N.pl3   1  UNL1       -0.2454
      7 N          -8.7925  -16.0761   25.4968 N.2     1  UNL1       -0.0404
      8 H          -6.9767  -14.1723   27.8646 H       1  UNL1        0.2885
      9 H          -8.6581  -14.4548   27.8933 H       1  UNL1        0.2885
     10 C         -12.4936  -18.0121   23.5882 C.ar    1  UNL1        0.1347
     11 C         -11.5975  -18.8623   24.4390 C.ar    1  UNL1        0.0365
     12 C         -10.1748  -18.4498   24.6751 C.ar    1  UNL1        0.0051
     13 C          -9.6482  -17.1869   24.0603 C.ar    1  UNL1        0.0478
     14 C         -10.5443  -16.3367   23.2095 C.ar    1  UNL1        0.0008
     15 C         -11.9670  -16.7493   22.9734 C.ar    1  UNL1        0.0120
     16 C         -12.8632  -15.8989   22.1226 C.3     1  UNL1        0.0342
     17 C         -14.8992  -18.4101   24.4850 C.3     1  UNL1        0.2525
     18 O         -13.9163  -18.4247   23.3521 O.3     1  UNL1       -0.4717
     19 C          -7.9560  -17.5589   23.0466 C.ar    1  UNL1        0.0479
     20 C          -9.0943  -17.9802   22.1654 C.ar    1  UNL1        0.0021
     21 C          -8.8248  -18.7647   20.9157 C.ar    1  UNL1       -0.0001
     22 C          -7.4168  -19.1279   20.5472 C.ar    1  UNL1        0.0001
     23 C          -6.2785  -18.7066   21.4284 C.ar    1  UNL1        0.0029
     24 C          -6.5480  -17.9221   22.6781 C.ar    1  UNL1        0.0022
     25 C          -4.8706  -19.0698   21.0598 C.ar    1  UNL1        0.0384
     26 C          -3.9250  -19.5691   22.1118 C.ar    1  UNL1        0.1022
     27 N          -2.5170  -19.9323   21.7433 N.ar    1  UNL1       -0.2224
     28 C          -2.0546  -19.7962   20.3228 C.ar    1  UNL1        0.1989
     29 N          -3.0002  -19.2969   19.2708 N.ar    1  UNL1       -0.2224
     30 C          -4.4082  -18.9337   19.6394 C.ar    1  UNL1        0.1022
@<TRIPOS>BOND
     1    17    18    1
     2    18    10    1
     3    10    11   ar
     4    11    12   ar
     5    12    13   ar
     6    13     1    1
     7     1    19    1
     8    19    20   ar
     9    20    21   ar
    10    21    22   ar
    11    22    23   ar
    12    23    25    1
    13    25    26   ar
    14    26    27   ar
    15    27    28   ar
    16    28    29   ar
    17    29    30   ar
    18    23    24   ar
    19     1     2    1
    20     2     3    2
    21     3     4    1
    22     3     5    1
    23     5     6    1
    24     5     7    2
    25    13    14   ar
    26    14    15   ar
    27    15    16    1
    28    15    10   ar
    29     7     1    1
    30    24    19   ar
    31    30    25   ar
    32     6     8    1
    33     6     9    1
@<TRIPOS>MOLECULE
*****
 30 33 0 0 0
SMALL
GASTEIGER

@<TRIPOS>ATOM
      1 C          -9.1217  -17.9090   21.6221 C.3     1  UNL1        0.2959
      2 N          -9.4210  -18.8178   20.4669 N.2     1  UNL1       -0.2191
      3 C         -10.6527  -18.3053   19.7810 C.2     1  UNL1        0.1399
      4 C         -11.3074  -18.9118   18.5754 C.3     1  UNL1        0.0598
      5 C         -11.1145  -17.0798   20.5123 C.2     1  UNL1        0.3289
      6 N         -12.3123  -16.2457   20.1664 N.pl3   1  UNL1       -0.2454
      7 N         -10.1684  -16.8349   21.6502 N.2     1  UNL1       -0.0404
      8 H         -12.8754  -16.4885   19.3963 H       1  UNL1        0.2885
      9 H         -12.5352  -15.4554   20.7096 H       1  UNL1        0.2885
     10 C          -7.4964  -15.7625   25.2278 C.ar    1  UNL1        0.1347
     11 C          -8.8775  -16.3467   25.2621 C.ar    1  UNL1        0.0365
     12 C          -9.4192  -17.0622   24.0602 C.ar    1  UNL1        0.0051
     13 C          -8.5799  -17.1935   22.8240 C.ar    1  UNL1        0.0478
     14 C          -7.1988  -16.6093   22.7897 C.ar    1  UNL1        0.0008
     15 C          -6.6570  -15.8938   23.9916 C.ar    1  UNL1        0.0120
     16 C          -5.2759  -15.3096   23.9572 C.3     1  UNL1        0.0342
     17 C          -6.6172  -15.8170   27.6720 C.3     1  UNL1        0.2525
     18 O          -6.9546  -15.0471   26.4297 O.3     1  UNL1       -0.4717
     19 C          -7.9618  -18.8336   21.8453 C.ar    1  UNL1        0.0479
     20 C          -8.1429  -20.0816   22.6574 C.ar    1  UNL1        0.0021
     21 C          -6.9831  -21.0061   22.8806 C.ar    1  UNL1       -0.0001
     22 C          -5.6420  -20.6826   22.2917 C.ar    1  UNL1        0.0001
     23 C          -5.4608  -19.4346   21.4796 C.ar    1  UNL1        0.0029
     24 C          -6.6207  -18.5101   21.2564 C.ar    1  UNL1        0.0022
     25 C          -4.1197  -19.1111   20.8907 C.ar    1  UNL1        0.0384
     26 C          -2.8752  -19.3133   21.7033 C.ar    1  UNL1        0.1022
     27 N          -1.5341  -18.9898   21.1144 N.ar    1  UNL1       -0.2224
     28 C          -1.4375  -18.4641   19.7128 C.ar    1  UNL1        0.1989
     29 N          -2.6820  -18.2619   18.9002 N.ar    1  UNL1       -0.2224
     30 C          -4.0232  -18.5854   19.4892 C.ar    1  UNL1        0.1022
@<TRIPOS>BOND
     1    17    18    1
     2    18    10    1
     3    10    11   ar
     4    11    12   ar
     5    12    13   ar
     6    13     1    1
     7     1    19    1
     8    19    20   ar
     9    20    21   ar
    10    21    22   ar
    11    22    23   ar
    12    23    25    1
    13    25    26   ar
    14    26    27   ar
    15    27    28   ar
    16    28    29   ar
    17    29    30   ar
    18    23    24   ar
    19     1     2    1
    20     2     3    2
    21     3     4    1
    22     3     5    1
    23     5     6    1
    24     5     7    2
    25    13    14   ar
    26    14    15   ar
    27    15    16    1
    28    15    10   ar
    29     7     1    1
    30    24    19   ar
    31    30    25   ar
    32     6     8    1
    33     6     9    1
@<TRIPOS>MOLECULE
*****
 30 33 0 0 0
SMALL
GASTEIGER

@<TRIPOS>ATOM
      1 C          -8.3423  -16.7338   24.3690 C.3     1  UNL1        0.2959
      2 N          -7.1128  -17.0553   25.1658 N.2     1  UNL1       -0.2191
      3 C          -7.1224  -16.2001   26.3982 C.2     1  UNL1        0.1399
      4 C          -6.0796  -16.1957   27.4764 C.3     1  UNL1        0.0598
      5 C          -8.3579  -15.3502   26.3630 C.2     1  UNL1        0.3289
      6 N          -8.7674  -14.3467   27.3999 N.pl3   1  UNL1       -0.2454
      7 N          -9.1118  -15.6800   25.1089 N.2     1  UNL1       -0.0404
      8 H          -8.2029  -14.2001   28.1931 H       1  UNL1        0.2885
      9 H          -9.6007  -13.8346   27.2873 H       1  UNL1        0.2885
     10 C         -11.6949  -16.4165   21.3841 C.ar    1  UNL1        0.1347
     11 C         -10.3414  -15.8607   21.0537 C.ar    1  UNL1        0.0365
     12 C          -9.2239  -15.9665   22.0487 C.ar    1  UNL1        0.0051
     13 C          -9.4599  -16.6280   23.3741 C.ar    1  UNL1        0.0478
     14 C         -10.8133  -17.1838   23.7045 C.ar    1  UNL1        0.0008
     15 C         -11.9308  -17.0780   22.7095 C.ar    1  UNL1        0.0120
     16 C         -13.2844  -17.6339   23.0399 C.3     1  UNL1        0.0342
     17 C         -12.5745  -15.6558   19.0609 C.3     1  UNL1        0.2525
     18 O         -12.8124  -16.3107   20.3892 O.3     1  UNL1       -0.4717
     19 C          -7.8065  -17.7655   23.4211 C.ar    1  UNL1        0.0479
     20 C          -8.6952  -18.8725   22.9367 C.ar    1  UNL1        0.0021
     21 C          -8.1593  -19.9041   21.9888 C.ar    1  UNL1       -0.0001
     22 C          -6.7348  -19.8287   21.5253 C.ar    1  UNL1        0.0001
     23 C          -5.8460  -18.7217   22.0096 C.ar    1  UNL1        0.0029
     24 C          -6.3819  -17.6901   22.9575 C.ar    1  UNL1        0.0022
     25 C          -4.4215  -18.6463   21.5460 C.ar    1  UNL1        0.0384
     26 C          -4.0794  -18.9596   20.1196 C.ar    1  UNL1        0.1022
     27 N          -2.6548  -18.8842   19.6560 N.ar    1  UNL1       -0.2224
     28 C          -1.5723  -18.4955   20.6189 C.ar    1  UNL1        0.1989
     29 N          -1.9144  -18.1822   22.0454 N.ar    1  UNL1       -0.2224
     30 C          -3.3390  -18.2576   22.5090 C.ar    1  UNL1        0.1022
@<TRIPOS>BOND
     1    17    18    1
     2    18    10    1
     3    10    11   ar
     4    11    12   ar
     5    12    13   ar
     6    13     1    1
     7     1    19    1
     8    19    20   ar
     9    20    21   ar
    10    21    22   ar
    11    22    23   ar
    12    23    25    1
    13    25    26   ar
    14    26    27   ar
    15    27    28   ar
    16    28    29   ar
    17    29    30   ar
    18    23    24   ar
    19     1     2    1
    20     2     3    2
    21     3     4    1
    22     3     5    1
    23     5     6    1
    24     5     7    2
    25    13    14   ar
    26    14    15   ar
    27    15    16    1
    28    15    10   ar
    29     7     1    1
    30    24    19   ar
    31    30    25   ar
    32     6     8    1
    33     6     9    1
@<TRIPOS>MOLECULE
*****
 30 33 0 0 0
SMALL
GASTEIGER

@<TRIPOS>ATOM
      1 C           3.4443    0.0003   31.4133 C.3     1  UNL1        0.2959
      2 N           2.5972    1.2280   31.5719 N.2     1  UNL1       -0.2191
      3 C           1.5068    1.1748   30.5431 C.2     1  UNL1        0.1399
      4 C           0.4319    2.2019   30.3438 C.3     1  UNL1        0.0598
      5 C           1.6801   -0.0857   29.7487 C.2     1  UNL1        0.3289
      6 N           0.8089   -0.5405   28.6156 N.pl3   1  UNL1       -0.2454
      7 N           2.8775   -0.8116   30.2865 N.2     1  UNL1       -0.0404
      8 H           0.0414    0.0081   28.3338 H       1  UNL1        0.2885
      9 H           1.0044   -1.3875   28.1535 H       1  UNL1        0.2885
     10 C           6.4737   -3.3185   31.6546 C.ar    1  UNL1        0.1347
     11 C           5.4950   -3.1136   32.7727 C.ar    1  UNL1        0.0365
     12 C           4.4852   -2.0073   32.6923 C.ar    1  UNL1        0.0051
     13 C           4.4541   -1.1060   31.4937 C.ar    1  UNL1        0.0478
     14 C           5.4328   -1.3109   30.3756 C.ar    1  UNL1        0.0008
     15 C           6.4426   -2.4172   30.4561 C.ar    1  UNL1        0.0120
     16 C           7.4213   -2.6221   29.3379 C.3     1  UNL1        0.0342
     17 C           7.1109   -5.8130   31.3060 C.3     1  UNL1        0.2525
     18 O           7.4834   -4.4248   31.7351 O.3     1  UNL1       -0.4717
     19 C           4.2222    0.5809   32.5568 C.ar    1  UNL1        0.0479
     20 C           5.6737    0.9169   32.3827 C.ar    1  UNL1        0.0021
     21 C           6.4516    1.4975   33.5262 C.ar    1  UNL1       -0.0001
     22 C           5.7780    1.7421   34.8439 C.ar    1  UNL1        0.0001
     23 C           4.3266    1.4062   35.0182 C.ar    1  UNL1        0.0029
     24 C           3.5487    0.8256   33.8746 C.ar    1  UNL1        0.0022
     25 C           3.6531    1.6508   36.3359 C.ar    1  UNL1        0.0384
     26 C           2.5008    2.6073   36.4231 C.ar    1  UNL1        0.1022
     27 N           1.8273    2.8519   37.7409 N.ar    1  UNL1       -0.2224
     28 C           2.3059    2.1400   38.9715 C.ar    1  UNL1        0.1989
     29 N           3.4581    1.1835   38.8842 N.ar    1  UNL1       -0.2224
     30 C           4.1317    0.9389   37.5664 C.ar    1  UNL1        0.1022
@<TRIPOS>BOND
     1    17    18    1
     2    18    10    1
     3    10    11   ar
     4    11    12   ar
     5    12    13   ar
     6    13     1    1
     7     1    19    1
     8    19    20   ar
     9    20    21   ar
    10    21    22   ar
    11    22    23   ar
    12    23    25    1
    13    25    26   ar
    14    26    27   ar
    15    27    28   ar
    16    28    29   ar
    17    29    30   ar
    18    23    24   ar
    19     1     2    1
    20     2     3    2
    21     3     4    1
    22     3     5    1
    23     5     6    1
    24     5     7    2
    25    13    14   ar
    26    14    15   ar
    27    15    16    1
    28    15    10   ar
    29     7     1    1
    30    24    19   ar
    31    30    25   ar
    32     6     8    1
    33     6     9    1
@<TRIPOS>MOLECULE
*****
 30 33 0 0 0
SMALL
GASTEIGER

@<TRIPOS>ATOM
      1 C           3.0672   -0.4006   22.5638 C.3     1  UNL1        0.2959
      2 N           2.0886    0.7176   22.7686 N.2     1  UNL1       -0.2191
      3 C           1.8776    0.8844   24.2443 C.2     1  UNL1        0.1399
      4 C           0.9765    1.8898   24.8980 C.3     1  UNL1        0.0598
      5 C           2.7257   -0.1307   24.9515 C.2     1  UNL1        0.3289
      6 N           2.8217   -0.3186   26.4366 N.pl3   1  UNL1       -0.2454
      7 N           3.4610   -0.9248   23.9129 N.2     1  UNL1       -0.0404
      8 H           2.2970    0.2553   27.0403 H       1  UNL1        0.2885
      9 H           3.4095   -1.0158   26.8075 H       1  UNL1        0.2885
     10 C           5.8790   -3.5646   21.0366 C.ar    1  UNL1        0.1347
     11 C           6.3701   -2.5281   22.0032 C.ar    1  UNL1        0.0365
     12 C           5.4329   -1.4734   22.5123 C.ar    1  UNL1        0.0051
     13 C           4.0045   -1.4553   22.0547 C.ar    1  UNL1        0.0478
     14 C           3.5134   -2.4918   21.0881 C.ar    1  UNL1        0.0008
     15 C           4.4507   -3.5465   20.5790 C.ar    1  UNL1        0.0120
     16 C           3.9595   -4.5830   19.6124 C.3     1  UNL1        0.0342
     17 C           8.2137   -4.7041   21.0660 C.3     1  UNL1        0.2525
     18 O           6.8163   -4.6193   20.5275 O.3     1  UNL1       -0.4717
     19 C           2.8694   -0.0968   21.1082 C.ar    1  UNL1        0.0479
     20 C           1.5125   -0.2506   20.4876 C.ar    1  UNL1        0.0021
     21 C           1.3148    0.0532   19.0322 C.ar    1  UNL1       -0.0001
     22 C           2.4738    0.5108   18.1972 C.ar    1  UNL1        0.0001
     23 C           3.8307    0.6646   18.8178 C.ar    1  UNL1        0.0029
     24 C           4.0285    0.3608   20.2733 C.ar    1  UNL1        0.0022
     25 C           4.9898    1.1221   17.9828 C.ar    1  UNL1        0.0384
     26 C           5.2787    2.5870   17.8393 C.ar    1  UNL1        0.1022
     27 N           6.4378    3.0446   17.0044 N.ar    1  UNL1       -0.2224
     28 C           7.3081    2.0372   16.3129 C.ar    1  UNL1        0.1989
     29 N           7.0191    0.5723   16.4565 N.ar    1  UNL1       -0.2224
     30 C           5.8600    0.1147   17.2914 C.ar    1  UNL1        0.1022
@<TRIPOS>BOND
     1    17    18    1
     2    18    10    1
     3    10    11   ar
     4    11    12   ar
     5    12    13   ar
     6    13     1    1
     7     1    19    1
     8    19    20   ar
     9    20    21   ar
    10    21    22   ar
    11    22    23   ar
    12    23    25    1
    13    25    26   ar
    14    26    27   ar
    15    27    28   ar
    16    28    29   ar
    17    29    30   ar
    18    23    24   ar
    19     1     2    1
    20     2     3    2
    21     3     4    1
    22     3     5    1
    23     5     6    1
    24     5     7    2
    25    13    14   ar
    26    14    15   ar
    27    15    16    1
    28    15    10   ar
    29     7     1    1
    30    24    19   ar
    31    30    25   ar
    32     6     8    1
    33     6     9    1
@<TRIPOS>MOLECULE
*****
 30 33 0 0 0
SMALL
GASTEIGER

@<TRIPOS>ATOM
      1 C           6.1103   -3.4539   23.5002 C.3     1  UNL1        0.2959
      2 N           6.1994   -3.4658   24.9975 N.2     1  UNL1       -0.2191
      3 C           6.9391   -4.7045   25.4080 C.2     1  UNL1        0.1399
      4 C           7.2552   -5.1171   26.8150 C.3     1  UNL1        0.0598
      5 C           7.3072   -5.4581   24.1644 C.2     1  UNL1        0.3289
      6 N           8.0560   -6.7566   24.1095 N.pl3   1  UNL1       -0.2454
      7 N           6.7950   -4.6852   22.9853 N.2     1  UNL1       -0.0404
      8 H           8.3524   -7.1895   24.9426 H       1  UNL1        0.2885
      9 H           8.2512   -7.1760   23.2405 H       1  UNL1        0.2885
     10 C           5.3818   -2.6091   19.1406 C.ar    1  UNL1        0.1347
     11 C           6.4528   -1.8635   19.8803 C.ar    1  UNL1        0.0365
     12 C           6.6956   -2.1451   21.3335 C.ar    1  UNL1        0.0051
     13 C           5.8675   -3.1723   22.0470 C.ar    1  UNL1        0.0478
     14 C           4.7966   -3.9179   21.3073 C.ar    1  UNL1        0.0008
     15 C           4.5538   -3.6362   19.8541 C.ar    1  UNL1        0.0120
     16 C           3.4828   -4.3819   19.1144 C.3     1  UNL1        0.0342
     17 C           4.2221   -1.2114   17.2828 C.3     1  UNL1        0.2525
     18 O           5.1390   -2.3274   17.6875 O.3     1  UNL1       -0.4717
     19 C           5.3749   -2.1637   23.7112 C.ar    1  UNL1        0.0479
     20 C           5.7889   -1.2363   24.8150 C.ar    1  UNL1        0.0021
     21 C           5.0535    0.0539   25.0261 C.ar    1  UNL1       -0.0001
     22 C           3.9040    0.4166   24.1334 C.ar    1  UNL1        0.0001
     23 C           3.4899   -0.5107   23.0296 C.ar    1  UNL1        0.0029
     24 C           4.2253   -1.8009   22.8185 C.ar    1  UNL1        0.0022
     25 C           2.3404   -0.1480   22.1368 C.ar    1  UNL1        0.0384
     26 C           1.3523    0.8933   22.5721 C.ar    1  UNL1        0.1022
     27 N           0.2028    1.2560   21.6794 N.ar    1  UNL1       -0.2224
     28 C           0.0413    0.5776   20.3513 C.ar    1  UNL1        0.1989
     29 N           1.0294   -0.4637   19.9160 N.ar    1  UNL1       -0.2224
     30 C           2.1790   -0.8264   20.8088 C.ar    1  UNL1        0.1022
@<TRIPOS>BOND
     1    17    18    1
     2    18    10    1
     3    10    11   ar
     4    11    12   ar
     5    12    13   ar
     6    13     1    1
     7     1    19    1
     8    19    20   ar
     9    20    21   ar
    10    21    22   ar
    11    22    23   ar
    12    23    25    1
    13    25    26   ar
    14    26    27   ar
    15    27    28   ar
    16    28    29   ar
    17    29    30   ar
    18    23    24   ar
    19     1     2    1
    20     2     3    2
    21     3     4    1
    22     3     5    1
    23     5     6    1
    24     5     7    2
    25    13    14   ar
    26    14    15   ar
    27    15    16    1
    28    15    10   ar
    29     7     1    1
    30    24    19   ar
    31    30    25   ar
    32     6     8    1
    33     6     9    1
@<TRIPOS>MOLECULE
*****
 30 33 0 0 0
SMALL
GASTEIGER

@<TRIPOS>ATOM
      1 C           3.6536   -1.2232   22.2185 C.3     1  UNL1        0.2959
      2 N           4.7911   -2.1818   22.4113 N.2     1  UNL1       -0.2191
      3 C           4.9495   -2.4229   23.8833 C.2     1  UNL1        0.1399
      4 C           5.9687   -3.3167   24.5257 C.3     1  UNL1        0.0598
      5 C           3.9099   -1.6134   24.6002 C.2     1  UNL1        0.3289
      6 N           3.7070   -1.5556   26.0852 N.pl3   1  UNL1       -0.2454
      7 N           3.1090   -0.8720   23.5713 N.2     1  UNL1       -0.0404
      8 H           4.2869   -2.0814   26.6822 H       1  UNL1        0.2885
      9 H           2.9938   -0.9917   26.4630 H       1  UNL1        0.2885
     10 C           0.4422    1.5535   20.7262 C.ar    1  UNL1        0.1347
     11 C           0.5059    0.1416   20.2237 C.ar    1  UNL1        0.0365
     12 C           1.5764   -0.7839   20.7211 C.ar    1  UNL1        0.0051
     13 C           2.5831   -0.2977   21.7211 C.ar    1  UNL1        0.0478
     14 C           2.5194    1.1142   22.2236 C.ar    1  UNL1        0.0008
     15 C           1.4489    2.0397   21.7262 C.ar    1  UNL1        0.0120
     16 C           1.3852    3.4516   22.2288 C.3     1  UNL1        0.0342
     17 C          -0.4119    3.2698   18.9727 C.3     1  UNL1        0.2525
     18 O          -0.6283    2.4790   20.2288 O.3     1  UNL1       -0.4717
     19 C           3.9744   -1.3810   20.7617 C.ar    1  UNL1        0.0479
     20 C           3.7026   -2.6843   20.0707 C.ar    1  UNL1        0.0021
     21 C           4.0234   -2.8421   18.6140 C.ar    1  UNL1       -0.0001
     22 C           4.6160   -1.6965   17.8482 C.ar    1  UNL1        0.0001
     23 C           4.8878   -0.3932   18.5391 C.ar    1  UNL1        0.0029
     24 C           4.5670   -0.2354   19.9959 C.ar    1  UNL1        0.0022
     25 C           5.4803    0.7524   17.7732 C.ar    1  UNL1        0.0384
     26 C           6.5545    0.4996   16.7572 C.ar    1  UNL1        0.1022
     27 N           7.1470    1.6452   15.9914 N.ar    1  UNL1       -0.2224
     28 C           6.6655    3.0436   16.2416 C.ar    1  UNL1        0.1989
     29 N           5.5913    3.2964   17.2576 N.ar    1  UNL1       -0.2224
     30 C           4.9987    2.1508   18.0235 C.ar    1  UNL1        0.1022
@<TRIPOS>BOND
     1    17    18    1
     2    18    10    1
     3    10    11   ar
     4    11    12   ar
     5    12    13   ar
     6    13     1    1
     7     1    19    1
     8    19    20   ar
     9    20    21   ar
    10    21    22   ar
    11    22    23   ar
    12    23    25    1
    13    25    26   ar
    14    26    27   ar
    15    27    28   ar
    16    28    29   ar
    17    29    30   ar
    18    23    24   ar
    19     1     2    1
    20     2     3    2
    21     3     4    1
    22     3     5    1
    23     5     6    1
    24     5     7    2
    25    13    14   ar
    26    14    15   ar
    27    15    16    1
    28    15    10   ar
    29     7     1    1
    30    24    19   ar
    31    30    25   ar
    32     6     8    1
    33     6     9    1
@<TRIPOS>MOLECULE
*****
 30 33 0 0 0
SMALL
GASTEIGER

@<TRIPOS>ATOM
      1 C           6.3306   -2.8282   31.3430 C.3     1  UNL1        0.2959
      2 N           6.6050   -3.3883   29.9789 N.2     1  UNL1       -0.2191
      3 C           6.9977   -4.8272   30.1390 C.2     1  UNL1        0.1399
      4 C           7.3587   -5.7712   29.0306 C.3     1  UNL1        0.0598
      5 C           6.9660   -5.1562   31.6021 C.2     1  UNL1        0.3289
      6 N           7.2897   -6.4870   32.2137 N.pl3   1  UNL1       -0.2454
      7 N           6.5537   -3.9208   32.3463 N.2     1  UNL1       -0.0404
      8 H           7.5519   -7.2422   31.6390 H       1  UNL1        0.2885
      9 H           7.2400   -6.6054   33.1898 H       1  UNL1        0.2885
     10 C           5.3235   -0.3543   34.9645 C.ar    1  UNL1        0.1347
     11 C           4.3104   -1.3061   34.4011 C.ar    1  UNL1        0.0365
     12 C           4.6461   -2.1307   33.1939 C.ar    1  UNL1        0.0051
     13 C           5.9949   -2.0035   32.5502 C.ar    1  UNL1        0.0478
     14 C           7.0081   -1.0517   33.1137 C.ar    1  UNL1        0.0008
     15 C           6.6723   -0.2271   34.3208 C.ar    1  UNL1        0.0120
     16 C           7.6856    0.7248   34.8843 C.3     1  UNL1        0.0342
     17 C           3.9389    1.5389   36.0821 C.3     1  UNL1        0.2525
     18 O           4.9878    0.4704   36.1717 O.3     1  UNL1       -0.4717
     19 C           6.0374   -1.5631   30.5921 C.ar    1  UNL1        0.0479
     20 C           7.1631   -0.7463   30.0304 C.ar    1  UNL1        0.0021
     21 C           6.8698    0.5187   29.2796 C.ar    1  UNL1       -0.0001
     22 C           5.4509    0.9668   29.0905 C.ar    1  UNL1        0.0001
     23 C           4.3252    0.1500   29.6522 C.ar    1  UNL1        0.0029
     24 C           4.6185   -1.1150   30.4030 C.ar    1  UNL1        0.0022
     25 C           2.9063    0.5981   29.4630 C.ar    1  UNL1        0.0384
     26 C           2.6160    1.9983   29.0100 C.ar    1  UNL1        0.1022
     27 N           1.1971    2.4465   28.8209 N.ar    1  UNL1       -0.2224
     28 C           0.0683    1.4944   29.0848 C.ar    1  UNL1        0.1989
     29 N           0.3586    0.0942   29.5378 N.ar    1  UNL1       -0.2224
     30 C           1.7776   -0.3539   29.7269 C.ar    1  UNL1        0.1022
@<TRIPOS>BOND
     1    17    18    1
     2    18    10    1
     3    10    11   ar
     4    11    12   ar
     5    12    13   ar
     6    13     1    1
     7     1    19    1
     8    19    20   ar
     9    20    21   ar
    10    21    22   ar
    11    22    23   ar
    12    23    25    1
    13    25    26   ar
    14    26    27   ar
    15    27    28   ar
    16    28    29   ar
    17    29    30   ar
    18    23    24   ar
    19     1     2    1
    20     2     3    2
    21     3     4    1
    22     3     5    1
    23     5     6    1
    24     5     7    2
    25    13    14   ar
    26    14    15   ar
    27    15    16    1
    28    15    10   ar
    29     7     1    1
    30    24    19   ar
    31    30    25   ar
    32     6     8    1
    33     6     9    1
@<TRIPOS>MOLECULE
*****
 30 33 0 0 0
SMALL
GASTEIGER

@<TRIPOS>ATOM
      1 C           5.6568    0.3611   18.5402 C.3     1  UNL1        0.2959
      2 N           5.0213    1.6617   18.1471 N.2     1  UNL1       -0.2191
      3 C           5.9699    2.3847   17.2373 C.2     1  UNL1        0.1399
      4 C           5.7376    3.7260   16.6073 C.3     1  UNL1        0.0598
      5 C           7.1915    1.5309   17.0682 C.2     1  UNL1        0.3289
      6 N           8.3953    1.8685   16.2394 N.pl3   1  UNL1       -0.2454
      7 N           6.9980    0.2802   17.8734 N.2     1  UNL1       -0.0404
      8 H           8.4291    2.7186   15.7440 H       1  UNL1        0.2885
      9 H           9.1515    1.2400   16.1909 H       1  UNL1        0.2885
     10 C           6.7705   -3.6662   20.2108 C.ar    1  UNL1        0.1347
     11 C           7.5859   -2.4571   20.5616 C.ar    1  UNL1        0.0365
     12 C           7.2147   -1.1146   20.0048 C.ar    1  UNL1        0.0051
     13 C           6.0280   -0.9813   19.0970 C.ar    1  UNL1        0.0478
     14 C           5.2126   -2.1904   18.7462 C.ar    1  UNL1        0.0008
     15 C           5.5839   -3.5328   19.3030 C.ar    1  UNL1        0.0120
     16 C           4.7684   -4.7420   18.9521 C.3     1  UNL1        0.0342
     17 C           8.5165   -5.2361   21.3228 C.3     1  UNL1        0.2525
     18 O           7.1418   -5.0086   20.7676 O.3     1  UNL1       -0.4717
     19 C           4.3931    0.1613   19.3234 C.ar    1  UNL1        0.0479
     20 C           3.0761    0.0688   18.6114 C.ar    1  UNL1        0.0021
     21 C           1.8126   -0.1310   19.3945 C.ar    1  UNL1       -0.0001
     22 C           1.8660   -0.2383   20.8897 C.ar    1  UNL1        0.0001
     23 C           3.1829   -0.1457   21.6017 C.ar    1  UNL1        0.0029
     24 C           4.4465    0.0541   20.8186 C.ar    1  UNL1        0.0022
     25 C           3.2362   -0.2530   23.0969 C.ar    1  UNL1        0.0384
     26 C           2.5314    0.7620   23.9473 C.ar    1  UNL1        0.1022
     27 N           2.5848    0.6548   25.4425 N.ar    1  UNL1       -0.2224
     28 C           3.3429   -0.4675   26.0874 C.ar    1  UNL1        0.1989
     29 N           4.0477   -1.4825   25.2370 N.ar    1  UNL1       -0.2224
     30 C           3.9943   -1.3752   23.7418 C.ar    1  UNL1        0.1022
@<TRIPOS>BOND
     1    17    18    1
     2    18    10    1
     3    10    11   ar
     4    11    12   ar
     5    12    13   ar
     6    13     1    1
     7     1    19    1
     8    19    20   ar
     9    20    21   ar
    10    21    22   ar
    11    22    23   ar
    12    23    25    1
    13    25    26   ar
    14    26    27   ar
    15    27    28   ar
    16    28    29   ar
    17    29    30   ar
    18    23    24   ar
    19     1     2    1
    20     2     3    2
    21     3     4    1
    22     3     5    1
    23     5     6    1
    24     5     7    2
    25    13    14   ar
    26    14    15   ar
    27    15    16    1
    28    15    10   ar
    29     7     1    1
    30    24    19   ar
    31    30    25   ar
    32     6     8    1
    33     6     9    1
