@<TRIPOS>MOLECULE
*****
 33 37 0 0 0
SMALL
GASTEIGER

@<TRIPOS>ATOM
      1 C           4.2326   -1.1078   24.1527 C.ar    1  UNL1        0.0722
      2 C           5.3231   -2.0187   24.6334 C.ar    1  UNL1        0.0828
      3 N           5.8435   -3.1034   23.7375 N.ar    1  UNL1       -0.2947
      4 C           5.2734   -3.2772   22.3610 C.ar    1  UNL1        0.2767
      5 O           5.7938   -4.3619   21.4652 O.2     1  UNL1       -0.2654
      6 C           4.1829   -2.3663   21.8804 C.ar    1  UNL1        0.1170
      7 C           3.6625   -1.2815   22.7762 C.ar    1  UNL1        0.0277
      8 C           2.5898   -0.5416   22.0333 C.ar    1  UNL1        0.0175
      9 C           1.7245    0.6225   22.4156 C.ar    1  UNL1        0.0015
     10 C           0.7166    1.1591   21.4429 C.ar    1  UNL1        0.0001
     11 C           0.5741    0.5317   20.0879 C.ar    1  UNL1        0.0015
     12 C           1.4395   -0.6323   19.7056 C.ar    1  UNL1        0.0172
     13 C           2.4473   -1.1690   20.6783 C.ar    1  UNL1        0.0601
     14 N           3.4319   -2.2967   20.5838 N.ar    1  UNL1       -0.3214
     15 C           3.6305   -3.1968   19.4004 C.3     1  UNL1        0.1306
     16 C           6.9340   -4.0143   24.2182 C.3     1  UNL1        0.0885
     17 C           6.8048   -5.0549   25.2907 C.3     1  UNL1        0.0227
     18 C           8.1361   -5.7283   25.4461 C.3     1  UNL1        0.0020
     19 C           9.0881   -5.1039   24.4695 C.3     1  UNL1        0.0020
     20 C           8.3452   -4.0446   23.7106 C.3     1  UNL1        0.0227
     21 N           2.7153   -0.3497   26.1208 N.am    1  UNL1       -0.2995
     22 C           3.7122   -0.0230   25.0486 C.2     1  UNL1        0.2474
     23 O           4.1887    1.3883   24.8724 O.2     1  UNL1       -0.2701
     24 H           2.4025   -1.2760   26.2365 H       1  UNL1        0.1498
     25 C           2.1949    0.7350   27.0167 C.3     1  UNL1        0.1056
     26 N          -0.3155    1.5213   27.4903 N.3     1  UNL1       -0.2737
     27 C          -1.3238    2.3520   26.7532 C.3     1  UNL1        0.0721
     28 C          -0.6995    2.8052   25.4668 C.3     1  UNL1        0.0188
     29 C           0.6946    2.2547   25.4089 C.3     1  UNL1        0.0191
     30 C           0.9319    1.4612   26.6595 C.3     1  UNL1        0.0771
     31 C          -1.3849   -0.3539   28.9361 C.3     1  UNL1        0.0173
     32 C          -0.5190    0.8658   28.8241 C.3     1  UNL1        0.0576
     33 C           0.1434    1.4300   30.0459 C.3     1  UNL1        0.0173
@<TRIPOS>BOND
     1    31    32    1
     2    32    33    1
     3    32    26    1
     4    26    27    1
     5    27    28    1
     6    28    29    1
     7    29    30    1
     8    30    25    1
     9    25    21    1
    10    21    22   am
    11    22    23    2
    12    22     1    1
    13     1     2   ar
    14     2     3   ar
    15     3    16    1
    16    16    17    1
    17    17    18    1
    18    18    19    1
    19    19    20    1
    20     3     4   ar
    21     4     5    2
    22     4     6   ar
    23     6     7   ar
    24     7     8   ar
    25     8     9   ar
    26     9    10   ar
    27    10    11   ar
    28    11    12   ar
    29    12    13   ar
    30    13    14   ar
    31    14    15    1
    32    30    26    1
    33     7     1   ar
    34    13     8   ar
    35    20    16    1
    36    14     6   ar
    37    21    24    1
@<TRIPOS>MOLECULE
*****
 33 37 0 0 0
SMALL
GASTEIGER

@<TRIPOS>ATOM
      1 C          -6.7945  -18.2133   22.3359 C.ar    1  UNL1        0.0722
      2 C          -6.5844  -17.4281   23.5966 C.ar    1  UNL1        0.0828
      3 N          -7.7439  -16.7396   24.2534 N.ar    1  UNL1       -0.2947
      4 C          -9.1136  -16.8364   23.6495 C.ar    1  UNL1        0.2767
      5 O         -10.2731  -16.1479   24.3063 O.2     1  UNL1       -0.2654
      6 C          -9.3237  -17.6216   22.3888 C.ar    1  UNL1        0.1170
      7 C          -8.1641  -18.3101   21.7320 C.ar    1  UNL1        0.0277
      8 C          -8.6732  -19.0072   20.5053 C.ar    1  UNL1        0.0175
      9 C          -7.9848  -19.8432   19.4675 C.ar    1  UNL1        0.0015
     10 C          -8.7706  -20.4216   18.3283 C.ar    1  UNL1        0.0001
     11 C         -10.2449  -20.1640   18.2269 C.ar    1  UNL1        0.0015
     12 C         -10.9332  -19.3279   19.2647 C.ar    1  UNL1        0.0172
     13 C         -10.1474  -18.7495   20.4039 C.ar    1  UNL1        0.0601
     14 N         -10.5494  -17.8932   21.5680 N.ar    1  UNL1       -0.3214
     15 C         -11.9341  -17.3958   21.8599 C.3     1  UNL1        0.1306
     16 C          -7.5339  -15.9543   25.5141 C.3     1  UNL1        0.0885
     17 C          -8.5613  -15.7026   26.5775 C.3     1  UNL1        0.0227
     18 C          -7.9219  -14.8757   27.6533 C.3     1  UNL1        0.0020
     19 C          -6.4993  -14.6163   27.2547 C.3     1  UNL1        0.0020
     20 C          -6.2595  -15.2830   25.9326 C.3     1  UNL1        0.0227
     21 N          -5.0210  -18.3201   20.4402 N.am    1  UNL1       -0.2995
     22 C          -5.6348  -18.9018   21.6791 C.2     1  UNL1        0.2474
     23 O          -5.0890  -20.1719   22.2613 O.2     1  UNL1       -0.2701
     24 H          -5.3793  -17.4865   20.0581 H       1  UNL1        0.1498
     25 C          -3.8614  -19.0086   19.7835 C.3     1  UNL1        0.1056
     26 N          -1.8962  -17.5040   20.7929 N.3     1  UNL1       -0.2737
     27 C          -0.5702  -17.0147   20.2906 C.3     1  UNL1        0.0721
     28 C          -0.3826  -17.5338   18.8959 C.3     1  UNL1        0.0188
     29 C          -1.5926  -18.3439   18.5361 C.3     1  UNL1        0.0191
     30 C          -2.5282  -18.3255   19.7085 C.3     1  UNL1        0.0771
     31 C          -2.3857  -18.2449   23.2345 C.3     1  UNL1        0.0173
     32 C          -2.4866  -17.2214   22.1425 C.3     1  UNL1        0.0576
     33 C          -3.1780  -15.9155   22.4002 C.3     1  UNL1        0.0173
@<TRIPOS>BOND
     1    31    32    1
     2    32    33    1
     3    32    26    1
     4    26    27    1
     5    27    28    1
     6    28    29    1
     7    29    30    1
     8    30    25    1
     9    25    21    1
    10    21    22   am
    11    22    23    2
    12    22     1    1
    13     1     2   ar
    14     2     3   ar
    15     3    16    1
    16    16    17    1
    17    17    18    1
    18    18    19    1
    19    19    20    1
    20     3     4   ar
    21     4     5    2
    22     4     6   ar
    23     6     7   ar
    24     7     8   ar
    25     8     9   ar
    26     9    10   ar
    27    10    11   ar
    28    11    12   ar
    29    12    13   ar
    30    13    14   ar
    31    14    15    1
    32    30    26    1
    33     7     1   ar
    34    13     8   ar
    35    20    16    1
    36    14     6   ar
    37    21    24    1
@<TRIPOS>MOLECULE
*****
 33 37 0 0 0
SMALL
GASTEIGER

@<TRIPOS>ATOM
      1 C           6.2802   -2.9153   26.0450 C.ar    1  UNL1        0.0722
      2 C           5.7413   -1.8256   26.9237 C.ar    1  UNL1        0.0828
      3 N           5.7923   -1.9712   28.4158 N.ar    1  UNL1       -0.2947
      4 C           6.3822   -3.2065   29.0290 C.ar    1  UNL1        0.2767
      5 O           6.4332   -3.3521   30.5211 O.2     1  UNL1       -0.2654
      6 C           6.9211   -4.2962   28.1503 C.ar    1  UNL1        0.1170
      7 C           6.8701   -4.1506   26.6582 C.ar    1  UNL1        0.0277
      8 C           7.4741   -5.3822   26.0513 C.ar    1  UNL1        0.0175
      9 C           7.6925   -5.7951   24.6260 C.ar    1  UNL1        0.0015
     10 C           8.3353   -7.1148   24.3176 C.ar    1  UNL1        0.0001
     11 C           8.7596   -8.0216   25.4346 C.ar    1  UNL1        0.0015
     12 C           8.5411   -7.6087   26.8600 C.ar    1  UNL1        0.0172
     13 C           7.8984   -6.2890   27.1683 C.ar    1  UNL1        0.0601
     14 N           7.5566   -5.6178   28.4655 N.ar    1  UNL1       -0.3214
     15 C           7.8065   -6.1711   29.8372 C.3     1  UNL1        0.1306
     16 C           5.2534   -0.8815   29.2946 C.3     1  UNL1        0.0885
     17 C           6.0692    0.1024   30.0797 C.3     1  UNL1        0.0227
     18 C           5.1242    1.0076   30.8128 C.3     1  UNL1        0.0020
     19 C           3.7243    0.5831   30.4808 C.3     1  UNL1        0.0020
     20 C           3.8042   -0.5844   29.5425 C.3     1  UNL1        0.0227
     21 N           5.1289   -3.4257   23.7725 N.am    1  UNL1       -0.2995
     22 C           6.2292   -2.7697   24.5529 C.2     1  UNL1        0.2474
     23 O           7.2784   -1.9680   23.8413 O.2     1  UNL1       -0.2701
     24 H           4.4402   -3.9519   24.2395 H       1  UNL1        0.1498
     25 C           5.0779   -3.2800   22.2804 C.3     1  UNL1        0.1056
     26 N           3.6474   -2.3789   20.2101 N.3     1  UNL1       -0.2737
     27 C           2.6198   -1.3030   20.0190 C.3     1  UNL1        0.0721
     28 C           2.4046   -0.6275   21.3408 C.3     1  UNL1        0.0188
     29 C           3.2993   -1.2858   22.3489 C.3     1  UNL1        0.0191
     30 C           4.0674   -2.3683   21.6500 C.3     1  UNL1        0.0771
     31 C           3.6665   -4.7163   19.0760 C.3     1  UNL1        0.0173
     32 C           4.1643   -3.3031   19.1477 C.3     1  UNL1        0.0576
     33 C           5.1790   -2.8143   18.1571 C.3     1  UNL1        0.0173
@<TRIPOS>BOND
     1    31    32    1
     2    32    33    1
     3    32    26    1
     4    26    27    1
     5    27    28    1
     6    28    29    1
     7    29    30    1
     8    30    25    1
     9    25    21    1
    10    21    22   am
    11    22    23    2
    12    22     1    1
    13     1     2   ar
    14     2     3   ar
    15     3    16    1
    16    16    17    1
    17    17    18    1
    18    18    19    1
    19    19    20    1
    20     3     4   ar
    21     4     5    2
    22     4     6   ar
    23     6     7   ar
    24     7     8   ar
    25     8     9   ar
    26     9    10   ar
    27    10    11   ar
    28    11    12   ar
    29    12    13   ar
    30    13    14   ar
    31    14    15    1
    32    30    26    1
    33     7     1   ar
    34    13     8   ar
    35    20    16    1
    36    14     6   ar
    37    21    24    1
@<TRIPOS>MOLECULE
*****
 33 37 0 0 0
SMALL
GASTEIGER

@<TRIPOS>ATOM
      1 C         -15.8964   -4.3412   18.7093 C.ar    1  UNL1        0.0722
      2 C         -16.6488   -5.6387   18.7321 C.ar    1  UNL1        0.0828
      3 N         -15.9033   -6.9391   18.6765 N.ar    1  UNL1       -0.2947
      4 C         -14.4054   -6.9421   18.5982 C.ar    1  UNL1        0.2767
      5 O         -13.6599   -8.2425   18.5426 O.2     1  UNL1       -0.2654
      6 C         -13.6530   -5.6446   18.5754 C.ar    1  UNL1        0.1170
      7 C         -14.3985   -4.3442   18.6310 C.ar    1  UNL1        0.0277
      8 C         -13.3932   -3.2315   18.5927 C.ar    1  UNL1        0.0175
      9 C         -13.5459   -1.7396   18.6198 C.ar    1  UNL1        0.0015
     10 C         -12.3317   -0.8604   18.5676 C.ar    1  UNL1        0.0001
     11 C         -10.9648   -1.4732   18.4883 C.ar    1  UNL1        0.0015
     12 C         -10.8122   -2.9651   18.4613 C.ar    1  UNL1        0.0172
     13 C         -12.0264   -3.8443   18.5135 C.ar    1  UNL1        0.0601
     14 N         -12.1870   -5.3356   18.5028 N.ar    1  UNL1       -0.3214
     15 C         -11.0764   -6.3415   18.4319 C.3     1  UNL1        0.1306
     16 C         -16.6558   -8.2365   18.6992 C.3     1  UNL1        0.0885
     17 C         -16.7275   -9.1941   19.8515 C.3     1  UNL1        0.0227
     18 C         -17.5846  -10.3536   19.4381 C.3     1  UNL1        0.0020
     19 C         -18.0426  -10.1126   18.0302 C.3     1  UNL1        0.0020
     20 C         -17.4686   -8.8042   17.5736 C.3     1  UNL1        0.0227
     21 N         -16.7801   -2.3105   20.0679 N.am    1  UNL1       -0.2995
     22 C         -16.6420   -3.0407   18.7649 C.2     1  UNL1        0.2474
     23 O         -17.2494   -2.4706   17.5176 O.2     1  UNL1       -0.2701
     24 H         -16.3814   -2.6848   20.8866 H       1  UNL1        0.1498
     25 C         -17.5257   -1.0101   20.1235 C.3     1  UNL1        0.1056
     26 N         -16.9824    1.5650   20.5909 N.3     1  UNL1       -0.2737
     27 C         -16.0749    2.5868   19.9725 C.3     1  UNL1        0.0721
     28 C         -15.3415    1.9307   18.8405 C.3     1  UNL1        0.0188
     29 C         -15.7956    0.5035   18.7592 C.3     1  UNL1        0.0191
     30 C         -16.8098    0.2774   19.8411 C.3     1  UNL1        0.0771
     31 C         -17.3366    2.1500   23.0974 C.3     1  UNL1        0.0173
     32 C         -17.9012    1.7911   21.7549 C.3     1  UNL1        0.0576
     33 C         -19.3846    1.6582   21.5763 C.3     1  UNL1        0.0173
@<TRIPOS>BOND
     1    31    32    1
     2    32    33    1
     3    32    26    1
     4    26    27    1
     5    27    28    1
     6    28    29    1
     7    29    30    1
     8    30    25    1
     9    25    21    1
    10    21    22   am
    11    22    23    2
    12    22     1    1
    13     1     2   ar
    14     2     3   ar
    15     3    16    1
    16    16    17    1
    17    17    18    1
    18    18    19    1
    19    19    20    1
    20     3     4   ar
    21     4     5    2
    22     4     6   ar
    23     6     7   ar
    24     7     8   ar
    25     8     9   ar
    26     9    10   ar
    27    10    11   ar
    28    11    12   ar
    29    12    13   ar
    30    13    14   ar
    31    14    15    1
    32    30    26    1
    33     7     1   ar
    34    13     8   ar
    35    20    16    1
    36    14     6   ar
    37    21    24    1
@<TRIPOS>MOLECULE
*****
 33 37 0 0 0
SMALL
GASTEIGER

@<TRIPOS>ATOM
      1 C           4.7470   -1.3947   24.6120 C.ar    1  UNL1        0.0722
      2 C           5.7697   -2.1981   25.3595 C.ar    1  UNL1        0.0828
      3 N           6.4253   -3.3759   24.7017 N.ar    1  UNL1       -0.2947
      4 C           6.0583   -3.7505   23.2964 C.ar    1  UNL1        0.2767
      5 O           6.7140   -4.9284   22.6386 O.2     1  UNL1       -0.2654
      6 C           5.0356   -2.9472   22.5489 C.ar    1  UNL1        0.1170
      7 C           4.3799   -1.7693   23.2067 C.ar    1  UNL1        0.0277
      8 C           3.4142   -1.1699   22.2278 C.ar    1  UNL1        0.0175
      9 C           2.4889    0.0068   22.3233 C.ar    1  UNL1        0.0015
     10 C           1.6224    0.3761   21.1559 C.ar    1  UNL1        0.0001
     11 C           1.6813   -0.4313   19.8931 C.ar    1  UNL1        0.0015
     12 C           2.6065   -1.6080   19.7977 C.ar    1  UNL1        0.0172
     13 C           3.4730   -1.9773   20.9651 C.ar    1  UNL1        0.0601
     14 N           4.4751   -3.0757   21.1635 N.ar    1  UNL1       -0.3214
     15 C           4.8507   -4.1194   20.1537 C.3     1  UNL1        0.1306
     16 C           7.4480   -4.1793   25.4493 C.3     1  UNL1        0.0885
     17 C           8.8777   -3.7893   25.6817 C.3     1  UNL1        0.0227
     18 C           9.5339   -4.8825   26.4716 C.3     1  UNL1        0.0020
     19 C           8.5097   -5.9483   26.7275 C.3     1  UNL1        0.0020
     20 C           7.2207   -5.5136   26.0956 C.3     1  UNL1        0.0227
     21 N           2.7122   -0.3504   25.8446 N.am    1  UNL1       -0.2995
     22 C           4.0913   -0.2168   25.2699 C.2     1  UNL1        0.2474
     23 O           4.8147    1.0945   25.3529 O.2     1  UNL1       -0.2701
     24 H           2.2374   -1.2111   25.7901 H       1  UNL1        0.1498
     25 C           2.0566    0.8275   26.5025 C.3     1  UNL1        0.1056
     26 N           0.8477    0.9117   28.8850 N.3     1  UNL1       -0.2737
     27 C           1.3094    1.0664   30.3038 C.3     1  UNL1        0.0721
     28 C           2.8035    1.1977   30.2933 C.3     1  UNL1        0.0188
     29 C           3.2654    1.1242   28.8681 C.3     1  UNL1        0.0191
     30 C           2.0565    0.9475   27.9977 C.3     1  UNL1        0.0771
     31 C          -1.3645   -0.4504   28.8614 C.3     1  UNL1        0.0173
     32 C          -0.5733    0.7497   28.4329 C.3     1  UNL1        0.0576
     33 C          -1.2032    1.7878   27.5523 C.3     1  UNL1        0.0173
@<TRIPOS>BOND
     1    31    32    1
     2    32    33    1
     3    32    26    1
     4    26    27    1
     5    27    28    1
     6    28    29    1
     7    29    30    1
     8    30    25    1
     9    25    21    1
    10    21    22   am
    11    22    23    2
    12    22     1    1
    13     1     2   ar
    14     2     3   ar
    15     3    16    1
    16    16    17    1
    17    17    18    1
    18    18    19    1
    19    19    20    1
    20     3     4   ar
    21     4     5    2
    22     4     6   ar
    23     6     7   ar
    24     7     8   ar
    25     8     9   ar
    26     9    10   ar
    27    10    11   ar
    28    11    12   ar
    29    12    13   ar
    30    13    14   ar
    31    14    15    1
    32    30    26    1
    33     7     1   ar
    34    13     8   ar
    35    20    16    1
    36    14     6   ar
    37    21    24    1
@<TRIPOS>MOLECULE
*****
 33 37 0 0 0
SMALL
GASTEIGER

@<TRIPOS>ATOM
      1 C           4.9988   -2.0868   24.8149 C.ar    1  UNL1        0.0722
      2 C           6.0553   -3.1516   24.8237 C.ar    1  UNL1        0.0828
      3 N           6.3564   -3.9197   23.5710 N.ar    1  UNL1       -0.2947
      4 C           5.6011   -3.6229   22.3095 C.ar    1  UNL1        0.2767
      5 O           5.9023   -4.3910   21.0567 O.2     1  UNL1       -0.2654
      6 C           4.5447   -2.5581   22.3007 C.ar    1  UNL1        0.1170
      7 C           4.2435   -1.7900   23.5534 C.ar    1  UNL1        0.0277
      8 C           3.1557   -0.8050   23.2430 C.ar    1  UNL1        0.0175
      9 C           2.4552    0.2164   24.0892 C.ar    1  UNL1        0.0015
     10 C           1.3834    1.0785   23.4907 C.ar    1  UNL1        0.0001
     11 C           1.0122    0.9192   22.0462 C.ar    1  UNL1        0.0015
     12 C           1.7127   -0.1022   21.2000 C.ar    1  UNL1        0.0172
     13 C           2.7845   -0.9643   21.7985 C.ar    1  UNL1        0.0601
     14 N           3.6429   -2.0478   21.2161 N.ar    1  UNL1       -0.3214
     15 C           3.6061   -2.5353   19.7980 C.3     1  UNL1        0.1306
     16 C           7.4129   -4.9846   23.5797 C.3     1  UNL1        0.0885
     17 C           8.5430   -5.1134   22.6020 C.3     1  UNL1        0.0227
     18 C           9.3533   -6.3159   22.9857 C.3     1  UNL1        0.0020
     19 C           8.7238   -6.9304   24.2007 C.3     1  UNL1        0.0020
     20 C           7.5246   -6.1076   24.5678 C.3     1  UNL1        0.0227
     21 N           3.4901   -1.6646   26.8875 N.am    1  UNL1       -0.2995
     22 C           4.6977   -1.3187   26.0677 C.2     1  UNL1        0.2474
     23 O           5.6042   -0.2049   26.5007 O.2     1  UNL1       -0.2701
     24 H           2.8951   -2.3957   26.6033 H       1  UNL1        0.1498
     25 C           3.1890   -0.8965   28.1403 C.3     1  UNL1        0.1056
     26 N           2.2226    1.5846   27.9048 N.3     1  UNL1       -0.2737
     27 C           0.8628    2.2081   28.0146 C.3     1  UNL1        0.0721
     28 C          -0.1214    1.1211   28.3306 C.3     1  UNL1        0.0188
     29 C           0.6302   -0.1742   28.4161 C.3     1  UNL1        0.0191
     30 C           2.0789    0.1123   28.1530 C.3     1  UNL1        0.0771
     31 C           3.7539    2.8356   26.2195 C.3     1  UNL1        0.0173
     32 C           3.5017    2.3066   27.6003 C.3     1  UNL1        0.0576
     33 C           4.5284    2.4998   28.6766 C.3     1  UNL1        0.0173
@<TRIPOS>BOND
     1    31    32    1
     2    32    33    1
     3    32    26    1
     4    26    27    1
     5    27    28    1
     6    28    29    1
     7    29    30    1
     8    30    25    1
     9    25    21    1
    10    21    22   am
    11    22    23    2
    12    22     1    1
    13     1     2   ar
    14     2     3   ar
    15     3    16    1
    16    16    17    1
    17    17    18    1
    18    18    19    1
    19    19    20    1
    20     3     4   ar
    21     4     5    2
    22     4     6   ar
    23     6     7   ar
    24     7     8   ar
    25     8     9   ar
    26     9    10   ar
    27    10    11   ar
    28    11    12   ar
    29    12    13   ar
    30    13    14   ar
    31    14    15    1
    32    30    26    1
    33     7     1   ar
    34    13     8   ar
    35    20    16    1
    36    14     6   ar
    37    21    24    1
@<TRIPOS>MOLECULE
*****
 33 37 0 0 0
SMALL
GASTEIGER

@<TRIPOS>ATOM
      1 C           3.4734   -0.6305   23.6279 C.ar    1  UNL1        0.0722
      2 C           4.0765   -1.5134   22.5759 C.ar    1  UNL1        0.0828
      3 N           3.5232   -1.5044   21.1817 N.ar    1  UNL1       -0.2947
      4 C           2.3668   -0.6125   20.8395 C.ar    1  UNL1        0.2767
      5 O           1.8134   -0.6035   19.4454 O.2     1  UNL1       -0.2654
      6 C           1.7636    0.2704   21.8916 C.ar    1  UNL1        0.1170
      7 C           2.3169    0.2614   23.2857 C.ar    1  UNL1        0.0277
      8 C           1.5218    1.2331   24.1064 C.ar    1  UNL1        0.0175
      9 C           1.6141    1.6416   25.5467 C.ar    1  UNL1        0.0015
     10 C           0.6616    2.6597   26.1000 C.ar    1  UNL1        0.0001
     11 C          -0.3832    3.2693   25.2129 C.ar    1  UNL1        0.0015
     12 C          -0.4755    2.8608   23.7726 C.ar    1  UNL1        0.0172
     13 C           0.4770    1.8427   23.2193 C.ar    1  UNL1        0.0601
     14 N           0.6265    1.2477   21.8505 N.ar    1  UNL1       -0.3214
     15 C          -0.2138    1.5729   20.6513 C.3     1  UNL1        0.1306
     16 C           4.1264   -2.3873   20.1297 C.3     1  UNL1        0.0885
     17 C           5.1159   -1.9643   19.0848 C.3     1  UNL1        0.0227
     18 C           5.4470   -3.1637   18.2472 C.3     1  UNL1        0.0020
     19 C           4.6620   -4.3282   18.7744 C.3     1  UNL1        0.0020
     20 C           3.8458   -3.8483   19.9378 C.3     1  UNL1        0.0227
     21 N           3.5361   -1.6491   26.0172 N.am    1  UNL1       -0.2995
     22 C           4.0268   -0.6396   25.0221 C.2     1  UNL1        0.2474
     23 O           5.0707    0.3609   25.4211 O.2     1  UNL1       -0.2701
     24 H           2.8510   -2.3057   25.7553 H       1  UNL1        0.1498
     25 C           4.0895   -1.6581   27.4114 C.3     1  UNL1        0.1056
     26 N           3.9801   -0.4819   29.8092 N.3     1  UNL1       -0.2737
     27 C           2.9169    0.2254   30.5962 C.3     1  UNL1        0.0721
     28 C           1.6597    0.2289   29.7780 C.3     1  UNL1        0.0188
     29 C           1.9459   -0.4763   28.4854 C.3     1  UNL1        0.0191
     30 C           3.3801   -0.9155   28.5047 C.3     1  UNL1        0.0771
     31 C           6.4113    0.3808   30.1179 C.3     1  UNL1        0.0173
     32 C           5.3951   -0.7146   30.2494 C.3     1  UNL1        0.0576
     33 C           5.7938   -2.0427   30.8213 C.3     1  UNL1        0.0173
@<TRIPOS>BOND
     1    31    32    1
     2    32    33    1
     3    32    26    1
     4    26    27    1
     5    27    28    1
     6    28    29    1
     7    29    30    1
     8    30    25    1
     9    25    21    1
    10    21    22   am
    11    22    23    2
    12    22     1    1
    13     1     2   ar
    14     2     3   ar
    15     3    16    1
    16    16    17    1
    17    17    18    1
    18    18    19    1
    19    19    20    1
    20     3     4   ar
    21     4     5    2
    22     4     6   ar
    23     6     7   ar
    24     7     8   ar
    25     8     9   ar
    26     9    10   ar
    27    10    11   ar
    28    11    12   ar
    29    12    13   ar
    30    13    14   ar
    31    14    15    1
    32    30    26    1
    33     7     1   ar
    34    13     8   ar
    35    20    16    1
    36    14     6   ar
    37    21    24    1
@<TRIPOS>MOLECULE
*****
 33 37 0 0 0
SMALL
GASTEIGER

@<TRIPOS>ATOM
      1 C           4.9399   -1.7096   25.1554 C.ar    1  UNL1        0.0722
      2 C           4.5895   -1.3842   23.7337 C.ar    1  UNL1        0.0828
      3 N           5.1199   -2.2338   22.6172 N.ar    1  UNL1       -0.2947
      4 C           6.0007   -3.4090   22.9223 C.ar    1  UNL1        0.2767
      5 O           6.5311   -4.2586   21.8058 O.2     1  UNL1       -0.2654
      6 C           6.3512   -3.7344   24.3440 C.ar    1  UNL1        0.1170
      7 C           5.8208   -2.8848   25.4606 C.ar    1  UNL1        0.0277
      8 C           6.3329   -3.4461   26.7539 C.ar    1  UNL1        0.0175
      9 C           6.1375   -3.0223   28.1794 C.ar    1  UNL1        0.0015
     10 C           6.7891   -3.7951   29.2876 C.ar    1  UNL1        0.0001
     11 C           7.6360   -4.9918   28.9703 C.ar    1  UNL1        0.0015
     12 C           7.8314   -5.4156   27.5448 C.ar    1  UNL1        0.0172
     13 C           7.1799   -4.6428   26.4366 C.ar    1  UNL1        0.0601
     14 N           7.1912   -4.8210   24.9473 N.ar    1  UNL1       -0.3214
     15 C           7.9153   -5.8968   24.1935 C.3     1  UNL1        0.1306
     16 C           4.7695   -1.9084   21.1954 C.3     1  UNL1        0.0885
     17 C           5.6552   -1.2098   20.2068 C.3     1  UNL1        0.0227
     18 C           4.9049   -1.0940   18.9131 C.3     1  UNL1        0.0020
     19 C           3.5555   -1.7211   19.1022 C.3     1  UNL1        0.0020
     20 C           3.4717   -2.2244   20.5127 C.3     1  UNL1        0.0227
     21 N           3.2147   -1.3136   27.0573 N.am    1  UNL1       -0.2995
     22 C           4.4095   -0.8599   26.2720 C.2     1  UNL1        0.2474
     23 O           5.0739    0.4435   26.6033 O.2     1  UNL1       -0.2701
     24 H           2.7786   -2.1691   26.8398 H       1  UNL1        0.1498
     25 C           2.6843   -0.4639   28.1738 C.3     1  UNL1        0.1056
     26 N           0.8008    1.0600   27.0445 N.3     1  UNL1       -0.2737
     27 C          -0.6367    1.3662   27.3446 C.3     1  UNL1        0.0721
     28 C          -1.0264    0.6018   28.5750 C.3     1  UNL1        0.0188
     29 C           0.1702   -0.1768   29.0354 C.3     1  UNL1        0.0191
     30 C           1.2995    0.1064   28.0895 C.3     1  UNL1        0.0771
     31 C           2.4757    2.8106   26.1063 C.3     1  UNL1        0.0173
     32 C           1.5993    1.6107   25.9004 C.3     1  UNL1        0.0576
     33 C           1.5216    0.9617   24.5504 C.3     1  UNL1        0.0173
@<TRIPOS>BOND
     1    31    32    1
     2    32    33    1
     3    32    26    1
     4    26    27    1
     5    27    28    1
     6    28    29    1
     7    29    30    1
     8    30    25    1
     9    25    21    1
    10    21    22   am
    11    22    23    2
    12    22     1    1
    13     1     2   ar
    14     2     3   ar
    15     3    16    1
    16    16    17    1
    17    17    18    1
    18    18    19    1
    19    19    20    1
    20     3     4   ar
    21     4     5    2
    22     4     6   ar
    23     6     7   ar
    24     7     8   ar
    25     8     9   ar
    26     9    10   ar
    27    10    11   ar
    28    11    12   ar
    29    12    13   ar
    30    13    14   ar
    31    14    15    1
    32    30    26    1
    33     7     1   ar
    34    13     8   ar
    35    20    16    1
    36    14     6   ar
    37    21    24    1
@<TRIPOS>MOLECULE
*****
 33 37 0 0 0
SMALL
GASTEIGER

@<TRIPOS>ATOM
      1 C         -15.2923   -5.6781   19.0536 C.ar    1  UNL1        0.0722
      2 C         -14.0721   -6.5089   18.7873 C.ar    1  UNL1        0.0828
      3 N         -12.7279   -5.8528   18.6746 N.ar    1  UNL1       -0.2947
      4 C         -12.6039   -4.3659   18.8283 C.ar    1  UNL1        0.2767
      5 O         -11.2597   -3.7098   18.7156 O.2     1  UNL1       -0.2654
      6 C         -13.8241   -3.5351   19.0946 C.ar    1  UNL1        0.1170
      7 C         -15.1683   -4.1912   19.2073 C.ar    1  UNL1        0.0277
      8 C         -16.1856   -3.1213   19.4727 C.ar    1  UNL1        0.0175
      9 C         -17.6709   -3.1764   19.6743 C.ar    1  UNL1        0.0015
     10 C         -18.4408   -1.9142   19.9272 C.ar    1  UNL1        0.0001
     11 C         -17.7254   -0.5968   19.9786 C.ar    1  UNL1        0.0015
     12 C         -16.2400   -0.5417   19.7771 C.ar    1  UNL1        0.0172
     13 C         -15.4701   -1.8039   19.5241 C.ar    1  UNL1        0.0601
     14 N         -14.0107   -2.0596   19.2904 N.ar    1  UNL1       -0.3214
     15 C         -12.9279   -1.0221   19.2582 C.3     1  UNL1        0.1306
     16 C         -11.5077   -6.6836   18.4083 C.3     1  UNL1        0.0885
     17 C         -11.3767   -7.7463   17.3579 C.3     1  UNL1        0.0227
     18 C          -9.9924   -8.3171   17.4459 C.3     1  UNL1        0.0020
     19 C          -9.2678   -7.6071   18.5509 C.3     1  UNL1        0.0020
     20 C         -10.2043   -6.5976   19.1456 C.3     1  UNL1        0.0227
     21 N         -16.8350   -7.4791   20.1150 N.am    1  UNL1       -0.2995
     22 C         -16.6365   -6.3343   19.1663 C.2     1  UNL1        0.2474
     23 O         -17.7820   -5.8456   18.3303 O.2     1  UNL1       -0.2701
     24 H         -16.0831   -7.7999   20.6637 H       1  UNL1        0.1498
     25 C         -18.1792   -8.1353   20.2276 C.3     1  UNL1        0.1056
     26 N         -18.2032   -9.8613   18.1867 N.3     1  UNL1       -0.2737
     27 C         -19.1709  -10.1934   17.0897 C.3     1  UNL1        0.0721
     28 C         -20.3721   -9.3090   17.2478 C.3     1  UNL1        0.0188
     29 C         -20.1468   -8.4304   18.4425 C.3     1  UNL1        0.0191
     30 C         -18.8063   -8.7717   19.0228 C.3     1  UNL1        0.0771
     31 C         -15.6168   -9.8193   17.9440 C.3     1  UNL1        0.0173
     32 C         -16.8670  -10.5057   18.4087 C.3     1  UNL1        0.0576
     33 C         -16.7808  -11.8365   19.0954 C.3     1  UNL1        0.0173
@<TRIPOS>BOND
     1    31    32    1
     2    32    33    1
     3    32    26    1
     4    26    27    1
     5    27    28    1
     6    28    29    1
     7    29    30    1
     8    30    25    1
     9    25    21    1
    10    21    22   am
    11    22    23    2
    12    22     1    1
    13     1     2   ar
    14     2     3   ar
    15     3    16    1
    16    16    17    1
    17    17    18    1
    18    18    19    1
    19    19    20    1
    20     3     4   ar
    21     4     5    2
    22     4     6   ar
    23     6     7   ar
    24     7     8   ar
    25     8     9   ar
    26     9    10   ar
    27    10    11   ar
    28    11    12   ar
    29    12    13   ar
    30    13    14   ar
    31    14    15    1
    32    30    26    1
    33     7     1   ar
    34    13     8   ar
    35    20    16    1
    36    14     6   ar
    37    21    24    1
