@<TRIPOS>MOLECULE
*****
 24 25 0 0 0
SMALL
GASTEIGER

@<TRIPOS>ATOM
      1 C          -8.4469  -19.3593   20.4718 C.2     1  UNL1        0.1987
      2 O          -8.5083  -20.2472   19.2643 O.2     1  UNL1       -0.2865
      3 C          -9.7138  -18.9097   21.1372 C.ar    1  UNL1        0.0758
      4 C         -10.6186  -17.9335   20.4456 C.ar    1  UNL1        0.0463
      5 C         -11.8855  -17.4838   21.1110 C.ar    1  UNL1        0.1727
      6 C         -12.2475  -18.0103   22.4682 C.ar    1  UNL1        0.1754
      7 C         -11.3427  -18.9865   23.1598 C.ar    1  UNL1        0.0767
      8 C         -10.0758  -19.4361   22.4943 C.ar    1  UNL1        0.1399
      9 O          -9.1709  -20.4123   23.1859 O.3     1  UNL1       -0.5053
     10 H          -9.3971  -20.7412   24.0337 H       1  UNL1        0.2922
     11 O         -12.7903  -16.5077   20.4193 O.3     1  UNL1       -0.4684
     12 C         -12.2580  -15.6454   19.3135 C.3     1  UNL1        0.2526
     13 O         -13.5144  -17.5606   23.1336 O.3     1  UNL1       -0.4683
     14 C         -13.9844  -18.2378   24.3868 C.3     1  UNL1        0.2526
     15 C          -5.8665  -19.6343   20.5973 C.2     1  UNL1        0.0034
     16 C          -7.1186  -18.9212   21.0138 C.2     1  UNL1        0.0421
     17 C          -1.9792  -18.8701   20.8312 C.ar    1  UNL1        0.1387
     18 C          -1.8817  -18.3199   22.2233 C.ar    1  UNL1        0.0369
     19 C          -3.1125  -18.2078   23.0733 C.ar    1  UNL1        0.0031
     20 C          -4.4407  -18.6460   22.5314 C.ar    1  UNL1        0.0002
     21 C          -4.5382  -19.1961   21.1394 C.ar    1  UNL1        0.0031
     22 C          -3.3074  -19.3082   20.2893 C.ar    1  UNL1        0.0369
     23 C           0.1667  -17.8036   19.8274 C.3     1  UNL1        0.2525
     24 O          -0.7484  -18.9821   19.9812 O.3     1  UNL1       -0.4714
@<TRIPOS>BOND
     1    23    24    1
     2    24    17    1
     3    17    18   ar
     4    18    19   ar
     5    19    20   ar
     6    20    21   ar
     7    21    15    1
     8    15    16    2
     9    16     1    1
    10     1     2    2
    11     1     3    1
    12     3     4   ar
    13     4     5   ar
    14     5    11    1
    15    11    12    1
    16     5     6   ar
    17     6    13    1
    18    13    14    1
    19     6     7   ar
    20     7     8   ar
    21     8     9    1
    22    21    22   ar
    23    22    17   ar
    24     8     3   ar
    25     9    10    1
@<TRIPOS>MOLECULE
*****
 24 25 0 0 0
SMALL
GASTEIGER

@<TRIPOS>ATOM
      1 C          -6.8069  -20.3553   22.3976 C.2     1  UNL1        0.1987
      2 O          -6.8402  -21.5927   23.2448 O.2     1  UNL1       -0.2865
      3 C          -5.5306  -19.9383   21.7290 C.ar    1  UNL1        0.0758
      4 C          -4.6111  -18.9667   22.4075 C.ar    1  UNL1        0.0463
      5 C          -3.3348  -18.5497   21.7389 C.ar    1  UNL1        0.1727
      6 C          -2.9780  -19.1043   20.3916 C.ar    1  UNL1        0.1754
      7 C          -3.8975  -20.0759   19.7130 C.ar    1  UNL1        0.0767
      8 C          -5.1739  -20.4929   20.3817 C.ar    1  UNL1        0.1399
      9 O          -6.0934  -21.4645   19.7032 O.3     1  UNL1       -0.5053
     10 H          -5.8705  -21.8110   18.8616 H       1  UNL1        0.2922
     11 O          -2.4153  -17.5780   22.4174 O.3     1  UNL1       -0.4684
     12 C          -2.3267  -16.1627   21.9287 C.3     1  UNL1        0.2526
     13 O          -1.7017  -18.6873   19.7229 O.3     1  UNL1       -0.4683
     14 C          -1.7346  -17.7027   18.5918 C.3     1  UNL1        0.2526
     15 C          -9.3039  -19.9034   22.9551 C.2     1  UNL1        0.0034
     16 C          -8.0500  -19.5349   22.2192 C.2     1  UNL1        0.0421
     17 C         -12.0798  -17.6183   21.2749 C.ar    1  UNL1        0.1387
     18 C         -13.0329  -17.4422   22.4196 C.ar    1  UNL1        0.0369
     19 C         -12.7431  -18.0864   23.7429 C.ar    1  UNL1        0.0031
     20 C         -11.5001  -18.9068   23.9214 C.ar    1  UNL1        0.0002
     21 C         -10.5470  -19.0830   22.7767 C.ar    1  UNL1        0.0031
     22 C         -10.8368  -18.4387   21.4534 C.ar    1  UNL1        0.0369
     23 C         -11.5639  -15.7921   19.5005 C.3     1  UNL1        0.2525
     24 O         -12.3696  -16.9741   19.9517 O.3     1  UNL1       -0.4714
@<TRIPOS>BOND
     1    23    24    1
     2    24    17    1
     3    17    18   ar
     4    18    19   ar
     5    19    20   ar
     6    20    21   ar
     7    21    15    1
     8    15    16    2
     9    16     1    1
    10     1     2    2
    11     1     3    1
    12     3     4   ar
    13     4     5   ar
    14     5    11    1
    15    11    12    1
    16     5     6   ar
    17     6    13    1
    18    13    14    1
    19     6     7   ar
    20     7     8   ar
    21     8     9    1
    22    21    22   ar
    23    22    17   ar
    24     8     3   ar
    25     9    10    1
@<TRIPOS>MOLECULE
*****
 24 25 0 0 0
SMALL
GASTEIGER

@<TRIPOS>ATOM
      1 C          -7.9267  -16.4637   23.7788 C.2     1  UNL1        0.1987
      2 O          -7.5946  -15.3043   24.6707 O.2     1  UNL1       -0.2865
      3 C          -9.3526  -16.8994   23.6146 C.ar    1  UNL1        0.0758
      4 C         -10.1617  -16.3964   22.4560 C.ar    1  UNL1        0.0463
      5 C         -11.5876  -16.8320   22.2917 C.ar    1  UNL1        0.1727
      6 C         -12.2044  -17.7706   23.2861 C.ar    1  UNL1        0.1754
      7 C         -11.3953  -18.2735   24.4447 C.ar    1  UNL1        0.0767
      8 C          -9.9693  -17.8379   24.6089 C.ar    1  UNL1        0.1399
      9 O          -9.1601  -18.3408   25.7675 O.3     1  UNL1       -0.5053
     10 H          -9.5454  -18.9271   26.3886 H       1  UNL1        0.2922
     11 O         -12.3967  -16.3291   21.1331 O.3     1  UNL1       -0.4684
     12 C         -11.7249  -16.0147   19.8294 C.3     1  UNL1        0.2526
     13 O         -13.6303  -18.2062   23.1218 O.3     1  UNL1       -0.4683
     14 C         -14.5301  -18.2947   24.3187 C.3     1  UNL1        0.2526
     15 C          -7.1105  -18.5126   22.4055 C.2     1  UNL1        0.0034
     16 C          -6.8327  -17.1876   23.0511 C.2     1  UNL1        0.0421
     17 C          -3.4869  -19.6529   21.2570 C.ar    1  UNL1        0.1387
     18 C          -3.8287  -20.6839   20.2226 C.ar    1  UNL1        0.0369
     19 C          -5.2645  -20.9912   19.9158 C.ar    1  UNL1        0.0031
     20 C          -6.3584  -20.2675   20.6434 C.ar    1  UNL1        0.0002
     21 C          -6.0166  -19.2365   21.6778 C.ar    1  UNL1        0.0031
     22 C          -4.5808  -18.9292   21.9846 C.ar    1  UNL1        0.0369
     23 C          -1.3912  -18.1496   20.9442 C.3     1  UNL1        0.2525
     24 O          -2.0511  -19.3456   21.5638 O.3     1  UNL1       -0.4714
@<TRIPOS>BOND
     1    23    24    1
     2    24    17    1
     3    17    18   ar
     4    18    19   ar
     5    19    20   ar
     6    20    21   ar
     7    21    15    1
     8    15    16    2
     9    16     1    1
    10     1     2    2
    11     1     3    1
    12     3     4   ar
    13     4     5   ar
    14     5    11    1
    15    11    12    1
    16     5     6   ar
    17     6    13    1
    18    13    14    1
    19     6     7   ar
    20     7     8   ar
    21     8     9    1
    22    21    22   ar
    23    22    17   ar
    24     8     3   ar
    25     9    10    1
@<TRIPOS>MOLECULE
*****
 24 25 0 0 0
SMALL
GASTEIGER

@<TRIPOS>ATOM
      1 C         -11.9413   -5.7064   19.0138 C.2     1  UNL1        0.1987
      2 O         -10.5818   -6.3326   18.9149 O.2     1  UNL1       -0.2865
      3 C         -12.1033   -4.2293   18.8091 C.ar    1  UNL1        0.0758
      4 C         -13.4419   -3.6666   18.4329 C.ar    1  UNL1        0.0463
      5 C         -13.6039   -2.1895   18.2282 C.ar    1  UNL1        0.1727
      6 C         -12.4273   -1.2750   18.3998 C.ar    1  UNL1        0.1754
      7 C         -11.0887   -1.8377   18.7760 C.ar    1  UNL1        0.0767
      8 C         -10.9267   -3.3149   18.9807 C.ar    1  UNL1        0.1399
      9 O          -9.5881   -3.8775   19.3569 O.3     1  UNL1       -0.5053
     10 H          -8.8531   -3.3063   19.4641 H       1  UNL1        0.2922
     11 O         -14.9425   -1.6269   17.8520 O.3     1  UNL1       -0.4684
     12 C         -16.1803   -2.1041   18.5520 C.3     1  UNL1        0.2526
     13 O         -12.5893    0.2020   18.1951 O.3     1  UNL1       -0.4683
     14 C         -11.8348    0.8945   17.0992 C.3     1  UNL1        0.2526
     15 C         -13.7511   -7.4022   18.2400 C.2     1  UNL1        0.0034
     16 C         -13.1387   -6.5573   19.3175 C.2     1  UNL1        0.0421
     17 C         -17.2157   -8.5927   19.7660 C.ar    1  UNL1        0.1387
     18 C         -17.3433   -9.9548   19.1510 C.ar    1  UNL1        0.0369
     19 C         -16.2735  -10.4661   18.2322 C.ar    1  UNL1        0.0031
     20 C         -15.0761   -9.6152   17.9286 C.ar    1  UNL1        0.0002
     21 C         -14.9485   -8.2531   18.5436 C.ar    1  UNL1        0.0031
     22 C         -16.0183   -7.7419   19.4624 C.ar    1  UNL1        0.0369
     23 C         -19.6768   -7.8639   20.1682 C.3     1  UNL1        0.2525
     24 O         -18.2856   -8.0815   20.6848 O.3     1  UNL1       -0.4714
@<TRIPOS>BOND
     1    23    24    1
     2    24    17    1
     3    17    18   ar
     4    18    19   ar
     5    19    20   ar
     6    20    21   ar
     7    21    15    1
     8    15    16    2
     9    16     1    1
    10     1     2    2
    11     1     3    1
    12     3     4   ar
    13     4     5   ar
    14     5    11    1
    15    11    12    1
    16     5     6   ar
    17     6    13    1
    18    13    14    1
    19     6     7   ar
    20     7     8   ar
    21     8     9    1
    22    21    22   ar
    23    22    17   ar
    24     8     3   ar
    25     9    10    1
@<TRIPOS>MOLECULE
*****
 24 25 0 0 0
SMALL
GASTEIGER

@<TRIPOS>ATOM
      1 C          -9.8609  -17.9130   20.5562 C.2     1  UNL1        0.1987
      2 O         -10.4531  -17.5372   19.2302 O.2     1  UNL1       -0.2865
      3 C         -10.7517  -18.1085   21.7471 C.ar    1  UNL1        0.0758
      4 C         -10.2517  -18.8656   22.9415 C.ar    1  UNL1        0.0463
      5 C         -11.1424  -19.0611   24.1324 C.ar    1  UNL1        0.1727
      6 C         -12.5334  -18.4995   24.1289 C.ar    1  UNL1        0.1754
      7 C         -13.0334  -17.7423   22.9344 C.ar    1  UNL1        0.0767
      8 C         -12.1426  -17.5468   21.7435 C.ar    1  UNL1        0.1399
      9 O         -12.6426  -16.7897   20.5491 O.3     1  UNL1       -0.5053
     10 H         -13.5115  -16.4388   20.5469 H       1  UNL1        0.2922
     11 O         -10.6424  -19.8183   25.3268 O.3     1  UNL1       -0.4684
     12 C          -9.7591  -21.0161   25.1396 C.3     1  UNL1        0.2526
     13 O         -13.4241  -18.6950   25.3198 O.3     1  UNL1       -0.4683
     14 C         -14.8962  -18.4299   25.2068 C.3     1  UNL1        0.2526
     15 C          -7.7853  -19.4710   20.6759 C.2     1  UNL1        0.0034
     16 C          -8.3779  -18.0932   20.6912 C.2     1  UNL1        0.0421
     17 C          -4.0542  -19.0238   21.9521 C.ar    1  UNL1        0.1387
     18 C          -3.3363  -20.0116   21.0810 C.ar    1  UNL1        0.0369
     19 C          -4.1014  -20.8192   20.0748 C.ar    1  UNL1        0.0031
     20 C          -5.5844  -20.6390   19.9398 C.ar    1  UNL1        0.0002
     21 C          -6.3023  -19.6513   20.8109 C.ar    1  UNL1        0.0031
     22 C          -5.5372  -18.8437   21.8171 C.ar    1  UNL1        0.0369
     23 C          -2.5348  -16.9951   22.5227 C.3     1  UNL1        0.2525
     24 O          -3.2891  -18.2162   22.9583 O.3     1  UNL1       -0.4714
@<TRIPOS>BOND
     1    23    24    1
     2    24    17    1
     3    17    18   ar
     4    18    19   ar
     5    19    20   ar
     6    20    21   ar
     7    21    15    1
     8    15    16    2
     9    16     1    1
    10     1     2    2
    11     1     3    1
    12     3     4   ar
    13     4     5   ar
    14     5    11    1
    15    11    12    1
    16     5     6   ar
    17     6    13    1
    18    13    14    1
    19     6     7   ar
    20     7     8   ar
    21     8     9    1
    22    21    22   ar
    23    22    17   ar
    24     8     3   ar
    25     9    10    1
@<TRIPOS>MOLECULE
*****
 24 25 0 0 0
SMALL
GASTEIGER

@<TRIPOS>ATOM
      1 C         -13.3982   -6.3056   18.7108 C.2     1  UNL1        0.1987
      2 O         -12.3074   -7.2962   18.9913 O.2     1  UNL1       -0.2865
      3 C         -14.8238   -6.6508   19.0248 C.ar    1  UNL1        0.0758
      4 C         -15.8426   -5.5610   19.1805 C.ar    1  UNL1        0.0463
      5 C         -17.2681   -5.9062   19.4945 C.ar    1  UNL1        0.1727
      6 C         -17.6749   -7.3413   19.6529 C.ar    1  UNL1        0.1754
      7 C         -16.6560   -8.4312   19.4972 C.ar    1  UNL1        0.0767
      8 C         -15.2305   -8.0859   19.1831 C.ar    1  UNL1        0.1399
      9 O         -14.2116   -9.1757   19.0274 O.3     1  UNL1       -0.5053
     10 H         -14.4657  -10.0722   19.1263 H       1  UNL1        0.2922
     11 O         -18.2869   -4.8163   19.6503 O.3     1  UNL1       -0.4684
     12 C         -17.8572   -3.4427   20.0725 C.3     1  UNL1        0.2526
     13 O         -19.1004   -7.6866   19.9669 O.3     1  UNL1       -0.4683
     14 C         -19.8805   -8.5689   19.0380 C.3     1  UNL1        0.2526
     15 C         -12.1750   -4.0184   18.8615 C.2     1  UNL1        0.0034
     16 C         -13.0635   -4.9697   18.1162 C.2     1  UNL1        0.0421
     17 C         -12.2510   -0.1218   18.1129 C.ar    1  UNL1        0.1387
     18 C         -11.1710   -0.0108   17.0779 C.ar    1  UNL1        0.0369
     19 C         -10.4257   -1.2358   16.6375 C.ar    1  UNL1        0.0031
     20 C         -10.7603   -2.5716   17.2320 C.ar    1  UNL1        0.0002
     21 C         -11.8403   -2.6825   18.2669 C.ar    1  UNL1        0.0031
     22 C         -12.5857   -1.4576   18.7074 C.ar    1  UNL1        0.0369
     23 C         -14.4341    1.2858   18.1667 C.3     1  UNL1        0.2525
     24 O         -12.9964    1.1032   18.5533 O.3     1  UNL1       -0.4714
@<TRIPOS>BOND
     1    23    24    1
     2    24    17    1
     3    17    18   ar
     4    18    19   ar
     5    19    20   ar
     6    20    21   ar
     7    21    15    1
     8    15    16    2
     9    16     1    1
    10     1     2    2
    11     1     3    1
    12     3     4   ar
    13     4     5   ar
    14     5    11    1
    15    11    12    1
    16     5     6   ar
    17     6    13    1
    18    13    14    1
    19     6     7   ar
    20     7     8   ar
    21     8     9    1
    22    21    22   ar
    23    22    17   ar
    24     8     3   ar
    25     9    10    1
@<TRIPOS>MOLECULE
*****
 24 25 0 0 0
SMALL
GASTEIGER

@<TRIPOS>ATOM
      1 C         -14.4665   -3.3035   19.8379 C.2     1  UNL1        0.1987
      2 O         -14.6022   -1.9332   20.4328 O.2     1  UNL1       -0.2865
      3 C         -13.3261   -3.6101   18.9130 C.ar    1  UNL1        0.0758
      4 C         -12.1678   -4.4312   19.3970 C.ar    1  UNL1        0.0463
      5 C         -11.0274   -4.7377   18.4722 C.ar    1  UNL1        0.1727
      6 C         -11.0452   -4.2232   17.0632 C.ar    1  UNL1        0.1754
      7 C         -12.2034   -3.4021   16.5792 C.ar    1  UNL1        0.0767
      8 C         -13.3439   -3.0955   17.5042 C.ar    1  UNL1        0.1399
      9 O         -14.5021   -2.2744   17.0202 O.3     1  UNL1       -0.5053
     10 H         -14.5133   -1.9530   16.1401 H       1  UNL1        0.2922
     11 O          -9.8691   -5.5588   18.9561 O.3     1  UNL1       -0.4684
     12 C          -9.9022   -7.0527   18.8253 C.3     1  UNL1        0.2526
     13 O          -9.9047   -4.5297   16.1384 O.3     1  UNL1       -0.4683
     14 C          -8.7793   -3.5500   15.9851 C.3     1  UNL1        0.2526
     15 C         -15.9480   -5.3061   19.0995 C.2     1  UNL1        0.0034
     16 C         -15.4713   -4.3673   20.1679 C.2     1  UNL1        0.0421
     17 C         -17.5412   -8.8743   19.7921 C.ar    1  UNL1        0.1387
     18 C         -18.9623   -8.4973   20.0895 C.ar    1  UNL1        0.0369
     19 C         -19.3786   -7.0566   20.0569 C.ar    1  UNL1        0.0031
     20 C         -18.3738   -5.9929   19.7269 C.ar    1  UNL1        0.0002
     21 C         -16.9528   -6.3698   19.4295 C.ar    1  UNL1        0.0031
     22 C         -16.5365   -7.8105   19.4621 C.ar    1  UNL1        0.0369
     23 C         -16.7606  -11.0194   18.5515 C.3     1  UNL1        0.2525
     24 O         -17.1249  -10.3150   19.8247 O.3     1  UNL1       -0.4714
@<TRIPOS>BOND
     1    23    24    1
     2    24    17    1
     3    17    18   ar
     4    18    19   ar
     5    19    20   ar
     6    20    21   ar
     7    21    15    1
     8    15    16    2
     9    16     1    1
    10     1     2    2
    11     1     3    1
    12     3     4   ar
    13     4     5   ar
    14     5    11    1
    15    11    12    1
    16     5     6   ar
    17     6    13    1
    18    13    14    1
    19     6     7   ar
    20     7     8   ar
    21     8     9    1
    22    21    22   ar
    23    22    17   ar
    24     8     3   ar
    25     9    10    1
@<TRIPOS>MOLECULE
*****
 24 25 0 0 0
SMALL
GASTEIGER

@<TRIPOS>ATOM
      1 C         -13.2705   -5.6187   18.8940 C.2     1  UNL1        0.1987
      2 O         -11.8083   -5.8366   19.1480 O.2     1  UNL1       -0.2865
      3 C         -14.2142   -6.7846   18.8967 C.ar    1  UNL1        0.0758
      4 C         -15.5624   -6.6568   19.5418 C.ar    1  UNL1        0.0463
      5 C         -16.5060   -7.8227   19.5446 C.ar    1  UNL1        0.1727
      6 C         -16.1016   -9.1165   18.9022 C.ar    1  UNL1        0.1754
      7 C         -14.7534   -9.2443   18.2571 C.ar    1  UNL1        0.0767
      8 C         -13.8097   -8.0783   18.2544 C.ar    1  UNL1        0.1399
      9 O         -12.4616   -8.2061   17.6093 O.3     1  UNL1       -0.5053
     10 H         -12.2089   -9.0143   17.2081 H       1  UNL1        0.2922
     11 O         -17.8542   -7.6949   20.1897 O.3     1  UNL1       -0.4684
     12 C         -18.8999   -6.8136   19.5735 C.3     1  UNL1        0.2526
     13 O         -17.0453  -10.2824   18.9050 O.3     1  UNL1       -0.4683
     14 C         -18.1751  -10.3351   17.9197 C.3     1  UNL1        0.2526
     15 C         -13.7767   -3.2134   19.7357 C.2     1  UNL1        0.0034
     16 C         -13.7890   -4.2347   18.6372 C.2     1  UNL1        0.0421
     17 C         -16.0943    0.0059   19.8596 C.ar    1  UNL1        0.1387
     18 C         -15.3321    0.9384   18.9655 C.ar    1  UNL1        0.0369
     19 C         -14.0515    0.4870   18.3281 C.ar    1  UNL1        0.0031
     20 C         -13.5330   -0.8969   18.5848 C.ar    1  UNL1        0.0002
     21 C         -14.2952   -1.8294   19.4789 C.ar    1  UNL1        0.0031
     22 C         -15.5758   -1.3780   20.1164 C.ar    1  UNL1        0.0369
     23 C         -18.6397   -0.3158   20.2683 C.3     1  UNL1        0.2525
     24 O         -17.3749    0.4572   20.4971 O.3     1  UNL1       -0.4714
@<TRIPOS>BOND
     1    23    24    1
     2    24    17    1
     3    17    18   ar
     4    18    19   ar
     5    19    20   ar
     6    20    21   ar
     7    21    15    1
     8    15    16    2
     9    16     1    1
    10     1     2    2
    11     1     3    1
    12     3     4   ar
    13     4     5   ar
    14     5    11    1
    15    11    12    1
    16     5     6   ar
    17     6    13    1
    18    13    14    1
    19     6     7   ar
    20     7     8   ar
    21     8     9    1
    22    21    22   ar
    23    22    17   ar
    24     8     3   ar
    25     9    10    1
@<TRIPOS>MOLECULE
*****
 24 25 0 0 0
SMALL
GASTEIGER

@<TRIPOS>ATOM
      1 C           7.6316   -4.5258   22.5973 C.2     1  UNL1        0.1987
      2 O           8.6706   -4.6643   21.5243 O.2     1  UNL1       -0.2865
      3 C           7.6658   -5.4276   23.7954 C.ar    1  UNL1        0.0758
      4 C           7.0908   -4.9630   25.1005 C.ar    1  UNL1        0.0463
      5 C           7.1250   -5.8648   26.2987 C.ar    1  UNL1        0.1727
      6 C           7.7344   -7.2313   26.1917 C.ar    1  UNL1        0.1754
      7 C           8.3094   -7.6959   24.8865 C.ar    1  UNL1        0.0767
      8 C           8.2751   -6.7941   23.6884 C.ar    1  UNL1        0.1399
      9 O           8.8502   -7.2587   22.3832 O.3     1  UNL1       -0.5053
     10 H           9.2308   -8.1123   22.3164 H       1  UNL1        0.2922
     11 O           6.5500   -5.4001   27.6038 O.3     1  UNL1       -0.4684
     12 C           7.4456   -4.8003   28.6469 C.3     1  UNL1        0.2526
     13 O           7.7687   -8.1331   27.3898 O.3     1  UNL1       -0.4683
     14 C           9.0135   -8.2288   28.2211 C.3     1  UNL1        0.2526
     15 C           5.3964   -3.7135   21.5511 C.2     1  UNL1        0.0034
     16 C           6.5582   -3.4854   22.4721 C.2     1  UNL1        0.0421
     17 C           2.8327   -0.8372   22.5020 C.ar    1  UNL1        0.1387
     18 C           2.1765   -0.5925   21.1755 C.ar    1  UNL1        0.0369
     19 C           2.5935   -1.3881   19.9743 C.ar    1  UNL1        0.0031
     20 C           3.6668   -2.4285   20.0995 C.ar    1  UNL1        0.0002
     21 C           4.3231   -2.6731   21.4259 C.ar    1  UNL1        0.0031
     22 C           3.9060   -1.8775   22.6271 C.ar    1  UNL1        0.0369
     23 C           3.1978   -0.1439   24.9791 C.3     1  UNL1        0.2525
     24 O           2.4157   -0.0415   23.7032 O.3     1  UNL1       -0.4714
@<TRIPOS>BOND
     1    23    24    1
     2    24    17    1
     3    17    18   ar
     4    18    19   ar
     5    19    20   ar
     6    20    21   ar
     7    21    15    1
     8    15    16    2
     9    16     1    1
    10     1     2    2
    11     1     3    1
    12     3     4   ar
    13     4     5   ar
    14     5    11    1
    15    11    12    1
    16     5     6   ar
    17     6    13    1
    18    13    14    1
    19     6     7   ar
    20     7     8   ar
    21     8     9    1
    22    21    22   ar
    23    22    17   ar
    24     8     3   ar
    25     9    10    1
