@<TRIPOS>MOLECULE
*****
 20 21 0 0 0
SMALL
GASTEIGER

@<TRIPOS>ATOM
      1 C         -12.1347  -18.0432   22.5377 C.ar    1  UNL1        0.1724
      2 C         -11.2808  -19.0182   23.2929 C.ar    1  UNL1        0.0400
      3 C         -10.0263  -19.5555   22.6704 C.ar    1  UNL1        0.0033
      4 C          -9.6256  -19.1178   21.2928 C.ar    1  UNL1        0.0033
      5 C         -10.4795  -18.1428   20.5377 C.ar    1  UNL1        0.0400
      6 C         -11.7340  -17.6055   21.1601 C.ar    1  UNL1        0.1724
      7 C         -14.0007  -18.2046   24.3382 C.3     1  UNL1        0.2526
      8 O         -13.3892  -17.5059   23.1602 O.3     1  UNL1       -0.4684
      9 C          -8.3711  -19.6551   20.6704 C.2     1  UNL1        0.0034
     10 C          -7.0963  -19.6873   21.4601 C.2     1  UNL1        0.0420
     11 C          -5.8418  -20.2246   20.8376 C.2     1  UNL1        0.1957
     12 O          -5.8691  -21.5329   20.1046 O.2     1  UNL1       -0.2866
     13 C          -4.5599  -19.4534   20.9483 C.ar    1  UNL1        0.0420
     14 C          -4.0526  -19.0310   22.2952 C.ar    1  UNL1        0.0239
     15 C          -2.7707  -18.2598   22.4058 C.ar    1  UNL1        0.0990
     16 N          -1.9961  -17.9112   21.1694 N.ar    1  UNL1       -0.2423
     17 C          -2.5034  -18.3338   19.8225 C.ar    1  UNL1        0.0990
     18 C          -3.7853  -19.1049   19.7119 C.ar    1  UNL1        0.0239
     19 O         -12.5879  -16.6305   20.4049 O.3     1  UNL1       -0.4684
     20 C         -11.9686  -15.7304   19.3772 C.3     1  UNL1        0.2526
@<TRIPOS>BOND
     1     7     8    1
     2     8     1    1
     3     1     2   ar
     4     2     3   ar
     5     3     4   ar
     6     4     9    1
     7     9    10    2
     8    10    11    1
     9    11    12    2
    10    11    13    1
    11    13    14   ar
    12    14    15   ar
    13    15    16   ar
    14    16    17   ar
    15    17    18   ar
    16     4     5   ar
    17     5     6   ar
    18     6    19    1
    19    19    20    1
    20     6     1   ar
    21    18    13   ar
@<TRIPOS>MOLECULE
*****
 20 21 0 0 0
SMALL
GASTEIGER

@<TRIPOS>ATOM
      1 C         -11.4938  -17.8281   22.0497 C.ar    1  UNL1        0.1724
      2 C         -11.5019  -18.8551   20.9565 C.ar    1  UNL1        0.0400
      3 C         -10.2070  -19.3772   20.4081 C.ar    1  UNL1        0.0033
      4 C          -8.9039  -18.8722   20.9530 C.ar    1  UNL1        0.0033
      5 C          -8.8958  -17.8453   22.0463 C.ar    1  UNL1        0.0400
      6 C         -10.1907  -17.3232   22.5946 C.ar    1  UNL1        0.1724
      7 C         -13.4295  -17.9781   23.7760 C.3     1  UNL1        0.2526
      8 O         -12.7887  -17.3061   22.5980 O.3     1  UNL1       -0.4684
      9 C          -7.6090  -19.3943   20.4047 C.2     1  UNL1        0.0034
     10 C          -6.3378  -19.2093   21.1791 C.2     1  UNL1        0.0420
     11 C          -5.0428  -19.7314   20.6307 C.2     1  UNL1        0.1957
     12 O          -4.9710  -21.1216   20.0723 O.2     1  UNL1       -0.2866
     13 C          -3.8197  -18.8630   20.6408 C.ar    1  UNL1        0.0420
     14 C          -3.0318  -18.6626   19.3803 C.ar    1  UNL1        0.0239
     15 C          -1.8087  -17.7942   19.3904 C.ar    1  UNL1        0.0990
     16 N          -1.3735  -17.1264   20.6611 N.ar    1  UNL1       -0.2423
     17 C          -2.1615  -17.3269   21.9217 C.ar    1  UNL1        0.0990
     18 C          -3.3846  -18.1952   21.9115 C.ar    1  UNL1        0.0239
     19 O         -10.1825  -16.2962   23.6879 O.3     1  UNL1       -0.4684
     20 C          -8.9338  -16.0586   24.4844 C.3     1  UNL1        0.2526
@<TRIPOS>BOND
     1     7     8    1
     2     8     1    1
     3     1     2   ar
     4     2     3   ar
     5     3     4   ar
     6     4     9    1
     7     9    10    2
     8    10    11    1
     9    11    12    2
    10    11    13    1
    11    13    14   ar
    12    14    15   ar
    13    15    16   ar
    14    16    17   ar
    15    17    18   ar
    16     4     5   ar
    17     5     6   ar
    18     6    19    1
    19    19    20    1
    20     6     1   ar
    21    18    13   ar
@<TRIPOS>MOLECULE
*****
 20 21 0 0 0
SMALL
GASTEIGER

@<TRIPOS>ATOM
      1 C         -12.0577  -17.6798   22.9258 C.ar    1  UNL1        0.1724
      2 C         -11.0865  -18.0573   24.0047 C.ar    1  UNL1        0.0400
      3 C          -9.6465  -17.6525   23.8928 C.ar    1  UNL1        0.0033
      4 C          -9.1777  -16.8702   22.7019 C.ar    1  UNL1        0.0033
      5 C         -10.1490  -16.4927   21.6230 C.ar    1  UNL1        0.0400
      6 C         -11.5890  -16.8975   21.7350 C.ar    1  UNL1        0.1724
      7 C         -14.1514  -18.1655   24.3854 C.3     1  UNL1        0.2526
      8 O         -13.4978  -18.0845   23.0378 O.3     1  UNL1       -0.4684
      9 C          -7.7377  -16.4654   22.5899 C.2     1  UNL1        0.0034
     10 C          -6.7537  -16.8973   23.6364 C.2     1  UNL1        0.0420
     11 C          -5.3137  -16.4925   23.5244 C.2     1  UNL1        0.1957
     12 O          -4.8809  -15.1286   23.9740 O.2     1  UNL1       -0.2866
     13 C          -4.3065  -17.4518   22.9627 C.ar    1  UNL1        0.0420
     14 C          -2.8675  -17.0450   22.8453 C.ar    1  UNL1        0.0239
     15 C          -1.8603  -18.0042   22.2836 C.ar    1  UNL1        0.0990
     16 N          -2.2922  -19.3703   21.8393 N.ar    1  UNL1       -0.2423
     17 C          -3.7312  -19.7771   21.9568 C.ar    1  UNL1        0.0990
     18 C          -4.7383  -18.8179   22.5184 C.ar    1  UNL1        0.0239
     19 O         -12.5603  -16.5199   20.6560 O.3     1  UNL1       -0.4684
     20 C         -12.0785  -15.8000   19.4315 C.3     1  UNL1        0.2526
@<TRIPOS>BOND
     1     7     8    1
     2     8     1    1
     3     1     2   ar
     4     2     3   ar
     5     3     4   ar
     6     4     9    1
     7     9    10    2
     8    10    11    1
     9    11    12    2
    10    11    13    1
    11    13    14   ar
    12    14    15   ar
    13    15    16   ar
    14    16    17   ar
    15    17    18   ar
    16     4     5   ar
    17     5     6   ar
    18     6    19    1
    19    19    20    1
    20     6     1   ar
    21    18    13   ar
@<TRIPOS>MOLECULE
*****
 20 21 0 0 0
SMALL
GASTEIGER

@<TRIPOS>ATOM
      1 C          -8.4951  -16.0049   25.0704 C.ar    1  UNL1        0.1724
      2 C          -9.2399  -17.0958   24.3595 C.ar    1  UNL1        0.0400
      3 C          -8.5853  -17.8404   23.2339 C.ar    1  UNL1        0.0033
      4 C          -7.1860  -17.4943   22.8192 C.ar    1  UNL1        0.0033
      5 C          -6.4413  -16.4034   23.5301 C.ar    1  UNL1        0.0400
      6 C          -7.0958  -15.6588   24.6557 C.ar    1  UNL1        0.1724
      7 C          -8.5299  -15.2693   27.5619 C.3     1  UNL1        0.2526
      8 O          -9.1497  -15.2603   26.1960 O.3     1  UNL1       -0.4684
      9 C          -6.5314  -18.2389   21.6936 C.2     1  UNL1        0.0034
     10 C          -5.2003  -18.8975   21.9039 C.2     1  UNL1        0.0420
     11 C          -4.5457  -19.6422   20.7783 C.2     1  UNL1        0.1957
     12 O          -5.1522  -20.9160   20.2689 O.2     1  UNL1       -0.2866
     13 C          -3.2847  -19.1130   20.1620 C.ar    1  UNL1        0.0420
     14 C          -1.9649  -19.3487   20.8347 C.ar    1  UNL1        0.0239
     15 C          -0.7038  -18.8194   20.2185 C.ar    1  UNL1        0.0990
     16 N          -0.7626  -18.0545   18.9295 N.ar    1  UNL1       -0.2423
     17 C          -2.0825  -17.8188   18.2568 C.ar    1  UNL1        0.0990
     18 C          -3.3435  -18.3480   18.8731 C.ar    1  UNL1        0.0239
     19 O          -6.3510  -14.5679   25.3666 O.3     1  UNL1       -0.4684
     20 C          -5.1141  -14.8921   26.1507 C.3     1  UNL1        0.2526
@<TRIPOS>BOND
     1     7     8    1
     2     8     1    1
     3     1     2   ar
     4     2     3   ar
     5     3     4   ar
     6     4     9    1
     7     9    10    2
     8    10    11    1
     9    11    12    2
    10    11    13    1
    11    13    14   ar
    12    14    15   ar
    13    15    16   ar
    14    16    17   ar
    15    17    18   ar
    16     4     5   ar
    17     5     6   ar
    18     6    19    1
    19    19    20    1
    20     6     1   ar
    21    18    13   ar
@<TRIPOS>MOLECULE
*****
 20 21 0 0 0
SMALL
GASTEIGER

@<TRIPOS>ATOM
      1 C           4.0767   -1.5276   18.1581 C.ar    1  UNL1        0.1724
      2 C           3.5356   -0.2641   17.5574 C.ar    1  UNL1        0.0400
      3 C           2.3602    0.4225   18.1874 C.ar    1  UNL1        0.0033
      4 C           1.7258   -0.1544   19.4182 C.ar    1  UNL1        0.0033
      5 C           2.2669   -1.4179   20.0189 C.ar    1  UNL1        0.0400
      6 C           3.4423   -2.1044   19.3888 C.ar    1  UNL1        0.1724
      7 C           6.6263   -2.0232   18.0981 C.3     1  UNL1        0.2526
      8 O           5.2521   -2.2141   17.5280 O.3     1  UNL1       -0.4684
      9 C           0.5504    0.5322   20.0482 C.2     1  UNL1        0.0034
     10 C           0.6399    1.9825   20.4204 C.2     1  UNL1        0.0420
     11 C          -0.5356    2.6690   21.0504 C.2     1  UNL1        0.1957
     12 O          -0.6099    2.8118   22.5417 O.2     1  UNL1       -0.2866
     13 C          -1.6367    3.2129   20.1891 C.ar    1  UNL1        0.0420
     14 C          -3.0553    3.1789   20.6751 C.ar    1  UNL1        0.0239
     15 C          -4.1564    3.7228   19.8137 C.ar    1  UNL1        0.0990
     16 N          -3.8388    4.3005   18.4664 N.ar    1  UNL1       -0.2423
     17 C          -2.4201    4.3344   17.9804 C.ar    1  UNL1        0.0990
     18 C          -1.3191    3.7906   18.8417 C.ar    1  UNL1        0.0239
     19 O           3.9834   -3.3680   19.9896 O.3     1  UNL1       -0.4684
     20 C           3.5904   -4.6981   19.4186 C.3     1  UNL1        0.2526
@<TRIPOS>BOND
     1     7     8    1
     2     8     1    1
     3     1     2   ar
     4     2     3   ar
     5     3     4   ar
     6     4     9    1
     7     9    10    2
     8    10    11    1
     9    11    12    2
    10    11    13    1
    11    13    14   ar
    12    14    15   ar
    13    15    16   ar
    14    16    17   ar
    15    17    18   ar
    16     4     5   ar
    17     5     6   ar
    18     6    19    1
    19    19    20    1
    20     6     1   ar
    21    18    13   ar
@<TRIPOS>MOLECULE
*****
 20 21 0 0 0
SMALL
GASTEIGER

@<TRIPOS>ATOM
      1 C         -11.0372  -18.3591   22.0752 C.ar    1  UNL1        0.1724
      2 C         -10.4337  -18.9775   23.3012 C.ar    1  UNL1        0.0400
      3 C          -8.9549  -19.2192   23.3690 C.ar    1  UNL1        0.0033
      4 C          -8.0795  -18.8423   22.2108 C.ar    1  UNL1        0.0033
      5 C          -8.6829  -18.2238   20.9847 C.ar    1  UNL1        0.0400
      6 C         -10.1618  -17.9822   20.9169 C.ar    1  UNL1        0.1724
      7 C         -13.2958  -17.8803   23.2666 C.3     1  UNL1        0.2526
      8 O         -12.5161  -18.1174   22.0074 O.3     1  UNL1       -0.4684
      9 C          -6.6006  -19.0839   22.2786 C.2     1  UNL1        0.0034
     10 C          -5.6891  -18.0138   22.8019 C.2     1  UNL1        0.0420
     11 C          -4.2102  -18.2554   22.8697 C.2     1  UNL1        0.1957
     12 O          -3.5207  -18.3182   24.2003 O.2     1  UNL1       -0.2866
     13 C          -3.4208  -18.4343   21.6067 C.ar    1  UNL1        0.0420
     14 C          -3.6984  -17.5615   20.4188 C.ar    1  UNL1        0.0239
     15 C          -2.9090  -17.7404   19.1559 C.ar    1  UNL1        0.0990
     16 N          -1.8420  -18.7920   19.0810 N.ar    1  UNL1       -0.2423
     17 C          -1.5644  -19.6647   20.2690 C.ar    1  UNL1        0.0990
     18 C          -2.3538  -19.4859   21.5318 C.ar    1  UNL1        0.0239
     19 O         -10.7653  -17.3636   19.6908 O.3     1  UNL1       -0.4684
     20 C         -11.2645  -15.9498   19.7321 C.3     1  UNL1        0.2526
@<TRIPOS>BOND
     1     7     8    1
     2     8     1    1
     3     1     2   ar
     4     2     3   ar
     5     3     4   ar
     6     4     9    1
     7     9    10    2
     8    10    11    1
     9    11    12    2
    10    11    13    1
    11    13    14   ar
    12    14    15   ar
    13    15    16   ar
    14    16    17   ar
    15    17    18   ar
    16     4     5   ar
    17     5     6   ar
    18     6    19    1
    19    19    20    1
    20     6     1   ar
    21    18    13   ar
@<TRIPOS>MOLECULE
*****
 20 21 0 0 0
SMALL
GASTEIGER

@<TRIPOS>ATOM
      1 C           3.7767   -1.8871   19.4773 C.ar    1  UNL1        0.1724
      2 C           2.5826   -1.5802   20.3317 C.ar    1  UNL1        0.0400
      3 C           1.6362   -0.4869   19.9330 C.ar    1  UNL1        0.0033
      4 C           1.8838    0.2995   18.6800 C.ar    1  UNL1        0.0033
      5 C           3.0779   -0.0073   17.8256 C.ar    1  UNL1        0.0400
      6 C           4.0244   -1.1006   18.2243 C.ar    1  UNL1        0.1724
      7 C           4.6871   -4.3001   19.1641 C.3     1  UNL1        0.2526
      8 O           4.7231   -2.9804   19.8760 O.3     1  UNL1       -0.4684
      9 C           0.9374    1.3928   18.2813 C.2     1  UNL1        0.0034
     10 C           1.2020    2.8064   18.7077 C.2     1  UNL1        0.0420
     11 C           0.2555    3.8997   18.3090 C.2     1  UNL1        0.1957
     12 O           0.7589    5.0826   17.5362 O.2     1  UNL1       -0.2866
     13 C          -1.1943    3.8100   18.6831 C.ar    1  UNL1        0.0420
     14 C          -1.5867    3.3948   20.0701 C.ar    1  UNL1        0.0239
     15 C          -3.0366    3.3051   20.4442 C.ar    1  UNL1        0.0990
     16 N          -4.0940    3.6307   19.4314 N.ar    1  UNL1       -0.2423
     17 C          -3.7016    4.0459   18.0444 C.ar    1  UNL1        0.0990
     18 C          -2.2518    4.1355   17.6703 C.ar    1  UNL1        0.0239
     19 O           5.2185   -1.4074   17.3699 O.3     1  UNL1       -0.4684
     20 C           6.5129   -0.6862   17.6032 C.3     1  UNL1        0.2526
@<TRIPOS>BOND
     1     7     8    1
     2     8     1    1
     3     1     2   ar
     4     2     3   ar
     5     3     4   ar
     6     4     9    1
     7     9    10    2
     8    10    11    1
     9    11    12    2
    10    11    13    1
    11    13    14   ar
    12    14    15   ar
    13    15    16   ar
    14    16    17   ar
    15    17    18   ar
    16     4     5   ar
    17     5     6   ar
    18     6    19    1
    19    19    20    1
    20     6     1   ar
    21    18    13   ar
@<TRIPOS>MOLECULE
*****
 20 21 0 0 0
SMALL
GASTEIGER

@<TRIPOS>ATOM
      1 C           3.1485   -1.3262   19.9680 C.ar    1  UNL1        0.1724
      2 C           2.8288   -0.6036   21.2430 C.ar    1  UNL1        0.0400
      3 C           3.3845   -1.0988   22.5453 C.ar    1  UNL1        0.0033
      4 C           4.2598   -2.3166   22.5727 C.ar    1  UNL1        0.0033
      5 C           4.5795   -3.0392   21.2977 C.ar    1  UNL1        0.0400
      6 C           4.0238   -2.5440   19.9954 C.ar    1  UNL1        0.1724
      7 C           3.4257    0.0484   17.7809 C.3     1  UNL1        0.2526
      8 O           2.5929   -0.8310   18.6657 O.3     1  UNL1       -0.4684
      9 C           4.8154   -2.8118   23.8750 C.2     1  UNL1        0.0034
     10 C           6.1846   -3.4225   23.9225 C.2     1  UNL1        0.0420
     11 C           6.7403   -3.9177   25.2248 C.2     1  UNL1        0.1957
     12 O           6.8575   -2.9846   26.3934 O.2     1  UNL1       -0.2866
     13 C           7.1786   -5.3460   25.3585 C.ar    1  UNL1        0.0420
     14 C           7.8827   -6.0241   24.2207 C.ar    1  UNL1        0.0239
     15 C           8.3211   -7.4524   24.3544 C.ar    1  UNL1        0.0990
     16 N           8.0554   -8.2026   25.6259 N.ar    1  UNL1       -0.2423
     17 C           7.3513   -7.5244   26.7637 C.ar    1  UNL1        0.0990
     18 C           6.9130   -6.0962   26.6300 C.ar    1  UNL1        0.0239
     19 O           4.3435   -3.2666   18.7203 O.3     1  UNL1       -0.4684
     20 C           4.5545   -4.7516   18.7326 C.3     1  UNL1        0.2526
@<TRIPOS>BOND
     1     7     8    1
     2     8     1    1
     3     1     2   ar
     4     2     3   ar
     5     3     4   ar
     6     4     9    1
     7     9    10    2
     8    10    11    1
     9    11    12    2
    10    11    13    1
    11    13    14   ar
    12    14    15   ar
    13    15    16   ar
    14    16    17   ar
    15    17    18   ar
    16     4     5   ar
    17     5     6   ar
    18     6    19    1
    19    19    20    1
    20     6     1   ar
    21    18    13   ar
@<TRIPOS>MOLECULE
*****
 20 21 0 0 0
SMALL
GASTEIGER

@<TRIPOS>ATOM
      1 C           3.1330   -1.7047   20.4546 C.ar    1  UNL1        0.1724
      2 C           3.9766   -2.0577   21.6436 C.ar    1  UNL1        0.0400
      3 C           3.7792   -1.3365   22.9440 C.ar    1  UNL1        0.0033
      4 C           2.7383   -0.2623   23.0554 C.ar    1  UNL1        0.0033
      5 C           1.8947    0.0907   21.8664 C.ar    1  UNL1        0.0400
      6 C           2.0921   -0.6305   20.5660 C.ar    1  UNL1        0.1724
      7 C           4.3799   -1.9592   18.1896 C.3     1  UNL1        0.2526
      8 O           3.3304   -2.4259   19.1543 O.3     1  UNL1       -0.4684
      9 C           2.5409    0.4589   24.3557 C.2     1  UNL1        0.0034
     10 C           1.3046    1.2785   24.5787 C.2     1  UNL1        0.0420
     11 C           1.1072    1.9997   25.8790 C.2     1  UNL1        0.1957
     12 O           1.3599    3.4757   25.9639 O.2     1  UNL1       -0.2866
     13 C           0.6570    1.2447   27.0946 C.ar    1  UNL1        0.0420
     14 C           1.6615    0.5262   27.9459 C.ar    1  UNL1        0.0239
     15 C           1.2114   -0.2287   29.1614 C.ar    1  UNL1        0.0990
     16 N          -0.2433   -0.2652   29.5256 N.ar    1  UNL1       -0.2423
     17 C          -1.2478    0.4533   28.6742 C.ar    1  UNL1        0.0990
     18 C          -0.7976    1.2082   27.4587 C.ar    1  UNL1        0.0239
     19 O           1.2484   -0.2774   19.3770 O.3     1  UNL1       -0.4684
     20 C           1.7207    0.7623   18.4044 C.3     1  UNL1        0.2526
@<TRIPOS>BOND
     1     7     8    1
     2     8     1    1
     3     1     2   ar
     4     2     3   ar
     5     3     4   ar
     6     4     9    1
     7     9    10    2
     8    10    11    1
     9    11    12    2
    10    11    13    1
    11    13    14   ar
    12    14    15   ar
    13    15    16   ar
    14    16    17   ar
    15    17    18   ar
    16     4     5   ar
    17     5     6   ar
    18     6    19    1
    19    19    20    1
    20     6     1   ar
    21    18    13   ar
