@<TRIPOS>MOLECULE
*****
 26 29 0 0 0
SMALL
GASTEIGER

@<TRIPOS>ATOM
      1 C1        -12.0737   -1.2524   18.9752 C.3     1  <1>         0.0343
      2 C2        -13.2142   -2.2106   18.7991 C.ar    1  <1>         0.0152
      3 C3        -14.6708   -1.8845   18.9475 C.ar    1  <1>         0.0988
      4 N1        -15.4552   -3.1355   18.6837 N.ar    1  <1>        -0.1637
      5 N2        -14.4834   -4.2349   18.3722 N.ar    1  <1>        -0.2070
      6 C4        -13.0984   -3.6633   18.4435 C.ar    1  <1>         0.0824
      7 C5        -15.2426   -0.5427   19.2982 C.ar    1  <1>         0.0191
      8 C6        -16.3221   -0.4350   20.3340 C.ar    1  <1>         0.0015
      9 C7        -16.8938    0.9066   20.6847 C.ar    1  <1>         0.0000
     10 C8        -16.3860    2.1406   19.9996 C.ar    1  <1>         0.0000
     11 C9        -15.3064    2.0329   18.9638 C.ar    1  <1>         0.0000
     12 C10       -14.7347    0.6913   18.6132 C.ar    1  <1>         0.0015
     13 C11       -11.8217   -4.4127   18.2017 C.ar    1  <1>         0.0175
     14 C12       -11.3981   -5.4973   19.1473 C.ar    1  <1>         0.0015
     15 C13       -10.1215   -6.2468   18.9055 C.ar    1  <1>         0.0000
     16 C14        -9.2684   -5.9116   17.7180 C.ar    1  <1>         0.0000
     17 C15        -9.6921   -4.8270   16.7724 C.ar    1  <1>         0.0000
     18 C16       -10.9687   -4.0775   17.0142 C.ar    1  <1>         0.0015
     19 C17       -14.8349   -5.6563   18.0465 C.ar    1  <1>         0.1954
     20 N3        -15.0383   -6.7635   19.0378 N.ar    1  <1>        -0.2192
     21 C18       -15.3738   -8.0115   18.2764 C.ar    1  <1>         0.1039
     22 C19       -15.3778   -7.6756   16.8145 C.ar    1  <1>         0.0587
     23 S1        -15.0447   -6.2200   16.6725 S.2     1  <1>        -0.0466
     24 C20       -15.6558   -9.3589   18.8722 C.2     1  <1>         0.0911
     25 O1        -16.2610   -9.4619   20.2408 O.co2   1  <1>        -0.5430
     26 O2        -15.3326  -10.6033   18.0994 O.co2   1  <1>        -0.5430
@<TRIPOS>UNITY_ATOM_ATTR
25 1
charge -1
@<TRIPOS>BOND
     1     1     2    1
     2     2     3   ar
     3     3     7    1
     4     7     8   ar
     5     8     9   ar
     6     9    10   ar
     7    10    11   ar
     8    11    12   ar
     9     3     4   ar
    10     4     5   ar
    11     5    19    1
    12    19    20   ar
    13    20    21   ar
    14    21    24    1
    15    24    25   ar
    16    24    26   ar
    17    21    22   ar
    18    22    23   ar
    19     5     6   ar
    20     6    13    1
    21    13    14   ar
    22    14    15   ar
    23    15    16   ar
    24    16    17   ar
    25    17    18   ar
    26     6     2   ar
    27    18    13   ar
    28    12     7   ar
    29    23    19   ar
@<TRIPOS>MOLECULE
*****
 26 29 0 0 0
SMALL
GASTEIGER

@<TRIPOS>ATOM
      1 C1        -13.3598   -8.2173   17.5736 C.3     1  <1>         0.0343
      2 C2        -14.1119   -6.9641   17.9107 C.ar    1  <1>         0.0152
      3 C3        -15.5797   -6.8689   18.2051 C.ar    1  <1>         0.0988
      4 N1        -15.9033   -5.4320   18.4890 N.ar    1  <1>        -0.1637
      5 N2        -14.6355   -4.6392   18.3701 N.ar    1  <1>        -0.2070
      6 C4        -13.5284   -5.5860   18.0127 C.ar    1  <1>         0.0824
      7 C5        -16.5530   -8.0103   18.2140 C.ar    1  <1>         0.0191
      8 C6        -17.5790   -8.1296   17.1263 C.ar    1  <1>         0.0015
      9 C7        -18.5522   -9.2709   17.1353 C.ar    1  <1>         0.0000
     10 C8        -18.4994  -10.2930   18.2319 C.ar    1  <1>         0.0000
     11 C9        -17.4734  -10.1737   19.3195 C.ar    1  <1>         0.0000
     12 C10       -16.5002   -9.0324   19.3106 C.ar    1  <1>         0.0015
     13 C11       -12.0902   -5.2193   17.7954 C.ar    1  <1>         0.0175
     14 C12       -11.1751   -5.0440   18.9709 C.ar    1  <1>         0.0015
     15 C13        -9.7369   -4.6772   18.7536 C.ar    1  <1>         0.0000
     16 C14        -9.2140   -4.4857   17.3609 C.ar    1  <1>         0.0000
     17 C15       -10.1292   -4.6609   16.1854 C.ar    1  <1>         0.0000
     18 C16       -11.5673   -5.0277   16.4026 C.ar    1  <1>         0.0015
     19 C17       -14.4989   -3.1592   18.5729 C.ar    1  <1>         0.1954
     20 N3        -13.4755   -2.2717   17.9286 N.ar    1  <1>        -0.2192
     21 C18       -13.7058   -0.8710   18.4132 C.ar    1  <1>         0.1039
     22 C19       -14.8714   -0.8927   19.3570 C.ar    1  <1>         0.0587
     23 S1        -15.3616   -2.3069   19.4557 S.2     1  <1>        -0.0466
     24 C20       -12.9101    0.3390   18.0225 C.2     1  <1>         0.0911
     25 O1        -13.4758    1.7111   18.2403 O.co2   1  <1>        -0.5430
     26 O2        -11.5485    0.1770   17.4141 O.co2   1  <1>        -0.5430
@<TRIPOS>UNITY_ATOM_ATTR
25 1
charge -1
@<TRIPOS>BOND
     1     1     2    1
     2     2     3   ar
     3     3     7    1
     4     7     8   ar
     5     8     9   ar
     6     9    10   ar
     7    10    11   ar
     8    11    12   ar
     9     3     4   ar
    10     4     5   ar
    11     5    19    1
    12    19    20   ar
    13    20    21   ar
    14    21    24    1
    15    24    25   ar
    16    24    26   ar
    17    21    22   ar
    18    22    23   ar
    19     5     6   ar
    20     6    13    1
    21    13    14   ar
    22    14    15   ar
    23    15    16   ar
    24    16    17   ar
    25    17    18   ar
    26     6     2   ar
    27    18    13   ar
    28    12     7   ar
    29    23    19   ar
@<TRIPOS>MOLECULE
*****
 26 29 0 0 0
SMALL
GASTEIGER

@<TRIPOS>ATOM
      1 C1        -18.3467   -6.0108   19.1146 C.3     1  <1>         0.0343
      2 C2        -17.1031   -6.6323   18.5513 C.ar    1  <1>         0.0152
      3 C3        -17.0211   -7.9486   17.8368 C.ar    1  <1>         0.0988
      4 N1        -15.5905   -8.1764   17.4475 N.ar    1  <1>        -0.1637
      5 N2        -14.7884   -7.0008   17.9215 N.ar    1  <1>        -0.2070
      6 C4        -15.7232   -6.0465   18.6037 C.ar    1  <1>         0.0824
      7 C5        -18.1683   -8.8746   17.5600 C.ar    1  <1>         0.0191
      8 C6        -18.9101   -8.7819   16.2596 C.ar    1  <1>         0.0015
      9 C7        -20.0573   -9.7079   15.9830 C.ar    1  <1>         0.0000
     10 C8        -20.4626  -10.7265   17.0068 C.ar    1  <1>         0.0000
     11 C9        -19.7209  -10.8192   18.3072 C.ar    1  <1>         0.0000
     12 C10       -18.5737   -9.8932   18.5838 C.ar    1  <1>         0.0015
     13 C11       -15.3446   -4.7364   19.2285 C.ar    1  <1>         0.0175
     14 C12       -14.4482   -4.7102   20.4310 C.ar    1  <1>         0.0015
     15 C13       -14.0696   -3.4002   21.0558 C.ar    1  <1>         0.0000
     16 C14       -14.5874   -2.1164   20.4782 C.ar    1  <1>         0.0000
     17 C15       -15.4838   -2.1426   19.2758 C.ar    1  <1>         0.0000
     18 C16       -15.8624   -3.4526   18.6509 C.ar    1  <1>         0.0015
     19 C17       -13.3108   -6.8126   17.7443 C.ar    1  <1>         0.1954
     20 N3        -12.2674   -6.9740   18.8099 N.ar    1  <1>        -0.2192
     21 C18       -10.9290   -6.6911   18.1947 C.ar    1  <1>         0.1039
     22 C19       -11.1451   -6.3549   16.7489 C.ar    1  <1>         0.0587
     23 S1        -12.6171   -6.4300   16.4706 S.2     1  <1>        -0.0466
     24 C20        -9.6066   -6.7365   18.9012 C.2     1  <1>         0.0911
     25 O1         -9.0985   -5.5223   19.6205 O.co2   1  <1>        -0.5430
     26 O2         -8.7922   -7.9962   18.8884 O.co2   1  <1>        -0.5430
@<TRIPOS>UNITY_ATOM_ATTR
25 1
charge -1
@<TRIPOS>BOND
     1     1     2    1
     2     2     3   ar
     3     3     7    1
     4     7     8   ar
     5     8     9   ar
     6     9    10   ar
     7    10    11   ar
     8    11    12   ar
     9     3     4   ar
    10     4     5   ar
    11     5    19    1
    12    19    20   ar
    13    20    21   ar
    14    21    24    1
    15    24    25   ar
    16    24    26   ar
    17    21    22   ar
    18    22    23   ar
    19     5     6   ar
    20     6    13    1
    21    13    14   ar
    22    14    15   ar
    23    15    16   ar
    24    16    17   ar
    25    17    18   ar
    26     6     2   ar
    27    18    13   ar
    28    12     7   ar
    29    23    19   ar
@<TRIPOS>MOLECULE
*****
 26 29 0 0 0
SMALL
GASTEIGER

@<TRIPOS>ATOM
      1 C1        -13.6895   -8.0665   18.0390 C.3     1  <1>         0.0343
      2 C2        -14.3122   -6.7064   18.1509 C.ar    1  <1>         0.0152
      3 C3        -13.5914   -5.3953   18.0448 C.ar    1  <1>         0.0988
      4 N1        -14.5987   -4.2973   18.2168 N.ar    1  <1>        -0.1637
      5 N2        -15.9421   -4.9298   18.4291 N.ar    1  <1>        -0.2070
      6 C4        -15.7651   -6.4188   18.3884 C.ar    1  <1>         0.0824
      7 C5        -12.1212   -5.2140   17.8082 C.ar    1  <1>         0.0191
      8 C6        -11.6096   -4.9694   16.4196 C.ar    1  <1>         0.0015
      9 C7        -10.1395   -4.7882   16.1831 C.ar    1  <1>         0.0000
     10 C8         -9.1811   -4.8514   17.3352 C.ar    1  <1>         0.0000
     11 C9         -9.6927   -5.0959   18.7239 C.ar    1  <1>         0.0000
     12 C10       -11.1628   -5.2772   18.9604 C.ar    1  <1>         0.0015
     13 C11       -16.8503   -7.4407   18.5559 C.ar    1  <1>         0.0175
     14 C12       -17.3168   -8.2396   17.3751 C.ar    1  <1>         0.0015
     15 C13       -18.4020   -9.2615   17.5426 C.ar    1  <1>         0.0000
     16 C14       -19.0207   -9.4844   18.8907 C.ar    1  <1>         0.0000
     17 C15       -18.5542   -8.6855   20.0714 C.ar    1  <1>         0.0000
     18 C16       -17.4690   -7.6636   19.9040 C.ar    1  <1>         0.0015
     19 C17       -17.2356   -4.2013   18.6445 C.ar    1  <1>         0.1954
     20 N3        -17.5930   -3.3751   19.8443 N.ar    1  <1>        -0.2192
     21 C18       -18.9770   -2.8343   19.6391 C.ar    1  <1>         0.1039
     22 C19       -19.4749   -3.3263   18.3124 C.ar    1  <1>         0.0587
     23 S1        -18.3987   -4.1711   17.6978 S.2     1  <1>        -0.0466
     24 C20       -19.7307   -1.9558   20.5931 C.2     1  <1>         0.0911
     25 O1        -20.0504   -2.4483   21.9734 O.co2   1  <1>        -0.5430
     26 O2        -20.1647   -0.5846   20.1668 O.co2   1  <1>        -0.5430
@<TRIPOS>UNITY_ATOM_ATTR
25 1
charge -1
@<TRIPOS>BOND
     1     1     2    1
     2     2     3   ar
     3     3     7    1
     4     7     8   ar
     5     8     9   ar
     6     9    10   ar
     7    10    11   ar
     8    11    12   ar
     9     3     4   ar
    10     4     5   ar
    11     5    19    1
    12    19    20   ar
    13    20    21   ar
    14    21    24    1
    15    24    25   ar
    16    24    26   ar
    17    21    22   ar
    18    22    23   ar
    19     5     6   ar
    20     6    13    1
    21    13    14   ar
    22    14    15   ar
    23    15    16   ar
    24    16    17   ar
    25    17    18   ar
    26     6     2   ar
    27    18    13   ar
    28    12     7   ar
    29    23    19   ar
@<TRIPOS>MOLECULE
*****
 26 29 0 0 0
SMALL
GASTEIGER

@<TRIPOS>ATOM
      1 C1          3.1543    0.7574   18.1789 C.3     1  <1>         0.0343
      2 C2          2.1891    0.8987   19.3183 C.ar    1  <1>         0.0152
      3 C3          2.0671   -0.0291   20.4907 C.ar    1  <1>         0.0988
      4 N1          0.9790    0.4914   21.3824 N.ar    1  <1>        -0.1637
      5 N2          0.4285    1.7408   20.7611 N.ar    1  <1>        -0.2070
      6 C4          1.1764    1.9925   19.4854 C.ar    1  <1>         0.0824
      7 C5          2.8890   -1.2610   20.7294 C.ar    1  <1>         0.0191
      8 C6          3.0615   -2.2713   19.6343 C.ar    1  <1>         0.0015
      9 C7          3.8834   -3.5032   19.8730 C.ar    1  <1>         0.0000
     10 C8          4.5326   -3.7247   21.2070 C.ar    1  <1>         0.0000
     11 C9          4.3601   -2.7144   22.3021 C.ar    1  <1>         0.0000
     12 C10         3.5382   -1.4825   22.0634 C.ar    1  <1>         0.0015
     13 C11         0.9511    3.1371   18.5425 C.ar    1  <1>         0.0175
     14 C12         1.9926    4.2071   18.3993 C.ar    1  <1>         0.0015
     15 C13         1.7673    5.3516   17.4564 C.ar    1  <1>         0.0000
     16 C14         0.5005    5.4262   16.6565 C.ar    1  <1>         0.0000
     17 C15        -0.5410    4.3562   16.7997 C.ar    1  <1>         0.0000
     18 C16        -0.3157    3.2116   17.7426 C.ar    1  <1>         0.0015
     19 C17        -0.6760    2.5895   21.3178 C.ar    1  <1>         0.1954
     20 N3         -2.0882    2.6401   20.8146 N.ar    1  <1>        -0.2192
     21 C18        -2.8471    3.6184   21.6612 C.ar    1  <1>         0.1039
     22 C19        -1.9040    4.1725   22.6877 C.ar    1  <1>         0.0587
     23 S1         -0.5623    3.5365   22.4754 S.2     1  <1>        -0.0466
     24 C20        -4.2950    3.9794   21.5082 C.2     1  <1>         0.0911
     25 O1         -4.7027    5.0502   20.5402 O.co2   1  <1>        -0.5430
     26 O2         -5.3351    3.2694   22.3232 O.co2   1  <1>        -0.5430
@<TRIPOS>UNITY_ATOM_ATTR
25 1
charge -1
@<TRIPOS>BOND
     1     1     2    1
     2     2     3   ar
     3     3     7    1
     4     7     8   ar
     5     8     9   ar
     6     9    10   ar
     7    10    11   ar
     8    11    12   ar
     9     3     4   ar
    10     4     5   ar
    11     5    19    1
    12    19    20   ar
    13    20    21   ar
    14    21    24    1
    15    24    25   ar
    16    24    26   ar
    17    21    22   ar
    18    22    23   ar
    19     5     6   ar
    20     6    13    1
    21    13    14   ar
    22    14    15   ar
    23    15    16   ar
    24    16    17   ar
    25    17    18   ar
    26     6     2   ar
    27    18    13   ar
    28    12     7   ar
    29    23    19   ar
@<TRIPOS>MOLECULE
*****
 26 29 0 0 0
SMALL
GASTEIGER

@<TRIPOS>ATOM
      1 C1          6.9385   -3.9945   23.3784 C.3     1  <1>         0.0343
      2 C2          5.8848   -3.0968   23.9562 C.ar    1  <1>         0.0152
      3 C3          4.6878   -2.5602   23.2286 C.ar    1  <1>         0.0988
      4 N1          3.9063   -1.7100   24.1858 N.ar    1  <1>        -0.1637
      5 N2          4.6202   -1.7210   25.5050 N.ar    1  <1>        -0.2070
      6 C4          5.8430   -2.5782   25.3631 C.ar    1  <1>         0.0824
      7 C5          4.3344   -2.8271   21.7954 C.ar    1  <1>         0.0191
      8 C6          4.3091   -4.2352   21.2789 C.ar    1  <1>         0.0015
      9 C7          3.9557   -4.5020   19.8458 C.ar    1  <1>         0.0000
     10 C8          3.6277   -3.3608   18.9292 C.ar    1  <1>         0.0000
     11 C9          3.6531   -1.9528   19.4457 C.ar    1  <1>         0.0000
     12 C10         4.0065   -1.6860   20.8788 C.ar    1  <1>         0.0015
     13 C11         6.8477   -2.8661   26.4391 C.ar    1  <1>         0.0175
     14 C12         6.6448   -4.0307   27.3625 C.ar    1  <1>         0.0015
     15 C13         7.6494   -4.3186   28.4385 C.ar    1  <1>         0.0000
     16 C14         8.8569   -3.4419   28.5911 C.ar    1  <1>         0.0000
     17 C15         9.0598   -2.2773   27.6678 C.ar    1  <1>         0.0000
     18 C16         8.0552   -1.9894   26.5918 C.ar    1  <1>         0.0015
     19 C17         4.1874   -1.0013   26.7478 C.ar    1  <1>         0.1954
     20 N3          3.1333   -1.4609   27.7110 N.ar    1  <1>        -0.2192
     21 C18         3.0271   -0.4393   28.8041 C.ar    1  <1>         0.1039
     22 C19         4.0155    0.6518   28.5165 C.ar    1  <1>         0.0587
     23 S1          4.7325    0.3044   27.2457 S.2     1  <1>        -0.0466
     24 C20         2.0960   -0.4984   29.9786 C.2     1  <1>         0.0911
     25 O1          0.6499   -0.1382   29.8081 O.co2   1  <1>        -0.5430
     26 O2          2.6109   -0.9176   31.3237 O.co2   1  <1>        -0.5430
@<TRIPOS>UNITY_ATOM_ATTR
25 1
charge -1
@<TRIPOS>BOND
     1     1     2    1
     2     2     3   ar
     3     3     7    1
     4     7     8   ar
     5     8     9   ar
     6     9    10   ar
     7    10    11   ar
     8    11    12   ar
     9     3     4   ar
    10     4     5   ar
    11     5    19    1
    12    19    20   ar
    13    20    21   ar
    14    21    24    1
    15    24    25   ar
    16    24    26   ar
    17    21    22   ar
    18    22    23   ar
    19     5     6   ar
    20     6    13    1
    21    13    14   ar
    22    14    15   ar
    23    15    16   ar
    24    16    17   ar
    25    17    18   ar
    26     6     2   ar
    27    18    13   ar
    28    12     7   ar
    29    23    19   ar
@<TRIPOS>MOLECULE
*****
 26 29 0 0 0
SMALL
GASTEIGER

@<TRIPOS>ATOM
      1 C1         -3.7510  -16.3401   24.1121 C.3     1  <1>         0.0343
      2 C2         -4.7872  -17.0338   23.2783 C.ar    1  <1>         0.0152
      3 C3         -4.5319  -17.8094   22.0201 C.ar    1  <1>         0.0988
      4 N1         -5.8475  -18.3286   21.5206 N.ar    1  <1>        -0.1637
      5 N2         -6.9160  -17.8739   22.4701 N.ar    1  <1>        -0.2070
      6 C4         -6.2606  -17.0736   23.5565 C.ar    1  <1>         0.0824
      7 C5         -3.1955  -18.0275   21.3746 C.ar    1  <1>         0.0191
      8 C6         -2.3387  -16.8520   21.0083 C.ar    1  <1>         0.0015
      9 C7         -1.0024  -17.0702   20.3629 C.ar    1  <1>         0.0000
     10 C8         -0.5228  -18.4638   20.0838 C.ar    1  <1>         0.0000
     11 C9         -1.3796  -19.6392   20.4501 C.ar    1  <1>         0.0000
     12 C10        -2.7159  -19.4211   21.0955 C.ar    1  <1>         0.0015
     13 C11        -6.9566  -16.4268   24.7172 C.ar    1  <1>         0.0175
     14 C12        -6.2792  -16.3570   26.0538 C.ar    1  <1>         0.0015
     15 C13        -6.9751  -15.7102   27.2145 C.ar    1  <1>         0.0000
     16 C14        -8.3484  -15.1332   27.0387 C.ar    1  <1>         0.0000
     17 C15        -9.0259  -15.2030   25.7022 C.ar    1  <1>         0.0000
     18 C16        -8.3299  -15.8498   24.5414 C.ar    1  <1>         0.0015
     19 C17        -8.3823  -18.1678   22.3538 C.ar    1  <1>         0.1954
     20 N3         -9.3542  -17.4626   21.4549 N.ar    1  <1>        -0.2192
     21 C18       -10.7067  -18.0775   21.6614 C.ar    1  <1>         0.1039
     22 C19       -10.5707  -19.1627   22.6880 C.ar    1  <1>         0.0587
     23 S1         -9.1341  -19.2185   23.1158 S.2     1  <1>        -0.0466
     24 C20       -11.9729  -17.6774   20.9639 C.2     1  <1>         0.0911
     25 O1        -13.2977  -17.8872   21.6355 O.co2   1  <1>        -0.5430
     26 O2        -11.9144  -17.0676   19.5947 O.co2   1  <1>        -0.5430
@<TRIPOS>UNITY_ATOM_ATTR
25 1
charge -1
@<TRIPOS>BOND
     1     1     2    1
     2     2     3   ar
     3     3     7    1
     4     7     8   ar
     5     8     9   ar
     6     9    10   ar
     7    10    11   ar
     8    11    12   ar
     9     3     4   ar
    10     4     5   ar
    11     5    19    1
    12    19    20   ar
    13    20    21   ar
    14    21    24    1
    15    24    25   ar
    16    24    26   ar
    17    21    22   ar
    18    22    23   ar
    19     5     6   ar
    20     6    13    1
    21    13    14   ar
    22    14    15   ar
    23    15    16   ar
    24    16    17   ar
    25    17    18   ar
    26     6     2   ar
    27    18    13   ar
    28    12     7   ar
    29    23    19   ar
@<TRIPOS>MOLECULE
*****
 26 29 0 0 0
SMALL
GASTEIGER

@<TRIPOS>ATOM
      1 C1          3.6730   -0.9725   22.8021 C.3     1  <1>         0.0343
      2 C2          2.8022   -0.4161   21.7149 C.ar    1  <1>         0.0152
      3 C3          2.7722   -0.8755   20.2873 C.ar    1  <1>         0.0988
      4 N1          1.7600   -0.0459   19.5545 N.ar    1  <1>        -0.1637
      5 N2          1.1644    0.9264   20.5292 N.ar    1  <1>        -0.2070
      6 C4          1.8085    0.6976   21.8644 C.ar    1  <1>         0.0824
      7 C5          3.6078   -1.9722   19.6963 C.ar    1  <1>         0.0191
      8 C6          4.9650   -1.6629   19.1376 C.ar    1  <1>         0.0015
      9 C7          5.8005   -2.7595   18.5467 C.ar    1  <1>         0.0000
     10 C8          5.2788   -4.1655   18.5144 C.ar    1  <1>         0.0000
     11 C9          3.9216   -4.4748   19.0732 C.ar    1  <1>         0.0000
     12 C10         3.0861   -3.3782   19.6641 C.ar    1  <1>         0.0015
     13 C11         1.5112    1.4503   23.1274 C.ar    1  <1>         0.0175
     14 C12         0.5281    0.8973   24.1163 C.ar    1  <1>         0.0015
     15 C13         0.2308    1.6500   25.3792 C.ar    1  <1>         0.0000
     16 C14         0.9164    2.9557   25.6532 C.ar    1  <1>         0.0000
     17 C15         1.8995    3.5086   24.6643 C.ar    1  <1>         0.0000
     18 C16         2.1968    2.7559   23.4014 C.ar    1  <1>         0.0015
     19 C17         0.1098    1.9480   20.2225 C.ar    1  <1>         0.1954
     20 N3         -1.2254    2.0664   20.8957 N.ar    1  <1>        -0.2192
     21 C18        -1.9551    3.2222   20.2781 C.ar    1  <1>         0.1039
     22 C19        -1.0710    3.8182   19.2230 C.ar    1  <1>         0.0587
     23 S1          0.2052    3.0307   19.1887 S.2     1  <1>        -0.0466
     24 C20        -3.3280    3.6984   20.6501 C.2     1  <1>         0.0911
     25 O1         -4.2990    2.7559   21.2972 O.co2   1  <1>        -0.5430
     26 O2         -3.7299    5.1172   20.3750 O.co2   1  <1>        -0.5430
@<TRIPOS>UNITY_ATOM_ATTR
25 1
charge -1
@<TRIPOS>BOND
     1     1     2    1
     2     2     3   ar
     3     3     7    1
     4     7     8   ar
     5     8     9   ar
     6     9    10   ar
     7    10    11   ar
     8    11    12   ar
     9     3     4   ar
    10     4     5   ar
    11     5    19    1
    12    19    20   ar
    13    20    21   ar
    14    21    24    1
    15    24    25   ar
    16    24    26   ar
    17    21    22   ar
    18    22    23   ar
    19     5     6   ar
    20     6    13    1
    21    13    14   ar
    22    14    15   ar
    23    15    16   ar
    24    16    17   ar
    25    17    18   ar
    26     6     2   ar
    27    18    13   ar
    28    12     7   ar
    29    23    19   ar
@<TRIPOS>MOLECULE
*****
 26 29 0 0 0
SMALL
GASTEIGER

@<TRIPOS>ATOM
      1 C1          1.8643    0.6943   24.3197 C.3     1  <1>         0.0343
      2 C2          0.6830    1.5835   24.0668 C.ar    1  <1>         0.0152
      3 C3         -0.1929    2.2050   25.1139 C.ar    1  <1>         0.0988
      4 N1         -1.2470    3.0129   24.4167 N.ar    1  <1>        -0.1637
      5 N2         -1.0225    2.8907   22.9386 N.ar    1  <1>        -0.2070
      6 C4          0.1703    2.0073   22.7224 C.ar    1  <1>         0.0824
      7 C5         -0.0414    2.0464   26.5979 C.ar    1  <1>         0.0191
      8 C6          0.6555    3.1065   27.3982 C.ar    1  <1>         0.0015
      9 C7          0.8070    2.9478   28.8820 C.ar    1  <1>         0.0000
     10 C8          0.2616    1.7291   29.5656 C.ar    1  <1>         0.0000
     11 C9         -0.4352    0.6690   28.7653 C.ar    1  <1>         0.0000
     12 C10        -0.5868    0.8277   27.2814 C.ar    1  <1>         0.0015
     13 C11         0.7489    1.6164   21.3948 C.ar    1  <1>         0.0175
     14 C12         0.5374    0.2296   20.8636 C.ar    1  <1>         0.0015
     15 C13         1.1160   -0.1614   19.5361 C.ar    1  <1>         0.0000
     16 C14         1.9059    0.8344   18.7397 C.ar    1  <1>         0.0000
     17 C15         2.1174    2.2212   19.2709 C.ar    1  <1>         0.0000
     18 C16         1.5388    2.6122   20.5984 C.ar    1  <1>         0.0015
     19 C17        -1.8463    3.5383   21.8652 C.ar    1  <1>         0.1954
     20 N3         -2.7810    2.8351   20.9262 N.ar    1  <1>        -0.2192
     21 C18        -3.3923    3.8649   20.0230 C.ar    1  <1>         0.1039
     22 C19        -2.8353    5.2046   20.4039 C.ar    1  <1>         0.0587
     23 S1         -1.8799    5.0027   21.5424 S.2     1  <1>        -0.0466
     24 C20        -4.3860    3.6013   18.9308 C.2     1  <1>         0.0911
     25 O1         -5.7923    3.2089   19.2750 O.co2   1  <1>        -0.5430
     26 O2         -3.9735    3.7301   17.4944 O.co2   1  <1>        -0.5430
@<TRIPOS>UNITY_ATOM_ATTR
25 1
charge -1
@<TRIPOS>BOND
     1     1     2    1
     2     2     3   ar
     3     3     7    1
     4     7     8   ar
     5     8     9   ar
     6     9    10   ar
     7    10    11   ar
     8    11    12   ar
     9     3     4   ar
    10     4     5   ar
    11     5    19    1
    12    19    20   ar
    13    20    21   ar
    14    21    24    1
    15    24    25   ar
    16    24    26   ar
    17    21    22   ar
    18    22    23   ar
    19     5     6   ar
    20     6    13    1
    21    13    14   ar
    22    14    15   ar
    23    15    16   ar
    24    16    17   ar
    25    17    18   ar
    26     6     2   ar
    27    18    13   ar
    28    12     7   ar
    29    23    19   ar
