@<TRIPOS>MOLECULE
*****
 38 41 0 0 0
SMALL
GASTEIGER

@<TRIPOS>ATOM
      1 N           2.0273    1.7836   23.5561 N.am    1  UNL1       -0.2680
      2 C           2.2542    0.8407   22.4118 C.2     1  UNL1        0.3092
      3 O           1.1015    0.4128   21.5527 O.2     1  UNL1       -0.2521
      4 N           3.6338    0.3255   22.1267 N.am    1  UNL1       -0.2533
      5 H           2.7839    2.0644   24.1200 H       1  UNL1        0.1564
      6 H           4.3904    0.6063   22.6906 H       1  UNL1        0.1578
      7 C          -2.1116    3.3289   24.4114 C.ar    1  UNL1        0.0361
      8 C          -1.4384    3.6661   23.1140 C.ar    1  UNL1        0.0043
      9 C          -0.0587    3.1510   22.8289 C.ar    1  UNL1        0.0148
     10 C           0.6477    2.2987   23.8411 C.ar    1  UNL1        0.0516
     11 C          -0.0255    1.9616   25.1385 C.ar    1  UNL1        0.0148
     12 C          -1.4051    2.4767   25.4236 C.ar    1  UNL1        0.0043
     13 C          -5.2004    4.9100   26.3374 C.ar    1  UNL1        0.2311
     14 C          -6.2504    4.8743   25.2668 C.ar    1  UNL1        0.1153
     15 C          -5.9209    4.3234   23.9111 C.ar    1  UNL1        0.2311
     16 N          -4.5413    3.8083   23.6260 N.ar    1  UNL1       -0.1923
     17 C          -3.4912    3.8441   24.6965 C.ar    1  UNL1        0.1684
     18 N          -3.8208    4.3949   26.0522 N.ar    1  UNL1       -0.1923
     19 C          -6.7942    6.2415   27.8984 C.3     1  UNL1        0.2542
     20 O          -5.5299    5.4609   27.6931 O.3     1  UNL1       -0.4560
     21 O          -6.9710    4.2876   22.8405 O.3     1  UNL1       -0.4560
     22 C          -6.5899    4.5181   21.4082 C.3     1  UNL1        0.2542
     23 C           3.8607   -0.6175   20.9825 C.ar    1  UNL1        0.1380
     24 C           4.0348   -2.1038   21.0860 C.ar    1  UNL1        0.0509
     25 C           4.2350   -2.6446   19.7013 C.ar    1  UNL1        0.0810
     26 N           4.1847   -1.4925   18.7420 N.ar    1  UNL1       -0.1683
     27 N           3.9534   -0.2397   19.5338 N.ar    1  UNL1       -0.2162
     28 C           3.8354    1.1473   18.9750 C.ar    1  UNL1        0.0842
     29 C           5.0697    1.9098   18.5941 C.ar    1  UNL1        0.0189
     30 C           4.9518    3.2968   18.0353 C.ar    1  UNL1       -0.0027
     31 C           3.5997    3.9214   17.8573 C.ar    1  UNL1       -0.0218
     32 C           3.4817    5.3084   17.2985 C.3     1  UNL1        0.0310
     33 C           2.3654    3.1588   18.2382 C.ar    1  UNL1       -0.0027
     34 C           2.4832    1.7718   18.7970 C.ar    1  UNL1        0.0189
     35 C           4.4481   -4.0846   19.3395 C.3     1  UNL1        0.0372
     36 C           5.8995   -3.9596   19.6969 C.3     1  UNL1        0.0060
     37 C           2.9967   -4.2096   18.9821 C.3     1  UNL1        0.0060
     38 C           4.6612   -5.5246   18.9776 C.3     1  UNL1        0.0060
@<TRIPOS>BOND
     1    19    20    1
     2    20    13    1
     3    13    14   ar
     4    14    15   ar
     5    15    21    1
     6    21    22    1
     7    15    16   ar
     8    16    17   ar
     9    17     7    1
    10     7     8   ar
    11     8     9   ar
    12     9    10   ar
    13    10     1    1
    14     1     2   am
    15     2     3    2
    16     2     4   am
    17     4    23    1
    18    23    24   ar
    19    24    25   ar
    20    25    35    1
    21    35    36    1
    22    35    37    1
    23    35    38    1
    24    25    26   ar
    25    26    27   ar
    26    27    28    1
    27    28    29   ar
    28    29    30   ar
    29    30    31   ar
    30    31    32    1
    31    31    33   ar
    32    33    34   ar
    33    10    11   ar
    34    11    12   ar
    35    17    18   ar
    36    18    13   ar
    37    12     7   ar
    38    27    23   ar
    39    34    28   ar
    40     1     5    1
    41     4     6    1
@<TRIPOS>MOLECULE
*****
 38 41 0 0 0
SMALL
GASTEIGER

@<TRIPOS>ATOM
      1 N           2.1053    1.9009   23.4644 N.am    1  UNL1       -0.2680
      2 C           2.3426    0.9383   22.3388 C.2     1  UNL1        0.3092
      3 O           1.1899    0.4553   21.5094 O.2     1  UNL1       -0.2521
      4 N           3.7326    0.4585   22.0427 N.am    1  UNL1       -0.2533
      5 H           2.8618    2.2179   24.0088 H       1  UNL1        0.1564
      6 H           4.4892    0.7754   22.5871 H       1  UNL1        0.1578
      7 C          -2.0648    3.3402   24.3527 C.ar    1  UNL1        0.0361
      8 C          -1.4002    3.7174   23.0619 C.ar    1  UNL1        0.0043
      9 C          -0.0101    3.2377   22.7658 C.ar    1  UNL1        0.0148
     10 C           0.7153    2.3807   23.7605 C.ar    1  UNL1        0.0516
     11 C           0.0507    2.0035   25.0512 C.ar    1  UNL1        0.0148
     12 C          -1.3393    2.4832   25.3473 C.ar    1  UNL1        0.0043
     13 C          -5.9166    4.1831   23.9019 C.ar    1  UNL1        0.2311
     14 C          -6.2349    4.7794   25.2409 C.ar    1  UNL1        0.1153
     15 C          -5.1631    4.8959   26.2839 C.ar    1  UNL1        0.2311
     16 N          -3.7731    4.4162   25.9878 N.ar    1  UNL1       -0.1923
     17 C          -3.4549    3.8199   24.6488 C.ar    1  UNL1        0.1684
     18 N          -4.5266    3.7034   23.6058 N.ar    1  UNL1       -0.1923
     19 C          -6.9603    4.9568   21.6520 C.3     1  UNL1        0.2542
     20 O          -6.9883    4.0665   22.8589 O.3     1  UNL1       -0.4560
     21 O          -5.4815    5.4922   27.6230 O.3     1  UNL1       -0.4560
     22 C          -6.7436    6.2805   27.8121 C.3     1  UNL1        0.2542
     23 C           3.9699   -0.5042   20.9172 C.ar    1  UNL1        0.1380
     24 C           4.0791   -1.9952   21.0404 C.ar    1  UNL1        0.0509
     25 C           4.3163   -2.5574   19.6701 C.ar    1  UNL1        0.0810
     26 N           4.3538   -1.4139   18.7000 N.ar    1  UNL1       -0.1683
     27 N           4.1397   -0.1450   19.4708 N.ar    1  UNL1       -0.2162
     28 C           4.1020    1.2400   18.8960 C.ar    1  UNL1        0.0842
     29 C           5.3660    1.8849   18.4099 C.ar    1  UNL1        0.0189
     30 C           5.3284    3.2699   17.8351 C.ar    1  UNL1       -0.0027
     31 C           4.0267    4.0100   17.7463 C.ar    1  UNL1       -0.0218
     32 C           3.9890    5.3950   17.1715 C.3     1  UNL1        0.0310
     33 C           2.7627    3.3651   18.2324 C.ar    1  UNL1       -0.0027
     34 C           2.8003    1.9801   18.8072 C.ar    1  UNL1        0.0189
     35 C           4.4863   -4.0083   19.3297 C.3     1  UNL1        0.0372
     36 C           5.9422   -3.9199   19.6797 C.3     1  UNL1        0.0060
     37 C           3.0304   -4.0967   18.9797 C.3     1  UNL1        0.0060
     38 C           4.6562   -5.4593   18.9893 C.3     1  UNL1        0.0060
@<TRIPOS>BOND
     1    19    20    1
     2    20    13    1
     3    13    14   ar
     4    14    15   ar
     5    15    21    1
     6    21    22    1
     7    15    16   ar
     8    16    17   ar
     9    17     7    1
    10     7     8   ar
    11     8     9   ar
    12     9    10   ar
    13    10     1    1
    14     1     2   am
    15     2     3    2
    16     2     4   am
    17     4    23    1
    18    23    24   ar
    19    24    25   ar
    20    25    35    1
    21    35    36    1
    22    35    37    1
    23    35    38    1
    24    25    26   ar
    25    26    27   ar
    26    27    28    1
    27    28    29   ar
    28    29    30   ar
    29    30    31   ar
    30    31    32    1
    31    31    33   ar
    32    33    34   ar
    33    10    11   ar
    34    11    12   ar
    35    17    18   ar
    36    18    13   ar
    37    12     7   ar
    38    27    23   ar
    39    34    28   ar
    40     1     5    1
    41     4     6    1
@<TRIPOS>MOLECULE
*****
 38 41 0 0 0
SMALL
GASTEIGER

@<TRIPOS>ATOM
      1 N           2.1862   -0.8976   29.5304 N.am    1  UNL1       -0.2680
      2 C           2.7746   -0.4284   30.8279 C.2     1  UNL1        0.3092
      3 O           2.4108    0.9213   31.3719 O.2     1  UNL1       -0.2521
      4 N           3.7269   -1.3090   31.5816 N.am    1  UNL1       -0.2533
      5 H           2.4250   -1.7835   29.1734 H       1  UNL1        0.1564
      6 H           3.9656   -2.1948   31.2246 H       1  UNL1        0.1578
      7 C          -0.6704    1.7441   27.2696 C.ar    1  UNL1        0.0361
      8 C          -1.1943    0.7522   28.2654 C.ar    1  UNL1        0.0043
      9 C          -0.2421   -0.1284   29.0190 C.ar    1  UNL1        0.0148
     10 C           1.2340   -0.0170   28.7768 C.ar    1  UNL1        0.0516
     11 C           1.7579    0.9749   27.7810 C.ar    1  UNL1        0.0148
     12 C           0.8057    1.8554   27.0274 C.ar    1  UNL1        0.0043
     13 C          -2.4021    3.7059   24.2859 C.ar    1  UNL1        0.2311
     14 C          -3.5268    4.3858   25.0087 C.ar    1  UNL1        0.1153
     15 C          -3.6995    4.1852   26.4852 C.ar    1  UNL1        0.2311
     16 N          -2.7474    3.3047   27.2388 N.ar    1  UNL1       -0.1923
     17 C          -1.6226    2.6247   26.5160 C.ar    1  UNL1        0.1684
     18 N          -1.4499    2.8254   25.0395 N.ar    1  UNL1       -0.1923
     19 C          -3.3927    3.7052   21.8841 C.3     1  UNL1        0.2542
     20 O          -2.2294    3.9065   22.8094 O.3     1  UNL1       -0.4560
     21 O          -4.8244    4.8652   27.2080 O.3     1  UNL1       -0.4560
     22 C          -5.9589    5.4668   26.4328 C.3     1  UNL1        0.2542
     23 C           4.3152   -0.8398   32.8791 C.ar    1  UNL1        0.1380
     24 C           3.6789    0.1207   33.8396 C.ar    1  UNL1        0.0509
     25 C           4.6136    0.3054   34.9981 C.ar    1  UNL1        0.0810
     26 N           5.8277   -0.5410   34.7536 N.ar    1  UNL1       -0.1683
     27 N           5.6433   -1.2487   33.4440 N.ar    1  UNL1       -0.2162
     28 C           6.6161   -2.1986   32.8105 C.ar    1  UNL1        0.0842
     29 C           6.1411   -3.5235   32.2919 C.ar    1  UNL1        0.0189
     30 C           7.1138   -4.4734   31.6584 C.ar    1  UNL1       -0.0027
     31 C           8.5617   -4.0985   31.5435 C.ar    1  UNL1       -0.0218
     32 C           9.5345   -5.0483   30.9100 C.3     1  UNL1        0.0310
     33 C           9.0367   -2.7735   32.0620 C.ar    1  UNL1       -0.0027
     34 C           8.0639   -1.8236   32.6955 C.ar    1  UNL1        0.0189
     35 C           4.3761    1.1824   36.1916 C.3     1  UNL1        0.0372
     36 C           5.3060    0.3300   37.0031 C.3     1  UNL1        0.0060
     37 C           3.4462    2.0349   35.3800 C.3     1  UNL1        0.0060
     38 C           4.1385    2.0595   37.3850 C.3     1  UNL1        0.0060
@<TRIPOS>BOND
     1    19    20    1
     2    20    13    1
     3    13    14   ar
     4    14    15   ar
     5    15    21    1
     6    21    22    1
     7    15    16   ar
     8    16    17   ar
     9    17     7    1
    10     7     8   ar
    11     8     9   ar
    12     9    10   ar
    13    10     1    1
    14     1     2   am
    15     2     3    2
    16     2     4   am
    17     4    23    1
    18    23    24   ar
    19    24    25   ar
    20    25    35    1
    21    35    36    1
    22    35    37    1
    23    35    38    1
    24    25    26   ar
    25    26    27   ar
    26    27    28    1
    27    28    29   ar
    28    29    30   ar
    29    30    31   ar
    30    31    32    1
    31    31    33   ar
    32    33    34   ar
    33    10    11   ar
    34    11    12   ar
    35    17    18   ar
    36    18    13   ar
    37    12     7   ar
    38    27    23   ar
    39    34    28   ar
    40     1     5    1
    41     4     6    1
@<TRIPOS>MOLECULE
*****
 38 41 0 0 0
SMALL
GASTEIGER

@<TRIPOS>ATOM
      1 N           6.8205   -0.8241   25.7923 N.am    1  UNL1       -0.2680
      2 C           6.3199   -1.2898   27.1274 C.2     1  UNL1        0.3092
      3 O           4.8511   -1.5026   27.3452 O.2     1  UNL1       -0.2521
      4 N           7.2881   -1.5425   28.2449 N.am    1  UNL1       -0.2533
      5 H           7.7845   -0.6844   25.6494 H       1  UNL1        0.1564
      6 H           8.2522   -1.4028   28.1020 H       1  UNL1        0.1578
      7 C           3.9157   -0.0659   22.4401 C.ar    1  UNL1        0.0361
      8 C           4.4793    1.0855   23.2189 C.ar    1  UNL1        0.0043
      9 C           5.4476    0.8328   24.3364 C.ar    1  UNL1        0.0148
     10 C           5.8522   -0.5714   24.6749 C.ar    1  UNL1        0.0516
     11 C           5.2886   -1.7228   23.8960 C.ar    1  UNL1        0.0148
     12 C           4.3204   -1.4701   22.7786 C.ar    1  UNL1        0.0043
     13 C           0.6269    1.0172   20.5009 C.ar    1  UNL1        0.2311
     14 C           1.0110    0.6922   19.0878 C.ar    1  UNL1        0.1153
     15 C           2.3633    0.1146   18.7921 C.ar    1  UNL1        0.2311
     16 N           3.3316   -0.1382   19.9095 N.ar    1  UNL1       -0.1923
     17 C           2.9475    0.1868   21.3226 C.ar    1  UNL1        0.1684
     18 N           1.5951    0.7645   21.6183 N.ar    1  UNL1       -0.1923
     19 C          -0.8442    2.8420   21.6216 C.3     1  UNL1        0.2542
     20 O          -0.7255    1.5949   20.7966 O.3     1  UNL1       -0.4560
     21 O           2.7474   -0.2104   17.3790 O.3     1  UNL1       -0.4560
     22 C           4.0436   -0.9103   17.0961 C.3     1  UNL1        0.2542
     23 C           6.7876   -2.0082   29.5800 C.ar    1  UNL1        0.1380
     24 C           6.3308   -1.1287   30.7061 C.ar    1  UNL1        0.0509
     25 C           5.9169   -2.0120   31.8455 C.ar    1  UNL1        0.0810
     26 N           6.1178   -3.4374   31.4237 N.ar    1  UNL1       -0.1683
     27 N           6.6559   -3.4350   30.0235 N.ar    1  UNL1       -0.2162
     28 C           7.0016   -4.6468   29.2098 C.ar    1  UNL1        0.0842
     29 C           6.2952   -4.9052   27.9121 C.ar    1  UNL1        0.0189
     30 C           6.6409   -6.1169   27.0983 C.ar    1  UNL1       -0.0027
     31 C           7.6931   -7.0702   27.5823 C.ar    1  UNL1       -0.0218
     32 C           8.0388   -8.2820   26.7686 C.3     1  UNL1        0.0310
     33 C           8.3995   -6.8118   28.8800 C.ar    1  UNL1       -0.0027
     34 C           8.0538   -5.6001   29.6938 C.ar    1  UNL1        0.0189
     35 C           5.3938   -1.5509   33.1736 C.3     1  UNL1        0.0372
     36 C           4.4938   -2.7493   33.2352 C.3     1  UNL1        0.0060
     37 C           6.2938   -0.3526   33.1120 C.3     1  UNL1        0.0060
     38 C           4.8708   -1.0899   34.5017 C.3     1  UNL1        0.0060
@<TRIPOS>BOND
     1    19    20    1
     2    20    13    1
     3    13    14   ar
     4    14    15   ar
     5    15    21    1
     6    21    22    1
     7    15    16   ar
     8    16    17   ar
     9    17     7    1
    10     7     8   ar
    11     8     9   ar
    12     9    10   ar
    13    10     1    1
    14     1     2   am
    15     2     3    2
    16     2     4   am
    17     4    23    1
    18    23    24   ar
    19    24    25   ar
    20    25    35    1
    21    35    36    1
    22    35    37    1
    23    35    38    1
    24    25    26   ar
    25    26    27   ar
    26    27    28    1
    27    28    29   ar
    28    29    30   ar
    29    30    31   ar
    30    31    32    1
    31    31    33   ar
    32    33    34   ar
    33    10    11   ar
    34    11    12   ar
    35    17    18   ar
    36    18    13   ar
    37    12     7   ar
    38    27    23   ar
    39    34    28   ar
    40     1     5    1
    41     4     6    1
@<TRIPOS>MOLECULE
*****
 38 41 0 0 0
SMALL
GASTEIGER

@<TRIPOS>ATOM
      1 N           2.0324   -0.9012   29.5055 N.am    1  UNL1       -0.2680
      2 C           2.6861   -0.3970   30.7578 C.2     1  UNL1        0.3092
      3 O           2.3950    0.9898   31.2498 O.2     1  UNL1       -0.2521
      4 N           3.6310   -1.2797   31.5183 N.am    1  UNL1       -0.2533
      5 H           2.2235   -1.8114   29.1826 H       1  UNL1        0.1564
      6 H           3.8221   -2.1899   31.1954 H       1  UNL1        0.1578
      7 C          -0.8020    1.7468   27.2242 C.ar    1  UNL1        0.0361
      8 C          -1.3109    0.8995   28.3525 C.ar    1  UNL1        0.0043
      9 C          -0.3661    0.0168   29.1130 C.ar    1  UNL1        0.0148
     10 C           1.0876   -0.0186   28.7451 C.ar    1  UNL1        0.0516
     11 C           1.5966    0.8288   27.6167 C.ar    1  UNL1        0.0148
     12 C           0.6517    1.7114   26.8563 C.ar    1  UNL1        0.0043
     13 C          -3.8093    4.2088   26.4213 C.ar    1  UNL1        0.2311
     14 C          -3.6364    4.3948   24.9430 C.ar    1  UNL1        0.1153
     15 C          -2.5187    3.6982   24.2251 C.ar    1  UNL1        0.2311
     16 N          -1.5739    2.8155   24.9855 N.ar    1  UNL1       -0.1923
     17 C          -1.7468    2.6295   26.4638 C.ar    1  UNL1        0.1684
     18 N          -2.8645    3.3261   27.1817 N.ar    1  UNL1       -0.1923
     19 C          -6.0455    5.5299   26.3590 C.3     1  UNL1        0.2542
     20 O          -4.9270    4.9054   27.1393 O.3     1  UNL1       -0.4560
     21 O          -2.3459    3.8842   22.7467 O.3     1  UNL1       -0.4560
     22 C          -3.5081    3.6703   21.8229 C.3     1  UNL1        0.2542
     23 C           4.2847   -0.7755   32.7707 C.ar    1  UNL1        0.1380
     24 C           3.7010    0.2174   33.7316 C.ar    1  UNL1        0.0509
     25 C           4.6924    0.4308   34.8369 C.ar    1  UNL1        0.0810
     26 N           5.8889   -0.4302   34.5589 N.ar    1  UNL1       -0.1683
     27 N           5.6368   -1.1757   33.2820 N.ar    1  UNL1       -0.2162
     28 C           6.5727   -2.1504   32.6307 C.ar    1  UNL1        0.0842
     29 C           7.9397   -1.7057   32.2021 C.ar    1  UNL1        0.0189
     30 C           8.8756   -2.6802   31.5508 C.ar    1  UNL1       -0.0027
     31 C           8.4446   -4.0996   31.3281 C.ar    1  UNL1       -0.0218
     32 C           9.3805   -5.0743   30.6768 C.3     1  UNL1        0.0310
     33 C           7.0777   -4.5444   31.7567 C.ar    1  UNL1       -0.0027
     34 C           6.1417   -3.5698   32.4079 C.ar    1  UNL1        0.0189
     35 C           4.5180    1.3448   36.0134 C.3     1  UNL1        0.0372
     36 C           4.8319    0.2094   36.9419 C.3     1  UNL1        0.0060
     37 C           4.2041    2.4802   35.0849 C.3     1  UNL1        0.0060
     38 C           4.3437    2.2587   37.1899 C.3     1  UNL1        0.0060
@<TRIPOS>BOND
     1    19    20    1
     2    20    13    1
     3    13    14   ar
     4    14    15   ar
     5    15    21    1
     6    21    22    1
     7    15    16   ar
     8    16    17   ar
     9    17     7    1
    10     7     8   ar
    11     8     9   ar
    12     9    10   ar
    13    10     1    1
    14     1     2   am
    15     2     3    2
    16     2     4   am
    17     4    23    1
    18    23    24   ar
    19    24    25   ar
    20    25    35    1
    21    35    36    1
    22    35    37    1
    23    35    38    1
    24    25    26   ar
    25    26    27   ar
    26    27    28    1
    27    28    29   ar
    28    29    30   ar
    29    30    31   ar
    30    31    32    1
    31    31    33   ar
    32    33    34   ar
    33    10    11   ar
    34    11    12   ar
    35    17    18   ar
    36    18    13   ar
    37    12     7   ar
    38    27    23   ar
    39    34    28   ar
    40     1     5    1
    41     4     6    1
@<TRIPOS>MOLECULE
*****
 38 41 0 0 0
SMALL
GASTEIGER

@<TRIPOS>ATOM
      1 N           0.3339    0.2444   28.1554 N.am    1  UNL1       -0.2680
      2 C           0.5997    1.1040   26.9552 C.2     1  UNL1        0.3092
      3 O           1.4841    2.3093   27.0770 O.2     1  UNL1       -0.2521
      4 N          -0.0191    0.7582   25.6332 N.am    1  UNL1       -0.2533
      5 H          -0.2465   -0.5468   28.0755 H       1  UNL1        0.1564
      6 H          -0.5995   -0.0330   25.5533 H       1  UNL1        0.1578
      7 C           2.1901    1.2817   32.1213 C.ar    1  UNL1        0.0361
      8 C           0.9972    2.0461   31.6287 C.ar    1  UNL1        0.0043
      9 C           0.3785    1.7003   30.3067 C.ar    1  UNL1        0.0148
     10 C           0.9527    0.5902   29.4774 C.ar    1  UNL1        0.0516
     11 C           2.1456   -0.1742   29.9700 C.ar    1  UNL1        0.0148
     12 C           2.7643    0.1716   31.2919 C.ar    1  UNL1        0.0043
     13 C           4.8526    1.5989   35.0472 C.ar    1  UNL1        0.2311
     14 C           4.0465    2.3190   36.0872 C.ar    1  UNL1        0.1153
     15 C           2.6216    2.6933   35.8052 C.ar    1  UNL1        0.2311
     16 N           2.0028    2.3476   34.4833 N.ar    1  UNL1       -0.1923
     17 C           2.8089    1.6275   33.4433 C.ar    1  UNL1        0.1684
     18 N           4.2338    1.2532   33.7253 N.ar    1  UNL1       -0.1923
     19 C           6.5927   -0.0868   35.9855 C.3     1  UNL1        0.2542
     20 O           6.2775    1.2246   35.3291 O.3     1  UNL1       -0.4560
     21 O           1.8154    3.4134   36.8453 O.3     1  UNL1       -0.4560
     22 C           1.9731    3.0593   38.2943 C.3     1  UNL1        0.2542
     23 C           0.2467    1.6178   24.4330 C.ar    1  UNL1        0.1380
     24 C           1.3240    1.3986   23.4126 C.ar    1  UNL1        0.0509
     25 C           1.2249    2.4928   22.3915 C.ar    1  UNL1        0.0810
     26 N           0.0862    3.3883   22.7808 N.ar    1  UNL1       -0.1683
     27 N          -0.5183    2.8475   24.0426 N.ar    1  UNL1       -0.2162
     28 C          -1.6833    3.4336   24.7837 C.ar    1  UNL1        0.0842
     29 C          -3.0630    3.3466   24.2016 C.ar    1  UNL1        0.0189
     30 C          -4.2280    3.9326   24.9426 C.ar    1  UNL1       -0.0027
     31 C          -4.0134    4.6057   26.2659 C.ar    1  UNL1       -0.0218
     32 C          -5.1784    5.1918   27.0070 C.3     1  UNL1        0.0310
     33 C          -2.6337    4.6927   26.8480 C.ar    1  UNL1       -0.0027
     34 C          -1.4687    4.1067   26.1069 C.ar    1  UNL1        0.0189
     35 C           2.1091    2.6619   21.1917 C.3     1  UNL1        0.0372
     36 C           1.8748    4.1430   21.2277 C.3     1  UNL1        0.0060
     37 C           2.3435    1.1808   21.1557 C.3     1  UNL1        0.0060
     38 C           2.9934    2.8310   19.9919 C.3     1  UNL1        0.0060
@<TRIPOS>BOND
     1    19    20    1
     2    20    13    1
     3    13    14   ar
     4    14    15   ar
     5    15    21    1
     6    21    22    1
     7    15    16   ar
     8    16    17   ar
     9    17     7    1
    10     7     8   ar
    11     8     9   ar
    12     9    10   ar
    13    10     1    1
    14     1     2   am
    15     2     3    2
    16     2     4   am
    17     4    23    1
    18    23    24   ar
    19    24    25   ar
    20    25    35    1
    21    35    36    1
    22    35    37    1
    23    35    38    1
    24    25    26   ar
    25    26    27   ar
    26    27    28    1
    27    28    29   ar
    28    29    30   ar
    29    30    31   ar
    30    31    32    1
    31    31    33   ar
    32    33    34   ar
    33    10    11   ar
    34    11    12   ar
    35    17    18   ar
    36    18    13   ar
    37    12     7   ar
    38    27    23   ar
    39    34    28   ar
    40     1     5    1
    41     4     6    1
@<TRIPOS>MOLECULE
*****
 38 41 0 0 0
SMALL
GASTEIGER

@<TRIPOS>ATOM
      1 N           0.3349    0.1927   28.0452 N.am    1  UNL1       -0.2680
      2 C           0.5926    1.0569   26.8466 C.2     1  UNL1        0.3092
      3 O           1.4876    2.2549   26.9643 O.2     1  UNL1       -0.2521
      4 N          -0.0446    0.7232   25.5303 N.am    1  UNL1       -0.2533
      5 H          -0.2525   -0.5936   27.9679 H       1  UNL1        0.1564
      6 H          -0.6321   -0.0630   25.4530 H       1  UNL1        0.1578
      7 C           2.2467    1.1938   31.9939 C.ar    1  UNL1        0.0361
      8 C           1.0925    2.0094   31.4912 C.ar    1  UNL1        0.0043
      9 C           0.4552    1.6757   30.1749 C.ar    1  UNL1        0.0148
     10 C           0.9721    0.5264   29.3614 C.ar    1  UNL1        0.0516
     11 C           2.1263   -0.2892   29.8641 C.ar    1  UNL1        0.0148
     12 C           2.7635    0.0445   31.1804 C.ar    1  UNL1        0.0043
     13 C           2.7107    2.5103   35.7089 C.ar    1  UNL1        0.2311
     14 C           4.1584    2.1949   35.9427 C.ar    1  UNL1        0.1153
     15 C           4.9689    1.5458   34.8602 C.ar    1  UNL1        0.2311
     16 N           4.3316    1.2121   33.5440 N.ar    1  UNL1       -0.1923
     17 C           2.8840    1.5275   33.3102 C.ar    1  UNL1        0.1684
     18 N           2.0735    2.1766   34.3927 N.ar    1  UNL1       -0.1923
     19 C           1.5046    4.6012   36.6699 C.3     1  UNL1        0.2542
     20 O           1.9003    3.1595   36.7914 O.3     1  UNL1       -0.4560
     21 O           6.4166    1.2303   35.0940 O.3     1  UNL1       -0.4560
     22 C           6.9990   -0.0499   34.5725 C.3     1  UNL1        0.2542
     23 C           0.2131    1.5875   24.3317 C.ar    1  UNL1        0.1380
     24 C           1.2810    1.3699   23.3010 C.ar    1  UNL1        0.0509
     25 C           1.1761    2.4690   22.2857 C.ar    1  UNL1        0.0810
     26 N           0.0433    3.3659   22.6889 N.ar    1  UNL1       -0.1683
     27 N          -0.5518    2.8211   23.9534 N.ar    1  UNL1       -0.2162
     28 C          -1.7087    3.4070   24.7072 C.ar    1  UNL1        0.0842
     29 C          -1.4890    4.0258   26.0558 C.ar    1  UNL1        0.0189
     30 C          -2.6458    4.6118   26.8097 C.ar    1  UNL1       -0.0027
     31 C          -4.0225    4.5789   26.2149 C.ar    1  UNL1       -0.0218
     32 C          -5.1794    5.1649   26.9687 C.3     1  UNL1        0.0310
     33 C          -4.2422    3.9601   24.8663 C.ar    1  UNL1       -0.0027
     34 C          -3.0854    3.3742   24.1125 C.ar    1  UNL1        0.0189
     35 C           2.0504    2.6411   21.0791 C.3     1  UNL1        0.0372
     36 C           3.0756    1.7343   21.6926 C.3     1  UNL1        0.0060
     37 C           1.0251    3.5479   20.4655 C.3     1  UNL1        0.0060
     38 C           2.9247    2.8132   19.8724 C.3     1  UNL1        0.0060
@<TRIPOS>BOND
     1    19    20    1
     2    20    13    1
     3    13    14   ar
     4    14    15   ar
     5    15    21    1
     6    21    22    1
     7    15    16   ar
     8    16    17   ar
     9    17     7    1
    10     7     8   ar
    11     8     9   ar
    12     9    10   ar
    13    10     1    1
    14     1     2   am
    15     2     3    2
    16     2     4   am
    17     4    23    1
    18    23    24   ar
    19    24    25   ar
    20    25    35    1
    21    35    36    1
    22    35    37    1
    23    35    38    1
    24    25    26   ar
    25    26    27   ar
    26    27    28    1
    27    28    29   ar
    28    29    30   ar
    29    30    31   ar
    30    31    32    1
    31    31    33   ar
    32    33    34   ar
    33    10    11   ar
    34    11    12   ar
    35    17    18   ar
    36    18    13   ar
    37    12     7   ar
    38    27    23   ar
    39    34    28   ar
    40     1     5    1
    41     4     6    1
@<TRIPOS>MOLECULE
*****
 38 41 0 0 0
SMALL
GASTEIGER

@<TRIPOS>ATOM
      1 N           0.4189    0.1673   27.8091 N.am    1  UNL1       -0.2680
      2 C           0.7913    1.0077   26.6238 C.2     1  UNL1        0.3092
      3 O           1.7437    2.1549   26.7873 O.2     1  UNL1       -0.2521
      4 N           0.2113    0.7008   25.2749 N.am    1  UNL1       -0.2533
      5 H          -0.2062   -0.5857   27.7018 H       1  UNL1        0.1564
      6 H          -0.4138   -0.0522   25.1675 H       1  UNL1        0.1578
      7 C           2.1590    1.0879   31.8557 C.ar    1  UNL1        0.0361
      8 C           1.0174    1.9046   31.3268 C.ar    1  UNL1        0.0043
      9 C           0.4373    1.5977   29.9779 C.ar    1  UNL1        0.0148
     10 C           0.9989    0.4742   29.1579 C.ar    1  UNL1        0.0516
     11 C           2.1405   -0.3425   29.6869 C.ar    1  UNL1        0.0148
     12 C           2.7205   -0.0356   31.0357 C.ar    1  UNL1        0.0043
     13 C           4.6326    1.1015   34.9591 C.ar    1  UNL1        0.2311
     14 C           3.8991    2.0084   35.9022 C.ar    1  UNL1        0.1153
     15 C           2.5856    2.6085   35.4965 C.ar    1  UNL1        0.2311
     16 N           2.0056    2.3017   34.1477 N.ar    1  UNL1       -0.1923
     17 C           2.7390    1.3948   33.2046 C.ar    1  UNL1        0.1684
     18 N           4.0525    0.7947   33.6103 N.ar    1  UNL1       -0.1923
     19 C           6.3242    0.4346   36.8147 C.3     1  UNL1        0.2542
     20 O           5.9461    0.5014   35.3648 O.3     1  UNL1       -0.4560
     21 O           1.8522    3.5155   36.4397 O.3     1  UNL1       -0.4560
     22 C           1.8159    3.2016   37.9060 C.3     1  UNL1        0.2542
     23 C           0.5837    1.5412   24.0896 C.ar    1  UNL1        0.1380
     24 C          -0.0658    2.8312   23.6843 C.ar    1  UNL1        0.0509
     25 C           0.6201    3.3264   22.4457 C.ar    1  UNL1        0.0810
     26 N           1.6934    2.3425   22.0853 N.ar    1  UNL1       -0.1683
     27 N           1.6709    1.2392   23.1013 N.ar    1  UNL1       -0.2162
     28 C           2.5767    0.0438   23.1249 C.ar    1  UNL1        0.0842
     29 C           3.2502   -0.3618   24.4023 C.ar    1  UNL1        0.0189
     30 C           4.1560   -1.5572   24.4259 C.ar    1  UNL1       -0.0027
     31 C           4.3882   -2.3471   23.1721 C.ar    1  UNL1       -0.0218
     32 C           5.2940   -3.5425   23.1956 C.3     1  UNL1        0.0310
     33 C           3.7147   -1.9416   21.8947 C.ar    1  UNL1       -0.0027
     34 C           2.8089   -0.7462   21.8710 C.ar    1  UNL1        0.0189
     35 C           0.2904    4.5846   21.6985 C.3     1  UNL1        0.0372
     36 C           0.6919    3.9259   20.4121 C.3     1  UNL1        0.0060
     37 C          -0.1110    5.2434   22.9849 C.3     1  UNL1        0.0060
     38 C          -0.0392    5.8428   20.9514 C.3     1  UNL1        0.0060
@<TRIPOS>BOND
     1    19    20    1
     2    20    13    1
     3    13    14   ar
     4    14    15   ar
     5    15    21    1
     6    21    22    1
     7    15    16   ar
     8    16    17   ar
     9    17     7    1
    10     7     8   ar
    11     8     9   ar
    12     9    10   ar
    13    10     1    1
    14     1     2   am
    15     2     3    2
    16     2     4   am
    17     4    23    1
    18    23    24   ar
    19    24    25   ar
    20    25    35    1
    21    35    36    1
    22    35    37    1
    23    35    38    1
    24    25    26   ar
    25    26    27   ar
    26    27    28    1
    27    28    29   ar
    28    29    30   ar
    29    30    31   ar
    30    31    32    1
    31    31    33   ar
    32    33    34   ar
    33    10    11   ar
    34    11    12   ar
    35    17    18   ar
    36    18    13   ar
    37    12     7   ar
    38    27    23   ar
    39    34    28   ar
    40     1     5    1
    41     4     6    1
@<TRIPOS>MOLECULE
*****
 38 41 0 0 0
SMALL
GASTEIGER

@<TRIPOS>ATOM
      1 N           7.2185   -0.7184   27.0688 N.am    1  UNL1       -0.2680
      2 C           6.7007   -1.1332   28.4141 C.2     1  UNL1        0.3092
      3 O           5.2917   -1.6279   28.5555 O.2     1  UNL1       -0.2521
      4 N           7.5920   -1.0534   29.6180 N.am    1  UNL1       -0.2533
      5 H           8.1433   -0.3937   26.9760 H       1  UNL1        0.1564
      6 H           8.5168   -0.7287   29.5252 H       1  UNL1        0.1578
      7 C           4.5447   -0.9579   23.4573 C.ar    1  UNL1        0.0361
      8 C           5.2067   -2.1967   23.9838 C.ar    1  UNL1        0.0043
      9 C           6.0980   -2.1169   25.1877 C.ar    1  UNL1        0.0148
     10 C           6.3273   -0.7983   25.8650 C.ar    1  UNL1        0.0516
     11 C           5.6653    0.4405   25.3384 C.ar    1  UNL1        0.0148
     12 C           4.7740    0.3607   24.1345 C.ar    1  UNL1        0.0043
     13 C           3.1637   -1.9578   19.8735 C.ar    1  UNL1        0.2311
     14 C           1.8710   -1.1975   19.8457 C.ar    1  UNL1        0.1153
     15 C           1.4695   -0.3573   21.0217 C.ar    1  UNL1        0.2311
     16 N           2.3607   -0.2775   22.2255 N.ar    1  UNL1       -0.1923
     17 C           3.6534   -1.0378   22.2534 C.ar    1  UNL1        0.1684
     18 N           4.0549   -1.8779   21.0774 N.ar    1  UNL1       -0.1923
     19 C           4.3112   -4.0813   18.9125 C.3     1  UNL1        0.2542
     20 O           3.5652   -2.7979   18.6975 O.3     1  UNL1       -0.4560
     21 O           0.1767    0.4030   20.9938 O.3     1  UNL1       -0.4560
     22 C           0.0845    1.6983   20.2429 C.3     1  UNL1        0.2542
     23 C           7.0742   -1.4682   30.9633 C.ar    1  UNL1        0.1380
     24 C           6.4807   -0.5590   31.9983 C.ar    1  UNL1        0.0509
     25 C           6.0987   -1.3939   33.1845 C.ar    1  UNL1        0.0810
     26 N           6.4562   -2.8191   32.8826 N.ar    1  UNL1       -0.1683
     27 N           7.0591   -2.8650   31.5098 N.ar    1  UNL1       -0.2162
     28 C           7.5591   -4.0922   30.8070 C.ar    1  UNL1        0.0842
     29 C           6.7610   -4.6933   29.6883 C.ar    1  UNL1        0.0189
     30 C           7.2609   -5.9205   28.9854 C.ar    1  UNL1       -0.0027
     31 C           8.5590   -6.5467   29.4014 C.ar    1  UNL1       -0.0218
     32 C           9.0590   -7.7739   28.6986 C.3     1  UNL1        0.0310
     33 C           9.3571   -5.9456   30.5202 C.ar    1  UNL1       -0.0027
     34 C           8.8572   -4.7184   31.2230 C.ar    1  UNL1        0.0189
     35 C           5.4697   -0.8919   34.4503 C.3     1  UNL1        0.0372
     36 C           4.2116   -1.6398   34.1218 C.3     1  UNL1        0.0060
     37 C           6.7277   -0.1439   34.7787 C.3     1  UNL1        0.0060
     38 C           4.8407   -0.3898   35.7160 C.3     1  UNL1        0.0060
@<TRIPOS>BOND
     1    19    20    1
     2    20    13    1
     3    13    14   ar
     4    14    15   ar
     5    15    21    1
     6    21    22    1
     7    15    16   ar
     8    16    17   ar
     9    17     7    1
    10     7     8   ar
    11     8     9   ar
    12     9    10   ar
    13    10     1    1
    14     1     2   am
    15     2     3    2
    16     2     4   am
    17     4    23    1
    18    23    24   ar
    19    24    25   ar
    20    25    35    1
    21    35    36    1
    22    35    37    1
    23    35    38    1
    24    25    26   ar
    25    26    27   ar
    26    27    28    1
    27    28    29   ar
    28    29    30   ar
    29    30    31   ar
    30    31    32    1
    31    31    33   ar
    32    33    34   ar
    33    10    11   ar
    34    11    12   ar
    35    17    18   ar
    36    18    13   ar
    37    12     7   ar
    38    27    23   ar
    39    34    28   ar
    40     1     5    1
    41     4     6    1
