@<TRIPOS>MOLECULE
*****
 33 38 0 0 0
SMALL
GASTEIGER

@<TRIPOS>ATOM
      1 O          -1.7645    3.4087   20.9333 O.2     1  UNL1       -0.2463
      2 C          -1.2661    2.9999   22.2877 C.ar    1  UNL1        0.3316
      3 N          -1.8806    3.3753   23.6036 N.ar    1  UNL1       -0.2774
      4 C          -1.0600    2.7513   24.6932 C.ar    1  UNL1        0.0798
      5 C          -1.1892    2.7778   26.1874 C.ar    1  UNL1        0.0188
      6 C          -0.1968    2.0432   27.0391 C.ar    1  UNL1        0.0016
      7 C           0.9248    1.2821   26.3967 C.ar    1  UNL1        0.0016
      8 C           1.0540    1.2556   24.9025 C.ar    1  UNL1        0.0188
      9 C           0.0616    1.9902   24.0508 C.ar    1  UNL1        0.0796
     10 N          -0.0658    2.1438   22.5641 N.ar    1  UNL1       -0.2817
     11 C           0.8469    1.5463   21.5346 C.3     1  UNL1        0.0926
     12 C           2.3107    1.8732   21.5498 C.3     1  UNL1        0.0401
     13 C           3.2234    1.2756   20.5203 C.3     1  UNL1        0.0740
     14 N           2.6723    0.3511   19.4755 N.3     1  UNL1       -0.2726
     15 C           1.2084    0.0242   19.4603 C.3     1  UNL1        0.0740
     16 C           0.2957    0.6217   20.4898 C.3     1  UNL1        0.0401
     17 C           3.5850   -0.2464   18.4460 C.3     1  UNL1        0.0720
     18 C           4.0554   -1.6632   18.5926 C.3     1  UNL1        0.0160
     19 C           3.2093   -2.8367   18.9888 C.3     1  UNL1        0.0013
     20 C           3.2279   -4.3142   19.2466 C.3     1  UNL1        0.0000
     21 C           4.6272   -4.8061   19.0228 C.3     1  UNL1        0.0000
     22 C           5.4733   -3.6326   18.6267 C.3     1  UNL1        0.0000
     23 C           4.0856   -4.0539   19.0098 C.3     1  UNL1        0.0000
     24 C           5.4547   -2.1551   18.3688 C.3     1  UNL1        0.0013
     25 C           6.0336   -0.8204   18.0035 C.3     1  UNL1        0.0000
     26 C           6.9099   -2.0376   18.0245 C.3     1  UNL1        0.0000
     27 C          -3.1013    4.2255   23.7960 C.3     1  UNL1        0.1422
     28 C          -4.4662    3.6105   23.7013 C.3     1  UNL1        0.1623
     29 O          -5.1834    3.1810   24.9468 O.3     1  UNL1       -0.3799
     30 H          -4.6295    3.3702   25.7204 H       1  UNL1        0.2105
     31 C          -5.1139    3.4250   22.3612 C.3     1  UNL1        0.1683
     32 O          -4.5494    2.4347   21.3861 O.3     1  UNL1       -0.3794
     33 H          -3.6691    2.7265   21.1020 H       1  UNL1        0.2105
@<TRIPOS>BOND
     1     1     2    2
     2     2     3   ar
     3     3    27    1
     4    27    28    1
     5    28    29    1
     6    28    31    1
     7    31    32    1
     8     3     4   ar
     9     4     5   ar
    10     5     6   ar
    11     6     7   ar
    12     7     8   ar
    13     8     9   ar
    14     9    10   ar
    15    10    11    1
    16    11    12    1
    17    12    13    1
    18    13    14    1
    19    14    17    1
    20    18    17    1
    21    18    19    1
    22    19    20    1
    23    20    21    1
    24    22    21    1
    25    22    23    1
    26    22    24    1
    27    24    25    1
    28    25    26    1
    29    14    15    1
    30    15    16    1
    31    10     2   ar
    32    16    11    1
    33     9     4   ar
    34    24    18    1
    35    23    19    1
    36    26    24    1
    37    29    30    1
    38    32    33    1
@<TRIPOS>MOLECULE
*****
 33 38 0 0 0
SMALL
GASTEIGER

@<TRIPOS>ATOM
      1 O           5.6605   -0.6985   29.2494 O.2     1  UNL1       -0.2463
      2 C           6.1776   -2.0834   28.9950 C.ar    1  UNL1        0.3316
      3 N           6.7061   -3.0313   30.0305 N.ar    1  UNL1       -0.2774
      4 C           7.1120   -4.2973   29.3359 C.ar    1  UNL1        0.0798
      5 C           7.6986   -5.5793   29.8480 C.ar    1  UNL1        0.0188
      6 C           8.0076   -6.6959   28.8953 C.ar    1  UNL1        0.0016
      7 C           7.7300   -6.5305   27.4305 C.ar    1  UNL1        0.0016
      8 C           7.1434   -5.2485   26.9184 C.ar    1  UNL1        0.0188
      9 C           6.8344   -4.1319   27.8711 C.ar    1  UNL1        0.0796
     10 N           6.2569   -2.7636   27.6604 N.ar    1  UNL1       -0.2817
     11 C           5.8331   -2.1784   26.3460 C.3     1  UNL1        0.0926
     12 C           4.3969   -1.8117   26.1164 C.3     1  UNL1        0.0401
     13 C           3.9731   -1.2264   24.8019 C.3     1  UNL1        0.0740
     14 N           4.9856   -1.0079   23.7169 N.3     1  UNL1       -0.2726
     15 C           6.4218   -1.3746   23.9464 C.3     1  UNL1        0.0740
     16 C           6.8456   -1.9598   25.2609 C.3     1  UNL1        0.0401
     17 C           4.5618   -0.4226   22.4024 C.3     1  UNL1        0.0720
     18 C           4.1531   -1.3254   21.2764 C.3     1  UNL1        0.0160
     19 C           4.9735   -2.4396   20.6974 C.3     1  UNL1        0.0013
     20 C           4.9899   -3.5211   19.6581 C.3     1  UNL1        0.0000
     21 C           3.6889   -3.4681   18.9134 C.3     1  UNL1        0.0000
     22 C           2.8684   -2.3538   19.4925 C.3     1  UNL1        0.0000
     23 C           4.1796   -3.0753   19.5948 C.3     1  UNL1        0.0000
     24 C           2.8520   -1.2724   20.5317 C.3     1  UNL1        0.0013
     25 C           2.2785   -0.1188   21.3000 C.3     1  UNL1        0.0000
     26 C           1.4846   -0.7544   20.1975 C.3     1  UNL1        0.0000
     27 C           6.8103   -2.7607   31.5022 C.3     1  UNL1        0.1422
     28 C           5.8982   -3.4669   32.4611 C.3     1  UNL1        0.1623
     29 O           6.1110   -4.9200   32.7666 O.3     1  UNL1       -0.3799
     30 H           6.8739   -5.2475   32.2649 H       1  UNL1        0.2105
     31 C           4.7734   -2.7200   33.1145 C.3     1  UNL1        0.1683
     32 O           3.6359   -3.4729   33.7383 O.3     1  UNL1       -0.3794
     33 H           3.1406   -3.9409   33.0480 H       1  UNL1        0.2105
@<TRIPOS>BOND
     1     1     2    2
     2     2     3   ar
     3     3    27    1
     4    27    28    1
     5    28    29    1
     6    28    31    1
     7    31    32    1
     8     3     4   ar
     9     4     5   ar
    10     5     6   ar
    11     6     7   ar
    12     7     8   ar
    13     8     9   ar
    14     9    10   ar
    15    10    11    1
    16    11    12    1
    17    12    13    1
    18    13    14    1
    19    14    17    1
    20    18    17    1
    21    18    19    1
    22    19    20    1
    23    20    21    1
    24    22    21    1
    25    22    23    1
    26    22    24    1
    27    24    25    1
    28    25    26    1
    29    14    15    1
    30    15    16    1
    31    10     2   ar
    32    16    11    1
    33     9     4   ar
    34    24    18    1
    35    23    19    1
    36    26    24    1
    37    29    30    1
    38    32    33    1
@<TRIPOS>MOLECULE
*****
 33 38 0 0 0
SMALL
GASTEIGER

@<TRIPOS>ATOM
      1 O           5.8200   -2.1927   25.9125 O.2     1  UNL1       -0.2463
      2 C           6.6120   -3.3836   25.4604 C.ar    1  UNL1        0.3316
      3 N           7.4195   -4.2912   26.3404 N.ar    1  UNL1       -0.2774
      4 C           8.0422   -5.3445   25.4728 C.ar    1  UNL1        0.0798
      5 C           8.9394   -6.5041   25.7894 C.ar    1  UNL1        0.0188
      6 C           9.4140   -7.4072   24.6897 C.ar    1  UNL1        0.0016
      7 C           8.9914   -7.1506   23.2736 C.ar    1  UNL1        0.0016
      8 C           8.0942   -5.9910   22.9570 C.ar    1  UNL1        0.0188
      9 C           7.6196   -5.0880   24.0566 C.ar    1  UNL1        0.0796
     10 N           6.7357   -3.8760   24.0490 N.ar    1  UNL1       -0.2817
     11 C           6.0890   -3.2640   22.8418 C.3     1  UNL1        0.0926
     12 C           6.6352   -1.9934   22.2614 C.3     1  UNL1        0.0401
     13 C           5.9886   -1.3814   21.0542 C.3     1  UNL1        0.0740
     14 N           4.7956   -2.0401   20.4274 N.3     1  UNL1       -0.2726
     15 C           4.2493   -3.3108   21.0078 C.3     1  UNL1        0.0740
     16 C           4.8960   -3.9228   22.2150 C.3     1  UNL1        0.0401
     17 C           4.1489   -1.4281   19.2202 C.3     1  UNL1        0.0720
     18 C           3.0227   -0.4515   19.3867 C.3     1  UNL1        0.0160
     19 C           1.6999   -0.7333   20.0355 C.3     1  UNL1        0.0013
     20 C           0.3764   -0.1313   20.4042 C.3     1  UNL1        0.0000
     21 C           0.3753    1.2986   19.9512 C.3     1  UNL1        0.0000
     22 C           1.6981    1.5804   19.3025 C.3     1  UNL1        0.0000
     23 C           0.8812    0.5225   19.9834 C.3     1  UNL1        0.0000
     24 C           3.0215    0.9785   18.9337 C.3     1  UNL1        0.0013
     25 C           4.4051    0.9606   18.3544 C.3     1  UNL1        0.0000
     26 C           3.5864    2.2163   18.3023 C.3     1  UNL1        0.0000
     27 C           7.5767   -4.1672   27.8270 C.3     1  UNL1        0.1422
     28 C           6.6795   -4.9452   28.7435 C.3     1  UNL1        0.1623
     29 O           5.6069   -5.8255   28.1738 O.3     1  UNL1       -0.3799
     30 H           5.6297   -5.7775   27.2053 H       1  UNL1        0.2105
     31 C           6.8551   -4.8428   30.2297 C.3     1  UNL1        0.1683
     32 O           6.4621   -5.9904   31.1120 O.3     1  UNL1       -0.3794
     33 H           5.5012   -6.1161   31.0703 H       1  UNL1        0.2105
@<TRIPOS>BOND
     1     1     2    2
     2     2     3   ar
     3     3    27    1
     4    27    28    1
     5    28    29    1
     6    28    31    1
     7    31    32    1
     8     3     4   ar
     9     4     5   ar
    10     5     6   ar
    11     6     7   ar
    12     7     8   ar
    13     8     9   ar
    14     9    10   ar
    15    10    11    1
    16    11    12    1
    17    12    13    1
    18    13    14    1
    19    14    17    1
    20    18    17    1
    21    18    19    1
    22    19    20    1
    23    20    21    1
    24    22    21    1
    25    22    23    1
    26    22    24    1
    27    24    25    1
    28    25    26    1
    29    14    15    1
    30    15    16    1
    31    10     2   ar
    32    16    11    1
    33     9     4   ar
    34    24    18    1
    35    23    19    1
    36    26    24    1
    37    29    30    1
    38    32    33    1
@<TRIPOS>MOLECULE
*****
 33 38 0 0 0
SMALL
GASTEIGER

@<TRIPOS>ATOM
      1 O           4.1398    0.2842   26.5342 O.2     1  UNL1       -0.2463
      2 C           2.7953    0.9373   26.4077 C.ar    1  UNL1        0.3316
      3 N           1.9739    1.4896   27.5347 N.ar    1  UNL1       -0.2774
      4 C           0.7072    2.0464   26.9556 C.ar    1  UNL1        0.0798
      5 C          -0.4764    2.7160   27.5886 C.ar    1  UNL1        0.0188
      6 C          -1.6214    3.1775   26.7365 C.ar    1  UNL1        0.0016
      7 C          -1.5828    2.9693   25.2516 C.ar    1  UNL1        0.0016
      8 C          -0.3993    2.2997   24.6186 C.ar    1  UNL1        0.0188
      9 C           0.7457    1.8382   25.4706 C.ar    1  UNL1        0.0796
     10 N           2.0363    1.1528   25.1320 N.ar    1  UNL1       -0.2817
     11 C           2.4884    0.7529   23.7588 C.3     1  UNL1        0.0926
     12 C           2.8442   -0.6758   23.4726 C.3     1  UNL1        0.0401
     13 C           3.2963   -1.0756   22.0994 C.3     1  UNL1        0.0740
     14 N           3.3926   -0.0466   21.0123 N.3     1  UNL1       -0.2726
     15 C           3.0367    1.3822   21.2984 C.3     1  UNL1        0.0740
     16 C           2.5846    1.7820   22.6716 C.3     1  UNL1        0.0401
     17 C           3.8447   -0.4464   19.6390 C.3     1  UNL1        0.0720
     18 C           4.2269   -1.8698   19.3600 C.3     1  UNL1        0.0160
     19 C           3.2953   -3.0453   19.3408 C.3     1  UNL1        0.0013
     20 C           3.2172   -4.5284   19.1308 C.3     1  UNL1        0.0000
     21 C           4.5981   -5.0262   18.8220 C.3     1  UNL1        0.0000
     22 C           5.5296   -3.8507   18.8411 C.3     1  UNL1        0.0000
     23 C           4.1004   -4.2696   19.0202 C.3     1  UNL1        0.0000
     24 C           5.6077   -2.3675   19.0512 C.3     1  UNL1        0.0013
     25 C           6.2800   -1.0295   19.1387 C.3     1  UNL1        0.0000
     26 C           7.0851   -2.2537   18.8181 C.3     1  UNL1        0.0000
     27 C           2.3527    1.4858   28.9861 C.3     1  UNL1        0.1422
     28 C           1.4170    0.9036   30.0039 C.3     1  UNL1        0.1623
     29 O           1.2416   -0.5831   30.0976 O.3     1  UNL1       -0.3799
     30 H           1.8007   -1.0171   29.4343 H       1  UNL1        0.2105
     31 C           0.6569    1.8083   30.9279 C.3     1  UNL1        0.1683
     32 O           0.8460    1.6952   32.4116 O.3     1  UNL1       -0.3794
     33 H           0.5134    0.8361   32.7154 H       1  UNL1        0.2105
@<TRIPOS>BOND
     1     1     2    2
     2     2     3   ar
     3     3    27    1
     4    27    28    1
     5    28    29    1
     6    28    31    1
     7    31    32    1
     8     3     4   ar
     9     4     5   ar
    10     5     6   ar
    11     6     7   ar
    12     7     8   ar
    13     8     9   ar
    14     9    10   ar
    15    10    11    1
    16    11    12    1
    17    12    13    1
    18    13    14    1
    19    14    17    1
    20    18    17    1
    21    18    19    1
    22    19    20    1
    23    20    21    1
    24    22    21    1
    25    22    23    1
    26    22    24    1
    27    24    25    1
    28    25    26    1
    29    14    15    1
    30    15    16    1
    31    10     2   ar
    32    16    11    1
    33     9     4   ar
    34    24    18    1
    35    23    19    1
    36    26    24    1
    37    29    30    1
    38    32    33    1
@<TRIPOS>MOLECULE
*****
 33 38 0 0 0
SMALL
GASTEIGER

@<TRIPOS>ATOM
      1 O           7.8963   -2.3959   27.1070 O.2     1  UNL1       -0.2463
      2 C           8.2368   -3.8518   27.2270 C.ar    1  UNL1        0.3316
      3 N           8.7135   -4.5464   28.4680 N.ar    1  UNL1       -0.2774
      4 C           8.9317   -5.9926   28.1351 C.ar    1  UNL1        0.0798
      5 C           9.3975   -7.1539   28.9624 C.ar    1  UNL1        0.0188
      6 C           9.5214   -8.5143   28.3429 C.ar    1  UNL1        0.0016
      7 C           9.1796   -8.7134   26.8960 C.ar    1  UNL1        0.0016
      8 C           8.7138   -7.5522   26.0686 C.ar    1  UNL1        0.0188
      9 C           8.5898   -6.1918   26.6882 C.ar    1  UNL1        0.0796
     10 N           8.1604   -4.8687   26.1270 N.ar    1  UNL1       -0.2817
     11 C           7.7300   -4.6082   24.7138 C.3     1  UNL1        0.0926
     12 C           8.6782   -4.8681   23.5811 C.3     1  UNL1        0.0401
     13 C           8.2479   -4.6077   22.1679 C.3     1  UNL1        0.0740
     14 N           6.8693   -4.0873   21.8875 N.3     1  UNL1       -0.2726
     15 C           5.9210   -3.8274   23.0203 C.3     1  UNL1        0.0740
     16 C           6.3513   -4.0879   24.4335 C.3     1  UNL1        0.0401
     17 C           6.4389   -3.8269   20.4744 C.3     1  UNL1        0.0720
     18 C           5.2049   -3.0184   20.2031 C.3     1  UNL1        0.0160
     19 C           5.0158   -1.5646   20.5204 C.3     1  UNL1        0.0013
     20 C           4.0470   -0.4220   20.4445 C.3     1  UNL1        0.0000
     21 C           2.7855   -0.9255   19.8082 C.3     1  UNL1        0.0000
     22 C           2.9746   -2.3793   19.4908 C.3     1  UNL1        0.0000
     23 C           3.6374   -1.1696   20.0802 C.3     1  UNL1        0.0000
     24 C           3.9434   -3.5219   19.5667 C.3     1  UNL1        0.0013
     25 C           4.4169   -4.9321   19.3739 C.3     1  UNL1        0.0000
     26 C           3.0385   -4.5370   18.9338 C.3     1  UNL1        0.0000
     27 C           8.9334   -3.9071   29.8071 C.3     1  UNL1        0.1422
     28 C           8.4604   -4.5950   31.0534 C.3     1  UNL1        0.1623
     29 O           9.4564   -5.1629   32.0206 O.3     1  UNL1       -0.3799
     30 H          10.3546   -5.0010   31.6922 H       1  UNL1        0.2105
     31 C           6.9915   -4.7150   31.3324 C.3     1  UNL1        0.1683
     32 O           6.5060   -5.6363   32.4120 O.3     1  UNL1       -0.3794
     33 H           6.6999   -6.5541   32.1651 H       1  UNL1        0.2105
@<TRIPOS>BOND
     1     1     2    2
     2     2     3   ar
     3     3    27    1
     4    27    28    1
     5    28    29    1
     6    28    31    1
     7    31    32    1
     8     3     4   ar
     9     4     5   ar
    10     5     6   ar
    11     6     7   ar
    12     7     8   ar
    13     8     9   ar
    14     9    10   ar
    15    10    11    1
    16    11    12    1
    17    12    13    1
    18    13    14    1
    19    14    17    1
    20    18    17    1
    21    18    19    1
    22    19    20    1
    23    20    21    1
    24    22    21    1
    25    22    23    1
    26    22    24    1
    27    24    25    1
    28    25    26    1
    29    14    15    1
    30    15    16    1
    31    10     2   ar
    32    16    11    1
    33     9     4   ar
    34    24    18    1
    35    23    19    1
    36    26    24    1
    37    29    30    1
    38    32    33    1
@<TRIPOS>MOLECULE
*****
 33 38 0 0 0
SMALL
GASTEIGER

@<TRIPOS>ATOM
      1 O           5.5177   -2.7133   27.4277 O.2     1  UNL1       -0.2463
      2 C           6.2638   -3.9191   26.9382 C.ar    1  UNL1        0.3316
      3 N           6.7508   -5.0580   27.7841 N.ar    1  UNL1       -0.2774
      4 C           7.4419   -6.0404   26.8856 C.ar    1  UNL1        0.0798
      5 C           8.1179   -7.3504   27.1624 C.ar    1  UNL1        0.0188
      6 C           8.7340   -8.1287   26.0379 C.ar    1  UNL1        0.0016
      7 C           8.6741   -7.5970   24.6366 C.ar    1  UNL1        0.0016
      8 C           7.9980   -6.2869   24.3598 C.ar    1  UNL1        0.0188
      9 C           7.3819   -5.5086   25.4843 C.ar    1  UNL1        0.0796
     10 N           6.6538   -4.1976   25.5168 N.ar    1  UNL1       -0.2817
     11 C           6.3662   -3.3193   24.3353 C.3     1  UNL1        0.0926
     12 C           5.4583   -3.8036   23.2440 C.3     1  UNL1        0.0401
     13 C           5.1708   -2.9253   22.0626 C.3     1  UNL1        0.0740
     14 N           5.7911   -1.5626   21.9724 N.3     1  UNL1       -0.2726
     15 C           6.6991   -1.0782   23.0637 C.3     1  UNL1        0.0740
     16 C           6.9866   -1.9565   24.2452 C.3     1  UNL1        0.0401
     17 C           5.5036   -0.6843   20.7909 C.3     1  UNL1        0.0720
     18 C           4.0889   -0.4767   20.3373 C.3     1  UNL1        0.0160
     19 C           2.8936   -0.3067   21.2274 C.3     1  UNL1        0.0013
     20 C           1.4093   -0.0909   21.2378 C.3     1  UNL1        0.0000
     21 C           0.9416   -0.0169   19.8145 C.3     1  UNL1        0.0000
     22 C           2.1370   -0.1870   18.9244 C.3     1  UNL1        0.0000
     23 C           1.6872   -0.1276   20.3542 C.3     1  UNL1        0.0000
     24 C           3.6213   -0.4027   18.9140 C.3     1  UNL1        0.0013
     25 C           4.9735   -0.5967   18.2944 C.3     1  UNL1        0.0000
     26 C           3.7671   -0.4176   17.4212 C.3     1  UNL1        0.0000
     27 C           6.5773   -5.1911   29.2681 C.3     1  UNL1        0.1422
     28 C           7.0945   -4.1205   30.1828 C.3     1  UNL1        0.1623
     29 O           7.7382   -2.8922   29.6111 O.3     1  UNL1       -0.3799
     30 H           7.7395   -2.9487   28.6427 H       1  UNL1        0.2105
     31 C           6.9679   -4.2783   31.6691 C.3     1  UNL1        0.1683
     32 O           6.5653   -5.6008   32.2512 O.3     1  UNL1       -0.3794
     33 H           5.6546   -5.8062   31.9880 H       1  UNL1        0.2105
@<TRIPOS>BOND
     1     1     2    2
     2     2     3   ar
     3     3    27    1
     4    27    28    1
     5    28    29    1
     6    28    31    1
     7    31    32    1
     8     3     4   ar
     9     4     5   ar
    10     5     6   ar
    11     6     7   ar
    12     7     8   ar
    13     8     9   ar
    14     9    10   ar
    15    10    11    1
    16    11    12    1
    17    12    13    1
    18    13    14    1
    19    14    17    1
    20    18    17    1
    21    18    19    1
    22    19    20    1
    23    20    21    1
    24    22    21    1
    25    22    23    1
    26    22    24    1
    27    24    25    1
    28    25    26    1
    29    14    15    1
    30    15    16    1
    31    10     2   ar
    32    16    11    1
    33     9     4   ar
    34    24    18    1
    35    23    19    1
    36    26    24    1
    37    29    30    1
    38    32    33    1
@<TRIPOS>MOLECULE
*****
 33 38 0 0 0
SMALL
GASTEIGER

@<TRIPOS>ATOM
      1 O           1.3499   -0.0157   19.1311 O.2     1  UNL1       -0.2463
      2 C           2.2038   -0.6205   20.2058 C.ar    1  UNL1        0.3316
      3 N           3.2149   -1.7126   20.0185 N.ar    1  UNL1       -0.2774
      4 C           3.8326   -2.0065   21.3535 C.ar    1  UNL1        0.0798
      5 C           4.8867   -2.9855   21.7779 C.ar    1  UNL1        0.0188
      6 C           5.3115   -3.0541   23.2148 C.ar    1  UNL1        0.0016
      7 C           4.6822   -2.1437   24.2273 C.ar    1  UNL1        0.0016
      8 C           3.6281   -1.1647   23.8028 C.ar    1  UNL1        0.0188
      9 C           3.2032   -1.0961   22.3659 C.ar    1  UNL1        0.0796
     10 N           2.1966   -0.2395   21.6566 N.ar    1  UNL1       -0.2817
     11 C           1.3342    0.8133   22.2874 C.3     1  UNL1        0.0926
     12 C           0.7818    1.9299   21.4521 C.3     1  UNL1        0.0401
     13 C          -0.0806    2.9827   22.0829 C.3     1  UNL1        0.0740
     14 N          -0.3906    2.9188   23.5492 N.3     1  UNL1       -0.2726
     15 C           0.1619    1.8022   24.3846 C.3     1  UNL1        0.0740
     16 C           1.0242    0.7494   23.7537 C.3     1  UNL1        0.0401
     17 C          -1.2530    3.9716   24.1800 C.3     1  UNL1        0.0720
     18 C          -2.7469    3.8478   24.1277 C.3     1  UNL1        0.0160
     19 C          -3.5726    3.6513   22.8909 C.3     1  UNL1        0.0013
     20 C          -4.9734    3.4863   22.3805 C.3     1  UNL1        0.0000
     21 C          -5.9039    3.5372   23.5558 C.3     1  UNL1        0.0000
     22 C          -5.0782    3.7336   24.7927 C.3     1  UNL1        0.0000
     23 C          -5.0135    3.5808   23.3018 C.3     1  UNL1        0.0000
     24 C          -3.6775    3.8987   25.3030 C.3     1  UNL1        0.0013
     25 C          -2.6106    4.0930   26.3394 C.3     1  UNL1        0.0000
     26 C          -4.0515    4.0224   26.7504 C.3     1  UNL1        0.0000
     27 C           3.5496   -2.3916   18.7235 C.3     1  UNL1        0.1422
     28 C           4.3801   -1.6804   17.6965 C.3     1  UNL1        0.1623
     29 O           3.7925   -1.3459   16.3575 O.3     1  UNL1       -0.3799
     30 H           2.8744   -1.6567   16.3206 H       1  UNL1        0.2105
     31 C           5.7981   -1.3038   18.0085 C.3     1  UNL1        0.1683
     32 O           6.9306   -2.0731   17.3956 O.3     1  UNL1       -0.3794
     33 H           6.9254   -2.9817   17.7352 H       1  UNL1        0.2105
@<TRIPOS>BOND
     1     1     2    2
     2     2     3   ar
     3     3    27    1
     4    27    28    1
     5    28    29    1
     6    28    31    1
     7    31    32    1
     8     3     4   ar
     9     4     5   ar
    10     5     6   ar
    11     6     7   ar
    12     7     8   ar
    13     8     9   ar
    14     9    10   ar
    15    10    11    1
    16    11    12    1
    17    12    13    1
    18    13    14    1
    19    14    17    1
    20    18    17    1
    21    18    19    1
    22    19    20    1
    23    20    21    1
    24    22    21    1
    25    22    23    1
    26    22    24    1
    27    24    25    1
    28    25    26    1
    29    14    15    1
    30    15    16    1
    31    10     2   ar
    32    16    11    1
    33     9     4   ar
    34    24    18    1
    35    23    19    1
    36    26    24    1
    37    29    30    1
    38    32    33    1
@<TRIPOS>MOLECULE
*****
 33 38 0 0 0
SMALL
GASTEIGER

@<TRIPOS>ATOM
      1 O           7.7562   -3.7282   27.7449 O.2     1  UNL1       -0.2463
      2 C           6.8454   -2.9713   28.6655 C.ar    1  UNL1        0.3316
      3 N           6.7988   -3.0972   30.1595 N.ar    1  UNL1       -0.2774
      4 C           5.7459   -2.1593   30.6711 C.ar    1  UNL1        0.0798
      5 C           5.2593   -1.8566   32.0573 C.ar    1  UNL1        0.0188
      6 C           4.1684   -0.8484   32.2657 C.ar    1  UNL1        0.0016
      7 C           3.5642   -0.1428   31.0879 C.ar    1  UNL1        0.0016
      8 C           4.0509   -0.4455   29.7017 C.ar    1  UNL1        0.0188
      9 C           5.1417   -1.4538   29.4933 C.ar    1  UNL1        0.0796
     10 N           5.8213   -1.9556   28.2538 N.ar    1  UNL1       -0.2817
     11 C           5.5281   -1.5185   26.8492 C.3     1  UNL1        0.0926
     12 C           4.1300   -1.6055   26.3130 C.3     1  UNL1        0.0401
     13 C           3.8368   -1.1684   24.9083 C.3     1  UNL1        0.0740
     14 N           4.9418   -0.6442   24.0399 N.3     1  UNL1       -0.2726
     15 C           6.3400   -0.5571   24.5761 C.3     1  UNL1        0.0740
     16 C           6.6332   -0.9943   25.9807 C.3     1  UNL1        0.0401
     17 C           4.6486   -0.2071   22.6353 C.3     1  UNL1        0.0720
     18 C           4.3002   -1.2251   21.5902 C.3     1  UNL1        0.0160
     19 C           5.1593   -2.3772   21.1606 C.3     1  UNL1        0.0013
     20 C           5.2343   -3.5569   20.2372 C.3     1  UNL1        0.0000
     21 C           3.9656   -3.6016   19.4384 C.3     1  UNL1        0.0000
     22 C           3.1064   -2.4495   19.8680 C.3     1  UNL1        0.0000
     23 C           4.4216   -3.1340   20.0962 C.3     1  UNL1        0.0000
     24 C           3.0314   -1.2698   20.7914 C.3     1  UNL1        0.0013
     25 C           2.4104   -0.0553   21.4153 C.3     1  UNL1        0.0000
     26 C           1.6726   -0.8121   20.3509 C.3     1  UNL1        0.0000
     27 C           7.6549   -4.0021   30.9952 C.3     1  UNL1        0.1422
     28 C           7.3873   -5.4779   31.0174 C.3     1  UNL1        0.1623
     29 O           6.5697   -6.0753   32.1240 O.3     1  UNL1       -0.3799
     30 H           6.2940   -5.3754   32.7364 H       1  UNL1        0.2105
     31 C           7.9375   -6.3563   29.9331 C.3     1  UNL1        0.1683
     32 O           7.1715   -6.5410   28.6567 O.3     1  UNL1       -0.3794
     33 H           6.3433   -7.0108   28.8417 H       1  UNL1        0.2105
@<TRIPOS>BOND
     1     1     2    2
     2     2     3   ar
     3     3    27    1
     4    27    28    1
     5    28    29    1
     6    28    31    1
     7    31    32    1
     8     3     4   ar
     9     4     5   ar
    10     5     6   ar
    11     6     7   ar
    12     7     8   ar
    13     8     9   ar
    14     9    10   ar
    15    10    11    1
    16    11    12    1
    17    12    13    1
    18    13    14    1
    19    14    17    1
    20    18    17    1
    21    18    19    1
    22    19    20    1
    23    20    21    1
    24    22    21    1
    25    22    23    1
    26    22    24    1
    27    24    25    1
    28    25    26    1
    29    14    15    1
    30    15    16    1
    31    10     2   ar
    32    16    11    1
    33     9     4   ar
    34    24    18    1
    35    23    19    1
    36    26    24    1
    37    29    30    1
    38    32    33    1
@<TRIPOS>MOLECULE
*****
 33 38 0 0 0
SMALL
GASTEIGER

@<TRIPOS>ATOM
      1 O          -1.3311    2.6919   22.0350 O.2     1  UNL1       -0.2463
      2 C          -1.4828    3.3395   20.6905 C.ar    1  UNL1        0.3316
      3 N          -2.5911    4.2613   20.2758 N.ar    1  UNL1       -0.2774
      4 C          -2.3461    4.6705   18.8536 C.ar    1  UNL1        0.0798
      5 C          -3.1073    5.5657   17.9214 C.ar    1  UNL1        0.0188
      6 C          -2.6088    5.7920   16.5250 C.ar    1  UNL1        0.0016
      7 C          -1.3490    5.1231   16.0607 C.ar    1  UNL1        0.0016
      8 C          -0.5878    4.2279   16.9928 C.ar    1  UNL1        0.0188
      9 C          -1.0863    4.0015   18.3893 C.ar    1  UNL1        0.0796
     10 N          -0.5528    3.1790   19.5246 N.ar    1  UNL1       -0.2817
     11 C           0.6922    2.3427   19.4984 C.3     1  UNL1        0.0926
     12 C           1.8266    2.6572   20.4278 C.3     1  UNL1        0.0401
     13 C           3.0716    1.8209   20.4017 C.3     1  UNL1        0.0740
     14 N           3.1821    0.6700   19.4461 N.3     1  UNL1       -0.2726
     15 C           2.0476    0.3554   18.5166 C.3     1  UNL1        0.0740
     16 C           0.8026    1.1917   18.5427 C.3     1  UNL1        0.0401
     17 C           4.4270   -0.1663   19.4200 C.3     1  UNL1        0.0720
     18 C           4.4974   -1.4319   20.2221 C.3     1  UNL1        0.0160
     19 C           4.3603   -1.5403   21.7118 C.3     1  UNL1        0.0013
     20 C           4.3590   -2.5012   22.8636 C.3     1  UNL1        0.0000
     21 C           4.5788   -3.8805   22.3167 C.3     1  UNL1        0.0000
     22 C           4.7160   -3.7721   20.8269 C.3     1  UNL1        0.0000
     23 C           4.4954   -2.9866   22.0857 C.3     1  UNL1        0.0000
     24 C           4.7172   -2.8112   19.6752 C.3     1  UNL1        0.0013
     25 C           4.8125   -2.3962   18.2368 C.3     1  UNL1        0.0000
     26 C           4.9476   -3.8426   18.6107 C.3     1  UNL1        0.0000
     27 C          -3.7423    4.6974   21.1328 C.3     1  UNL1        0.1422
     28 C          -4.6490    3.6733   21.7487 C.3     1  UNL1        0.1623
     29 O          -4.7621    2.3078   21.1383 O.3     1  UNL1       -0.3799
     30 H          -4.1880    2.2537   20.3583 H       1  UNL1        0.2105
     31 C          -5.4426    4.0148   22.9749 C.3     1  UNL1        0.1683
     32 O          -6.9234    3.7768   23.0002 O.3     1  UNL1       -0.3794
     33 H          -7.3559    4.3619   22.3587 H       1  UNL1        0.2105
@<TRIPOS>BOND
     1     1     2    2
     2     2     3   ar
     3     3    27    1
     4    27    28    1
     5    28    29    1
     6    28    31    1
     7    31    32    1
     8     3     4   ar
     9     4     5   ar
    10     5     6   ar
    11     6     7   ar
    12     7     8   ar
    13     8     9   ar
    14     9    10   ar
    15    10    11    1
    16    11    12    1
    17    12    13    1
    18    13    14    1
    19    14    17    1
    20    18    17    1
    21    18    19    1
    22    19    20    1
    23    20    21    1
    24    22    21    1
    25    22    23    1
    26    22    24    1
    27    24    25    1
    28    25    26    1
    29    14    15    1
    30    15    16    1
    31    10     2   ar
    32    16    11    1
    33     9     4   ar
    34    24    18    1
    35    23    19    1
    36    26    24    1
    37    29    30    1
    38    32    33    1
