@<TRIPOS>MOLECULE
*****
 22 22 0 0 0
SMALL
GASTEIGER

@<TRIPOS>ATOM
      1 C         -10.2637  -17.6815   23.2119 C.ar    1  UNL1        0.1382
      2 C         -10.9583  -18.6564   24.1158 C.ar    1  UNL1        0.0369
      3 C         -10.3770  -20.0218   24.3344 C.ar    1  UNL1        0.0028
      4 C          -9.1011  -20.4123   23.6491 C.ar    1  UNL1       -0.0040
      5 C          -8.4066  -19.4374   22.7452 C.ar    1  UNL1       -0.0178
      6 C          -8.9879  -18.0720   22.5266 C.ar    1  UNL1        0.0327
      7 O         -10.8450  -16.3161   22.9932 O.3     1  UNL1       -0.4755
      8 C         -12.2475  -16.1712   22.4814 C.3     1  UNL1        0.2054
      9 C         -12.5645  -16.5122   21.0555 C.3     1  UNL1        0.0473
     10 C         -11.0719  -18.1065   19.6483 C.3     1  UNL1        0.0001
     11 C         -11.4536  -16.7182   20.0688 C.3     1  UNL1        0.0038
     12 C          -7.1306  -19.8278   22.0599 C.3     1  UNL1        0.0435
     13 C          -5.8706  -19.0589   22.3262 C.3     1  UNL1        0.0736
     14 N          -5.0066  -18.6157   21.1828 N.3     1  UNL1       -0.2910
     15 H          -4.4586  -17.8233   21.5178 H       1  UNL1        0.1236
     16 C          -4.0401  -19.5767   20.5566 C.3     1  UNL1        0.1318
     17 C          -4.5495  -20.7861   19.8301 C.3     1  UNL1        0.0270
     18 C          -2.5642  -19.3284   20.6569 C.2     1  UNL1        0.2400
     19 O          -1.7348  -20.1186   21.6252 O.2     1  UNL1       -0.2734
     20 N          -1.9177  -18.2900   19.7888 N.am    1  UNL1       -0.2750
     21 C          -0.4418  -18.0417   19.8891 C.3     1  UNL1        0.1149
     22 C          -2.7471  -17.4998   18.8204 C.3     1  UNL1        0.1149
@<TRIPOS>BOND
     1    10    11    1
     2    11     9    1
     3     9     8    1
     4     8     7    1
     5     7     1    1
     6     1     2   ar
     7     2     3   ar
     8     3     4   ar
     9     4     5   ar
    10     5    12    1
    11    12    13    1
    12    13    14    1
    13    14    16    1
    14    16    17    1
    15    16    18    1
    16    18    19    2
    17    18    20   am
    18    20    21    1
    19    20    22    1
    20     5     6   ar
    21     6     1   ar
    22    14    15    1
@<TRIPOS>MOLECULE
*****
 22 22 0 0 0
SMALL
GASTEIGER

@<TRIPOS>ATOM
      1 C          -8.1789  -15.8706   24.7629 C.ar    1  UNL1        0.1382
      2 C          -7.9346  -15.5080   26.1977 C.ar    1  UNL1        0.0369
      3 C          -6.5321  -15.4342   26.7244 C.ar    1  UNL1        0.0028
      4 C          -5.3738  -15.7231   25.8162 C.ar    1  UNL1       -0.0040
      5 C          -5.6180  -16.0857   24.3814 C.ar    1  UNL1       -0.0178
      6 C          -7.0206  -16.1594   23.8547 C.ar    1  UNL1        0.0327
      7 O          -9.5815  -15.9443   24.2363 O.3     1  UNL1       -0.4755
      8 C         -10.1300  -17.2506   23.7437 C.3     1  UNL1        0.2054
      9 C          -9.9546  -18.4945   24.5635 C.3     1  UNL1        0.0473
     10 C          -8.4883  -19.6091   22.7311 C.3     1  UNL1        0.0001
     11 C          -9.3671  -19.7264   23.9410 C.3     1  UNL1        0.0038
     12 C          -4.4597  -16.3746   23.4731 C.3     1  UNL1        0.0435
     13 C          -4.1554  -17.7875   23.0720 C.3     1  UNL1        0.0736
     14 N          -4.8739  -18.4090   21.9111 N.3     1  UNL1       -0.2910
     15 H          -5.2134  -17.6423   21.3303 H       1  UNL1        0.1236
     16 C          -4.1493  -19.3546   20.9997 C.3     1  UNL1        0.1318
     17 C          -4.9176  -20.3749   20.2132 C.3     1  UNL1        0.0270
     18 C          -2.6563  -19.2799   20.8749 C.2     1  UNL1        0.2400
     19 O          -1.7880  -20.1666   21.7173 O.2     1  UNL1       -0.2734
     20 N          -2.0318  -18.3186   19.9076 N.am    1  UNL1       -0.2750
     21 C          -0.5388  -18.2439   19.7827 C.3     1  UNL1        0.1149
     22 C          -2.9001  -17.4319   19.0651 C.3     1  UNL1        0.1149
@<TRIPOS>BOND
     1    10    11    1
     2    11     9    1
     3     9     8    1
     4     8     7    1
     5     7     1    1
     6     1     2   ar
     7     2     3   ar
     8     3     4   ar
     9     4     5   ar
    10     5    12    1
    11    12    13    1
    12    13    14    1
    13    14    16    1
    14    16    17    1
    15    16    18    1
    16    18    19    2
    17    18    20   am
    18    20    21    1
    19    20    22    1
    20     5     6   ar
    21     6     1   ar
    22    14    15    1
@<TRIPOS>MOLECULE
*****
 22 22 0 0 0
SMALL
GASTEIGER

@<TRIPOS>ATOM
      1 C          -3.7082  -19.1557   21.7433 C.ar    1  UNL1        0.1382
      2 C          -3.5147  -20.1194   20.6104 C.ar    1  UNL1        0.0369
      3 C          -4.6966  -20.8292   20.0192 C.ar    1  UNL1        0.0028
      4 C          -6.0720  -20.5751   20.5611 C.ar    1  UNL1       -0.0040
      5 C          -6.2655  -19.6114   21.6941 C.ar    1  UNL1       -0.0178
      6 C          -5.0837  -18.9017   22.2852 C.ar    1  UNL1        0.0327
      7 O          -2.5263  -18.4460   22.3345 O.3     1  UNL1       -0.4755
      8 C          -2.3362  -16.9776   22.0946 C.3     1  UNL1        0.2054
      9 C          -1.3796  -16.5078   21.0390 C.3     1  UNL1        0.0473
     10 C          -1.8561  -17.6242   18.7419 C.3     1  UNL1        0.0001
     11 C          -0.9665  -17.4352   19.9348 C.3     1  UNL1        0.0038
     12 C          -7.6410  -19.3573   22.2360 C.3     1  UNL1        0.0435
     13 C          -8.2595  -17.9971   22.1045 C.3     1  UNL1        0.0736
     14 N          -9.1482  -17.6869   20.9366 N.3     1  UNL1       -0.2910
     15 H          -8.5948  -17.8468   20.0948 H       1  UNL1        0.1236
     16 C         -10.4368  -18.4330   20.7558 C.3     1  UNL1        0.1318
     17 C         -10.4728  -19.6749   19.9153 C.3     1  UNL1        0.0270
     18 C         -11.6895  -17.9372   21.4154 C.2     1  UNL1        0.2400
     19 O         -12.5910  -16.9820   20.6909 O.2     1  UNL1       -0.2734
     20 N         -12.0406  -18.3965   22.7994 N.am    1  UNL1       -0.2750
     21 C         -13.2932  -17.9007   23.4590 C.3     1  UNL1        0.1149
     22 C         -11.1390  -19.3517   23.5240 C.3     1  UNL1        0.1149
@<TRIPOS>BOND
     1    10    11    1
     2    11     9    1
     3     9     8    1
     4     8     7    1
     5     7     1    1
     6     1     2   ar
     7     2     3   ar
     8     3     4   ar
     9     4     5   ar
    10     5    12    1
    11    12    13    1
    12    13    14    1
    13    14    16    1
    14    16    17    1
    15    16    18    1
    16    18    19    2
    17    18    20   am
    18    20    21    1
    19    20    22    1
    20     5     6   ar
    21     6     1   ar
    22    14    15    1
@<TRIPOS>MOLECULE
*****
 22 22 0 0 0
SMALL
GASTEIGER

@<TRIPOS>ATOM
      1 C         -10.5857  -17.4172   20.9108 C.ar    1  UNL1        0.1382
      2 C         -10.6882  -18.4676   19.8449 C.ar    1  UNL1        0.0369
      3 C          -9.5523  -19.4209   19.6197 C.ar    1  UNL1        0.0028
      4 C          -8.3138  -19.3239   20.4602 C.ar    1  UNL1       -0.0040
      5 C          -8.2112  -18.2735   21.5261 C.ar    1  UNL1       -0.0178
      6 C          -9.3472  -17.3201   21.7514 C.ar    1  UNL1        0.0327
      7 O         -11.7216  -16.4638   21.1361 O.3     1  UNL1       -0.4755
      8 C         -12.4745  -16.4873   22.4332 C.3     1  UNL1        0.2054
      9 C         -12.9253  -17.7943   23.0152 C.3     1  UNL1        0.0473
     10 C         -11.1516  -19.4142   24.0053 C.3     1  UNL1        0.0001
     11 C         -12.2128  -18.3724   24.2019 C.3     1  UNL1        0.0038
     12 C          -6.9727  -18.1764   22.3668 C.3     1  UNL1        0.0435
     13 C          -5.7611  -18.9872   22.0137 C.3     1  UNL1        0.0736
     14 N          -4.8064  -18.4925   20.9677 N.3     1  UNL1       -0.2910
     15 H          -4.3834  -17.6400   21.3347 H       1  UNL1        0.1236
     16 C          -3.6810  -19.3695   20.5046 C.3     1  UNL1        0.1318
     17 C          -3.9772  -20.6637   19.8066 C.3     1  UNL1        0.0270
     18 C          -2.2595  -18.9522   20.7395 C.2     1  UNL1        0.2400
     19 O          -1.5196  -19.4547   21.9437 O.2     1  UNL1       -0.2734
     20 N          -1.5779  -18.0326   19.7702 N.am    1  UNL1       -0.2750
     21 C          -0.1564  -17.6153   20.0051 C.3     1  UNL1        0.1149
     22 C          -2.3178  -17.5301   18.5660 C.3     1  UNL1        0.1149
@<TRIPOS>BOND
     1    10    11    1
     2    11     9    1
     3     9     8    1
     4     8     7    1
     5     7     1    1
     6     1     2   ar
     7     2     3   ar
     8     3     4   ar
     9     4     5   ar
    10     5    12    1
    11    12    13    1
    12    13    14    1
    13    14    16    1
    14    16    17    1
    15    16    18    1
    16    18    19    2
    17    18    20   am
    18    20    21    1
    19    20    22    1
    20     5     6   ar
    21     6     1   ar
    22    14    15    1
@<TRIPOS>MOLECULE
*****
 22 22 0 0 0
SMALL
GASTEIGER

@<TRIPOS>ATOM
      1 C          -9.3972  -17.5264   23.9794 C.ar    1  UNL1        0.1382
      2 C         -10.2444  -18.5393   24.6909 C.ar    1  UNL1        0.0369
      3 C         -10.0347  -20.0029   24.4382 C.ar    1  UNL1        0.0028
      4 C          -8.9778  -20.4537   23.4739 C.ar    1  UNL1       -0.0040
      5 C          -8.1307  -19.4408   22.7623 C.ar    1  UNL1       -0.0178
      6 C          -8.3404  -17.9771   23.0151 C.ar    1  UNL1        0.0327
      7 O          -9.6069  -16.0628   24.2321 O.3     1  UNL1       -0.4755
      8 C          -8.7085  -15.3298   25.1836 C.3     1  UNL1        0.2054
      9 C          -8.2115  -16.0130   26.4231 C.3     1  UNL1        0.0473
     10 C          -5.7039  -15.3566   26.2470 C.3     1  UNL1        0.0001
     11 C          -6.9399  -15.5547   27.0735 C.3     1  UNL1        0.0038
     12 C          -7.0738  -19.8914   21.7980 C.3     1  UNL1        0.0435
     13 C          -6.9569  -19.2368   20.4535 C.3     1  UNL1        0.0736
     14 N          -5.6855  -18.5418   20.0656 N.3     1  UNL1       -0.2910
     15 H          -5.6620  -17.6617   20.5807 H       1  UNL1        0.1236
     16 C          -4.3638  -19.2130   20.2949 C.3     1  UNL1        0.1318
     17 C          -4.1626  -20.6377   19.8709 C.3     1  UNL1        0.0270
     18 C          -3.2433  -18.4595   20.9481 C.2     1  UNL1        0.2400
     19 O          -3.0056  -18.5982   22.4227 O.2     1  UNL1       -0.2734
     20 N          -2.3604  -17.5674   20.1269 N.am    1  UNL1       -0.2750
     21 C          -1.2399  -16.8139   20.7801 C.3     1  UNL1        0.1149
     22 C          -2.5980  -17.4286   18.6523 C.3     1  UNL1        0.1149
@<TRIPOS>BOND
     1    10    11    1
     2    11     9    1
     3     9     8    1
     4     8     7    1
     5     7     1    1
     6     1     2   ar
     7     2     3   ar
     8     3     4   ar
     9     4     5   ar
    10     5    12    1
    11    12    13    1
    12    13    14    1
    13    14    16    1
    14    16    17    1
    15    16    18    1
    16    18    19    2
    17    18    20   am
    18    20    21    1
    19    20    22    1
    20     5     6   ar
    21     6     1   ar
    22    14    15    1
@<TRIPOS>MOLECULE
*****
 22 22 0 0 0
SMALL
GASTEIGER

@<TRIPOS>ATOM
      1 C          -3.6663  -19.2769   21.7984 C.ar    1  UNL1        0.1382
      2 C          -3.4364  -20.1253   20.5829 C.ar    1  UNL1        0.0369
      3 C          -4.5868  -20.8416   19.9398 C.ar    1  UNL1        0.0028
      4 C          -5.9670  -20.7096   20.5121 C.ar    1  UNL1       -0.0040
      5 C          -6.1968  -19.8612   21.7276 C.ar    1  UNL1       -0.0178
      6 C          -5.0464  -19.1449   22.3707 C.ar    1  UNL1        0.0327
      7 O          -2.5159  -18.5606   22.4415 O.3     1  UNL1       -0.4755
      8 C          -2.4688  -17.0614   22.4366 C.3     1  UNL1        0.2054
      9 C          -1.7604  -16.3369   21.3306 C.3     1  UNL1        0.0473
     10 C          -0.0289  -17.7415   19.9968 C.3     1  UNL1        0.0001
     11 C          -1.3683  -17.0718   20.0831 C.3     1  UNL1        0.0038
     12 C          -7.5770  -19.7291   22.3000 C.3     1  UNL1        0.0435
     13 C          -8.4689  -18.6077   21.8562 C.3     1  UNL1        0.0736
     14 N          -8.3724  -17.2655   22.5190 N.3     1  UNL1       -0.2910
     15 H          -8.5675  -16.5678   21.8010 H       1  UNL1        0.1236
     16 C          -9.2541  -16.9415   23.6885 C.3     1  UNL1        0.1318
     17 C          -8.8455  -15.8774   24.6636 C.3     1  UNL1        0.0270
     18 C         -10.5443  -17.6814   23.8828 C.2     1  UNL1        0.2400
     19 O         -10.6007  -18.8602   24.8087 O.2     1  UNL1       -0.2734
     20 N         -11.7781  -17.2426   23.1513 N.am    1  UNL1       -0.2750
     21 C         -13.0683  -17.9826   23.3457 C.3     1  UNL1        0.1149
     22 C         -11.7217  -16.0638   22.2254 C.3     1  UNL1        0.1149
@<TRIPOS>BOND
     1    10    11    1
     2    11     9    1
     3     9     8    1
     4     8     7    1
     5     7     1    1
     6     1     2   ar
     7     2     3   ar
     8     3     4   ar
     9     4     5   ar
    10     5    12    1
    11    12    13    1
    12    13    14    1
    13    14    16    1
    14    16    17    1
    15    16    18    1
    16    18    19    2
    17    18    20   am
    18    20    21    1
    19    20    22    1
    20     5     6   ar
    21     6     1   ar
    22    14    15    1
@<TRIPOS>MOLECULE
*****
 22 22 0 0 0
SMALL
GASTEIGER

@<TRIPOS>ATOM
      1 C          -3.7176  -19.1292   21.8436 C.ar    1  UNL1        0.1382
      2 C          -3.3906  -20.0512   20.7066 C.ar    1  UNL1        0.0369
      3 C          -4.4826  -20.8286   20.0334 C.ar    1  UNL1        0.0028
      4 C          -5.9017  -20.6840   20.4973 C.ar    1  UNL1       -0.0040
      5 C          -6.2288  -19.7620   21.6343 C.ar    1  UNL1       -0.0178
      6 C          -5.1367  -18.9846   22.3075 C.ar    1  UNL1        0.0327
      7 O          -2.6256  -18.3518   22.5168 O.3     1  UNL1       -0.4755
      8 C          -2.5032  -16.8751   22.2841 C.3     1  UNL1        0.2054
      9 C          -1.6000  -16.3584   21.2037 C.3     1  UNL1        0.0473
     10 C          -1.5094  -17.6424   18.9469 C.3     1  UNL1        0.0001
     11 C          -0.9076  -17.3184   20.2821 C.3     1  UNL1        0.0038
     12 C          -7.6479  -19.6173   22.0983 C.3     1  UNL1        0.0435
     13 C          -8.6364  -18.8590   21.2630 C.3     1  UNL1        0.0736
     14 N          -9.8883  -18.3186   21.8883 N.3     1  UNL1       -0.2910
     15 H         -10.0072  -18.8049   22.7770 H       1  UNL1        0.1236
     16 C         -10.0091  -16.8518   22.1778 C.3     1  UNL1        0.1318
     17 C         -11.3585  -16.1967   22.1814 C.3     1  UNL1        0.0270
     18 C          -8.7806  -16.0400   22.4637 C.2     1  UNL1        0.2400
     19 O          -8.1038  -15.2883   21.3561 O.2     1  UNL1       -0.2734
     20 N          -8.2289  -15.9799   23.8572 N.am    1  UNL1       -0.2750
     21 C          -7.0004  -15.1682   24.1431 C.3     1  UNL1        0.1149
     22 C          -8.9057  -16.7317   24.9649 C.3     1  UNL1        0.1149
@<TRIPOS>BOND
     1    10    11    1
     2    11     9    1
     3     9     8    1
     4     8     7    1
     5     7     1    1
     6     1     2   ar
     7     2     3   ar
     8     3     4   ar
     9     4     5   ar
    10     5    12    1
    11    12    13    1
    12    13    14    1
    13    14    16    1
    14    16    17    1
    15    16    18    1
    16    18    19    2
    17    18    20   am
    18    20    21    1
    19    20    22    1
    20     5     6   ar
    21     6     1   ar
    22    14    15    1
@<TRIPOS>MOLECULE
*****
 22 22 0 0 0
SMALL
GASTEIGER

@<TRIPOS>ATOM
      1 C          -8.1390  -19.2481   20.4357 C.ar    1  UNL1        0.1382
      2 C          -9.3442  -19.2583   19.5428 C.ar    1  UNL1        0.0369
      3 C         -10.6925  -19.5962   20.1066 C.ar    1  UNL1        0.0028
      4 C         -10.8356  -19.9239   21.5633 C.ar    1  UNL1       -0.0040
      5 C          -9.6304  -19.9136   22.4562 C.ar    1  UNL1       -0.0178
      6 C          -8.2821  -19.5757   21.8924 C.ar    1  UNL1        0.0327
      7 O          -6.7907  -18.9102   19.8719 O.3     1  UNL1       -0.4755
      8 C          -5.5479  -19.3915   20.5601 C.3     1  UNL1        0.2054
      9 C          -4.2670  -19.5218   19.7905 C.3     1  UNL1        0.0473
     10 C          -2.3649  -17.9524   18.9722 C.3     1  UNL1        0.0001
     11 C          -3.1145  -18.6103   20.0927 C.3     1  UNL1        0.0038
     12 C          -9.7735  -20.2413   23.9131 C.3     1  UNL1        0.0435
     13 C         -10.3840  -19.2417   24.8502 C.3     1  UNL1        0.0736
     14 N          -9.5903  -18.0494   25.2960 N.3     1  UNL1       -0.2910
     15 H          -8.6974  -18.4022   25.6404 H       1  UNL1        0.1236
     16 C          -9.2762  -16.9514   24.3236 C.3     1  UNL1        0.1318
     17 C         -10.3572  -16.3961   23.4445 C.3     1  UNL1        0.0270
     18 C          -7.8809  -16.4086   24.2304 C.2     1  UNL1        0.2400
     19 O          -7.0895  -16.5869   22.9687 O.2     1  UNL1       -0.2734
     20 N          -7.2771  -15.6875   25.3988 N.am    1  UNL1       -0.2750
     21 C          -5.8818  -15.1447   25.3056 C.3     1  UNL1        0.1149
     22 C          -8.0685  -15.5091   26.6606 C.3     1  UNL1        0.1149
@<TRIPOS>BOND
     1    10    11    1
     2    11     9    1
     3     9     8    1
     4     8     7    1
     5     7     1    1
     6     1     2   ar
     7     2     3   ar
     8     3     4   ar
     9     4     5   ar
    10     5    12    1
    11    12    13    1
    12    13    14    1
    13    14    16    1
    14    16    17    1
    15    16    18    1
    16    18    19    2
    17    18    20   am
    18    20    21    1
    19    20    22    1
    20     5     6   ar
    21     6     1   ar
    22    14    15    1
@<TRIPOS>MOLECULE
*****
 22 22 0 0 0
SMALL
GASTEIGER

@<TRIPOS>ATOM
      1 C          -3.7755  -18.1276   22.9527 C.ar    1  UNL1        0.1382
      2 C          -2.3812  -18.3131   22.4318 C.ar    1  UNL1        0.0369
      3 C          -2.1384  -19.1767   21.2297 C.ar    1  UNL1        0.0028
      4 C          -3.2898  -19.8549   20.5484 C.ar    1  UNL1       -0.0040
      5 C          -4.6842  -19.6694   21.0694 C.ar    1  UNL1       -0.0178
      6 C          -4.9270  -18.8058   22.2715 C.ar    1  UNL1        0.0327
      7 O          -4.0184  -17.2640   24.1549 O.3     1  UNL1       -0.4755
      8 C          -5.0204  -16.1498   24.0879 C.3     1  UNL1        0.2054
      9 C          -5.3933  -15.4005   25.3327 C.3     1  UNL1        0.0473
     10 C          -7.0002  -15.7271   27.3479 C.3     1  UNL1        0.0001
     11 C          -6.7860  -15.5022   25.8804 C.3     1  UNL1        0.0038
     12 C          -5.8357  -20.3477   20.3881 C.3     1  UNL1        0.0435
     13 C          -7.2424  -20.0409   20.8090 C.3     1  UNL1        0.0736
     14 N          -8.1758  -19.3506   19.8591 N.3     1  UNL1       -0.2910
     15 H          -8.4722  -20.0492   19.1776 H       1  UNL1        0.1236
     16 C          -9.4216  -18.6942   20.3760 C.3     1  UNL1        0.1318
     17 C         -10.7193  -18.8667   19.6438 C.3     1  UNL1        0.0270
     18 C          -9.3696  -17.8652   21.6250 C.2     1  UNL1        0.2400
     19 O          -8.9175  -16.4365   21.5587 O.2     1  UNL1       -0.2734
     20 N          -9.7698  -18.4649   22.9404 N.am    1  UNL1       -0.2750
     21 C          -9.7179  -17.6359   24.1894 C.3     1  UNL1        0.1149
     22 C         -10.2220  -19.8936   23.0067 C.3     1  UNL1        0.1149
@<TRIPOS>BOND
     1    10    11    1
     2    11     9    1
     3     9     8    1
     4     8     7    1
     5     7     1    1
     6     1     2   ar
     7     2     3   ar
     8     3     4   ar
     9     4     5   ar
    10     5    12    1
    11    12    13    1
    12    13    14    1
    13    14    16    1
    14    16    17    1
    15    16    18    1
    16    18    19    2
    17    18    20   am
    18    20    21    1
    19    20    22    1
    20     5     6   ar
    21     6     1   ar
    22    14    15    1
