@<TRIPOS>MOLECULE
*****
 30 32 0 0 0
SMALL
GASTEIGER

@<TRIPOS>ATOM
      1 C          -8.0352  -18.7035   21.3230 C.2     1  UNL1        0.2430
      2 O          -8.3491  -19.8363   22.2547 O.2     1  UNL1       -0.2732
      3 N          -8.3076  -17.2894   21.7431 N.am    1  UNL1       -0.2972
      4 H          -8.1016  -16.5459   21.1315 H       1  UNL1        0.1500
      5 C          -7.4489  -18.9846   19.9713 C.3     1  UNL1        0.1757
      6 O          -5.7285  -21.3723   20.5536 O.2     1  UNL1       -0.2747
      7 C          -5.1047  -20.1014   20.0578 C.2     1  UNL1        0.2272
      8 N          -5.9650  -18.9076   19.7667 N.am    1  UNL1       -0.2964
      9 H          -5.5556  -18.0734   19.4413 H       1  UNL1        0.1499
     10 C          -3.6208  -20.0244   19.8532 C.3     1  UNL1        0.1113
     11 C          -2.8569  -18.8305   20.3445 C.ar    1  UNL1       -0.0131
     12 C          -1.7890  -18.2186   19.4871 C.ar    1  UNL1       -0.0038
     13 C          -1.0252  -17.0249   19.9784 C.ar    1  UNL1       -0.0003
     14 C          -1.3293  -16.4430   21.3271 C.ar    1  UNL1       -0.0000
     15 C          -2.3972  -17.0548   22.1845 C.ar    1  UNL1       -0.0003
     16 C          -3.1610  -18.2486   21.6932 C.ar    1  UNL1       -0.0038
     17 C          -8.8939  -17.0083   23.0948 C.3     1  UNL1        0.1169
     18 C         -10.3337  -17.3274   23.3689 C.ar    1  UNL1       -0.0003
     19 C         -11.4179  -16.5289   22.7079 C.ar    1  UNL1       -0.0015
     20 C         -12.8577  -16.8480   22.9821 C.ar    1  UNL1        0.0111
     21 C         -13.2133  -17.9655   23.9172 C.ar    1  UNL1        0.0577
     22 CL        -14.6531  -18.2846   24.1914 Cl      1  UNL1       -0.0822
     23 C         -12.1292  -18.7640   24.5782 C.ar    1  UNL1        0.0111
     24 C         -10.6894  -18.4449   24.3041 C.ar    1  UNL1       -0.0015
     25 C          -8.0404  -16.4081   24.1724 C.ar    1  UNL1       -0.0003
     26 C          -8.6221  -16.1424   25.5292 C.ar    1  UNL1       -0.0024
     27 C          -7.7685  -15.5422   26.6068 C.ar    1  UNL1       -0.0003
     28 C          -6.3332  -15.2077   26.3275 C.ar    1  UNL1       -0.0000
     29 C          -5.7515  -15.4735   24.9707 C.ar    1  UNL1       -0.0003
     30 C          -6.6050  -16.0737   23.8932 C.ar    1  UNL1       -0.0024
@<TRIPOS>BOND
     1     6     7    2
     2     7    10    1
     3    10    11    1
     4    11    12   ar
     5    12    13   ar
     6    13    14   ar
     7    14    15   ar
     8    15    16   ar
     9     7     8   am
    10     8     5    1
    11     5     1    1
    12     1     2    2
    13     1     3   am
    14     3    17    1
    15    17    25    1
    16    25    26   ar
    17    26    27   ar
    18    27    28   ar
    19    28    29   ar
    20    29    30   ar
    21    17    18    1
    22    18    19   ar
    23    19    20   ar
    24    20    21   ar
    25    21    22    1
    26    21    23   ar
    27    23    24   ar
    28    16    11   ar
    29    30    25   ar
    30    24    18   ar
    31     8     9    1
    32     3     4    1
@<TRIPOS>MOLECULE
*****
 30 32 0 0 0
SMALL
GASTEIGER

@<TRIPOS>ATOM
      1 C          -8.1833  -18.8856   21.2544 C.2     1  UNL1        0.2430
      2 O          -8.2719  -19.9143   22.3425 O.2     1  UNL1       -0.2732
      3 N          -8.6644  -17.4869   21.5037 N.am    1  UNL1       -0.2972
      4 H          -8.6062  -16.8117   20.7896 H       1  UNL1        0.1500
      5 C          -7.6136  -19.2557   19.9171 C.3     1  UNL1        0.1757
      6 O          -5.7401  -21.4557   20.7233 O.2     1  UNL1       -0.2747
      7 C          -5.2047  -20.2173   20.0679 C.2     1  UNL1        0.2272
      8 N          -6.1415  -19.1172   19.6648 N.am    1  UNL1       -0.2964
      9 H          -5.7901  -18.3044   19.2346 H       1  UNL1        0.1499
     10 C          -3.7326  -20.0788   19.8155 C.3     1  UNL1        0.1113
     11 C          -2.9919  -18.8821   20.3346 C.ar    1  UNL1       -0.0131
     12 C          -1.9492  -18.2187   19.4847 C.ar    1  UNL1       -0.0038
     13 C          -1.2086  -17.0220   20.0038 C.ar    1  UNL1       -0.0003
     14 C          -1.5107  -16.4888   21.3729 C.ar    1  UNL1       -0.0000
     15 C          -2.5535  -17.1523   22.2228 C.ar    1  UNL1       -0.0003
     16 C          -3.2941  -18.3489   21.7037 C.ar    1  UNL1       -0.0038
     17 C          -9.2341  -17.1169   22.8410 C.3     1  UNL1        0.1169
     18 C          -8.3544  -16.4958   23.8852 C.ar    1  UNL1       -0.0003
     19 C          -6.8967  -16.2792   23.6056 C.ar    1  UNL1       -0.0015
     20 C          -6.0170  -15.6582   24.6498 C.ar    1  UNL1        0.0111
     21 C          -6.5949  -15.2537   25.9736 C.ar    1  UNL1        0.0577
     22 CL         -5.7151  -14.6327   27.0178 Cl      1  UNL1       -0.0822
     23 C          -8.0526  -15.4703   26.2532 C.ar    1  UNL1        0.0111
     24 C          -8.9323  -16.0914   25.2090 C.ar    1  UNL1       -0.0015
     25 C         -10.6836  -17.3679   23.1341 C.ar    1  UNL1       -0.0003
     26 C         -11.0784  -18.4559   24.0883 C.ar    1  UNL1       -0.0024
     27 C         -12.5279  -18.7069   24.3814 C.ar    1  UNL1       -0.0003
     28 C         -13.5826  -17.8699   23.7203 C.ar    1  UNL1       -0.0000
     29 C         -13.1879  -16.7819   22.7662 C.ar    1  UNL1       -0.0003
     30 C         -11.7384  -16.5309   22.4731 C.ar    1  UNL1       -0.0024
@<TRIPOS>BOND
     1     6     7    2
     2     7    10    1
     3    10    11    1
     4    11    12   ar
     5    12    13   ar
     6    13    14   ar
     7    14    15   ar
     8    15    16   ar
     9     7     8   am
    10     8     5    1
    11     5     1    1
    12     1     2    2
    13     1     3   am
    14     3    17    1
    15    17    25    1
    16    25    26   ar
    17    26    27   ar
    18    27    28   ar
    19    28    29   ar
    20    29    30   ar
    21    17    18    1
    22    18    19   ar
    23    19    20   ar
    24    20    21   ar
    25    21    22    1
    26    21    23   ar
    27    23    24   ar
    28    16    11   ar
    29    30    25   ar
    30    24    18   ar
    31     8     9    1
    32     3     4    1
@<TRIPOS>MOLECULE
*****
 30 32 0 0 0
SMALL
GASTEIGER

@<TRIPOS>ATOM
      1 C          -7.5240  -16.0024   23.0061 C.2     1  UNL1        0.2430
      2 O          -8.0255  -15.4028   21.7259 O.2     1  UNL1       -0.2732
      3 N          -8.0819  -17.3073   23.4921 N.am    1  UNL1       -0.2972
      4 H          -7.7527  -17.7009   24.3324 H       1  UNL1        0.1500
      5 C          -6.4647  -15.2973   23.8002 C.3     1  UNL1        0.1757
      6 O          -5.1513  -17.9889   23.6255 O.2     1  UNL1       -0.2747
      7 C          -4.3687  -16.7502   23.3045 C.2     1  UNL1        0.2272
      8 N          -5.0254  -15.4044   23.3918 N.am    1  UNL1       -0.2964
      9 H          -4.5117  -14.5914   23.1811 H       1  UNL1        0.1499
     10 C          -2.9293  -16.8573   22.8961 C.3     1  UNL1        0.1113
     11 C          -2.5726  -17.3761   21.5346 C.ar    1  UNL1       -0.0131
     12 C          -1.3784  -16.8270   20.8119 C.ar    1  UNL1       -0.0038
     13 C          -1.0217  -17.3458   19.4505 C.ar    1  UNL1       -0.0003
     14 C          -1.8592  -18.4138   18.8117 C.ar    1  UNL1       -0.0000
     15 C          -3.0534  -18.9629   19.5344 C.ar    1  UNL1       -0.0003
     16 C          -3.4101  -18.4441   20.8958 C.ar    1  UNL1       -0.0038
     17 C          -9.1412  -18.0124   22.6980 C.3     1  UNL1        0.1169
     18 C         -10.5518  -18.0604   23.2057 C.ar    1  UNL1       -0.0003
     19 C         -11.6135  -17.2279   22.5502 C.ar    1  UNL1       -0.0015
     20 C         -13.0242  -17.2758   23.0579 C.ar    1  UNL1        0.0111
     21 C         -13.3732  -18.1563   24.2210 C.ar    1  UNL1        0.0577
     22 CL        -14.7839  -18.2043   24.7287 Cl      1  UNL1       -0.0822
     23 C         -12.3115  -18.9888   24.8765 C.ar    1  UNL1        0.0111
     24 C         -10.9008  -18.9409   24.3688 C.ar    1  UNL1       -0.0015
     25 C          -8.7898  -18.6696   21.3963 C.ar    1  UNL1       -0.0003
     26 C          -9.8770  -19.1330   20.4726 C.ar    1  UNL1       -0.0024
     27 C          -9.5255  -19.7902   19.1707 C.ar    1  UNL1       -0.0003
     28 C          -8.0870  -19.9840   18.7927 C.ar    1  UNL1       -0.0000
     29 C          -6.9998  -19.5205   19.7164 C.ar    1  UNL1       -0.0003
     30 C          -7.3512  -18.8634   21.0182 C.ar    1  UNL1       -0.0024
@<TRIPOS>BOND
     1     6     7    2
     2     7    10    1
     3    10    11    1
     4    11    12   ar
     5    12    13   ar
     6    13    14   ar
     7    14    15   ar
     8    15    16   ar
     9     7     8   am
    10     8     5    1
    11     5     1    1
    12     1     2    2
    13     1     3   am
    14     3    17    1
    15    17    25    1
    16    25    26   ar
    17    26    27   ar
    18    27    28   ar
    19    28    29   ar
    20    29    30   ar
    21    17    18    1
    22    18    19   ar
    23    19    20   ar
    24    20    21   ar
    25    21    22    1
    26    21    23   ar
    27    23    24   ar
    28    16    11   ar
    29    30    25   ar
    30    24    18   ar
    31     8     9    1
    32     3     4    1
@<TRIPOS>MOLECULE
*****
 30 32 0 0 0
SMALL
GASTEIGER

@<TRIPOS>ATOM
      1 C          -8.2877  -19.4031   22.1638 C.2     1  UNL1        0.2430
      2 O          -8.6269  -20.3298   23.2935 O.2     1  UNL1       -0.2732
      3 N          -8.6751  -17.9559   22.2388 N.am    1  UNL1       -0.2972
      4 H          -8.4524  -17.3477   21.4973 H       1  UNL1        0.1500
      5 C          -7.5612  -19.9236   20.9592 C.3     1  UNL1        0.1757
      6 O          -5.6804  -17.9781   22.2543 O.2     1  UNL1       -0.2747
      7 C          -5.1569  -19.2665   21.6921 C.2     1  UNL1        0.2272
      8 N          -6.0973  -20.2393   21.0446 N.am    1  UNL1       -0.2964
      9 H          -5.7538  -21.0849   20.6756 H       1  UNL1        0.1499
     10 C          -3.6930  -19.5821   21.7775 C.3     1  UNL1        0.1113
     11 C          -2.7249  -18.9073   20.8514 C.ar    1  UNL1       -0.0131
     12 C          -1.4008  -18.4291   21.3691 C.ar    1  UNL1       -0.0038
     13 C          -0.4329  -17.7544   20.4430 C.ar    1  UNL1       -0.0003
     14 C          -0.7890  -17.5578   18.9992 C.ar    1  UNL1       -0.0000
     15 C          -2.1131  -18.0360   18.4815 C.ar    1  UNL1       -0.0003
     16 C          -3.0811  -18.7108   19.4076 C.ar    1  UNL1       -0.0038
     17 C          -9.4015  -17.4354   23.4434 C.3     1  UNL1        0.1169
     18 C          -8.6424  -16.7412   24.5351 C.ar    1  UNL1       -0.0003
     19 C          -9.0286  -16.9531   25.9690 C.ar    1  UNL1       -0.0015
     20 C          -8.2695  -16.2589   27.0607 C.ar    1  UNL1        0.0111
     21 C          -7.1242  -15.3527   26.7186 C.ar    1  UNL1        0.0577
     22 CL         -6.3651  -14.6585   27.8103 Cl      1  UNL1       -0.0822
     23 C          -6.7380  -15.1408   25.2847 C.ar    1  UNL1        0.0111
     24 C          -7.4971  -15.8350   24.1930 C.ar    1  UNL1       -0.0015
     25 C         -10.8871  -17.6090   23.5564 C.ar    1  UNL1       -0.0003
     26 C         -11.4539  -18.6181   24.5106 C.ar    1  UNL1       -0.0024
     27 C         -12.9395  -18.7918   24.6236 C.ar    1  UNL1       -0.0003
     28 C         -13.8584  -17.9564   23.7823 C.ar    1  UNL1       -0.0000
     29 C         -13.2916  -16.9473   22.8280 C.ar    1  UNL1       -0.0003
     30 C         -11.8060  -16.7736   22.7151 C.ar    1  UNL1       -0.0024
@<TRIPOS>BOND
     1     6     7    2
     2     7    10    1
     3    10    11    1
     4    11    12   ar
     5    12    13   ar
     6    13    14   ar
     7    14    15   ar
     8    15    16   ar
     9     7     8   am
    10     8     5    1
    11     5     1    1
    12     1     2    2
    13     1     3   am
    14     3    17    1
    15    17    25    1
    16    25    26   ar
    17    26    27   ar
    18    27    28   ar
    19    28    29   ar
    20    29    30   ar
    21    17    18    1
    22    18    19   ar
    23    19    20   ar
    24    20    21   ar
    25    21    22    1
    26    21    23   ar
    27    23    24   ar
    28    16    11   ar
    29    30    25   ar
    30    24    18   ar
    31     8     9    1
    32     3     4    1
@<TRIPOS>MOLECULE
*****
 30 32 0 0 0
SMALL
GASTEIGER

@<TRIPOS>ATOM
      1 C          -5.4101  -19.5764   20.5456 C.2     1  UNL1        0.2430
      2 O          -5.1516  -18.4681   19.5684 O.2     1  UNL1       -0.2732
      3 N          -4.8722  -19.4849   21.9429 N.am    1  UNL1       -0.2972
      4 H          -5.0419  -20.2123   22.5842 H       1  UNL1        0.1500
      5 C          -6.2065  -20.7761   20.1255 C.3     1  UNL1        0.1757
      6 O          -7.9579  -18.6650   21.3404 O.2     1  UNL1       -0.2747
      7 C          -8.4953  -19.5540   20.2583 C.2     1  UNL1        0.2272
      8 N          -7.6196  -20.6095   19.6509 N.am    1  UNL1       -0.2964
      9 H          -7.9723  -21.1930   18.9406 H       1  UNL1        0.1499
     10 C          -9.9084  -19.3874   19.7836 C.3     1  UNL1        0.1113
     11 C         -10.8580  -18.5127   20.5474 C.ar    1  UNL1       -0.0131
     12 C         -11.3851  -18.9608   21.8783 C.ar    1  UNL1       -0.0038
     13 C         -12.3347  -18.0861   22.6419 C.ar    1  UNL1       -0.0003
     14 C         -12.7571  -16.7633   22.0747 C.ar    1  UNL1       -0.0000
     15 C         -12.2300  -16.3152   20.7438 C.ar    1  UNL1       -0.0003
     16 C         -11.2805  -17.1899   19.9802 C.ar    1  UNL1       -0.0038
     17 C          -4.0758  -18.2852   22.3629 C.3     1  UNL1        0.1169
     18 C          -4.5573  -17.4233   23.4922 C.ar    1  UNL1       -0.0003
     19 C          -5.7190  -16.4971   23.2863 C.ar    1  UNL1       -0.0015
     20 C          -6.2004  -15.6352   24.4156 C.ar    1  UNL1        0.0111
     21 C          -5.5201  -15.6996   25.7509 C.ar    1  UNL1        0.0577
     22 CL         -6.0015  -14.8377   26.8802 Cl      1  UNL1       -0.0822
     23 C          -4.3584  -16.6258   25.9568 C.ar    1  UNL1        0.0111
     24 C          -3.8770  -17.4877   24.8275 C.ar    1  UNL1       -0.0015
     25 C          -2.7981  -17.9474   21.6536 C.ar    1  UNL1       -0.0003
     26 C          -2.2725  -16.5428   21.6833 C.ar    1  UNL1       -0.0024
     27 C          -0.9947  -16.2050   20.9739 C.ar    1  UNL1       -0.0003
     28 C          -0.2425  -17.2718   20.2350 C.ar    1  UNL1       -0.0000
     29 C          -0.7680  -18.6764   20.2053 C.ar    1  UNL1       -0.0003
     30 C          -2.0458  -19.0142   20.9146 C.ar    1  UNL1       -0.0024
@<TRIPOS>BOND
     1     6     7    2
     2     7    10    1
     3    10    11    1
     4    11    12   ar
     5    12    13   ar
     6    13    14   ar
     7    14    15   ar
     8    15    16   ar
     9     7     8   am
    10     8     5    1
    11     5     1    1
    12     1     2    2
    13     1     3   am
    14     3    17    1
    15    17    25    1
    16    25    26   ar
    17    26    27   ar
    18    27    28   ar
    19    28    29   ar
    20    29    30   ar
    21    17    18    1
    22    18    19   ar
    23    19    20   ar
    24    20    21   ar
    25    21    22    1
    26    21    23   ar
    27    23    24   ar
    28    16    11   ar
    29    30    25   ar
    30    24    18   ar
    31     8     9    1
    32     3     4    1
@<TRIPOS>MOLECULE
*****
 30 32 0 0 0
SMALL
GASTEIGER

@<TRIPOS>ATOM
      1 C          -7.1611  -19.1700   22.3449 C.2     1  UNL1        0.2430
      2 O          -6.5183  -17.8525   22.0271 O.2     1  UNL1       -0.2732
      3 N          -8.5041  -19.2078   23.0121 N.am    1  UNL1       -0.2972
      4 H          -8.9260  -20.0725   23.2207 H       1  UNL1        0.1500
      5 C          -6.4610  -20.4497   21.9954 C.3     1  UNL1        0.1757
      6 O          -5.6535  -19.2877   19.3501 O.2     1  UNL1       -0.2747
      7 C          -4.6118  -19.8477   20.2727 C.2     1  UNL1        0.2272
      8 N          -5.0156  -20.4287   21.5954 N.am    1  UNL1       -0.2964
      9 H          -4.3318  -20.7963   22.2009 H       1  UNL1        0.1499
     10 C          -3.1663  -19.8267   19.8726 C.3     1  UNL1        0.1113
     11 C          -2.3119  -18.6408   20.2099 C.ar    1  UNL1       -0.0131
     12 C          -0.9508  -18.4982   19.5959 C.ar    1  UNL1       -0.0038
     13 C          -0.0964  -17.3123   19.9333 C.ar    1  UNL1       -0.0003
     14 C          -0.6032  -16.2691   20.8845 C.ar    1  UNL1       -0.0000
     15 C          -1.9643  -16.4118   21.4985 C.ar    1  UNL1       -0.0003
     16 C          -2.8186  -17.5976   21.1612 C.ar    1  UNL1       -0.0038
     17 C          -9.2042  -17.9281   23.3616 C.3     1  UNL1        0.1169
     18 C         -10.2188  -17.3474   22.4217 C.ar    1  UNL1       -0.0003
     19 C         -10.1362  -17.6423   20.9533 C.ar    1  UNL1       -0.0015
     20 C         -11.1508  -17.0616   20.0135 C.ar    1  UNL1        0.0111
     21 C         -12.2481  -16.1861   20.5420 C.ar    1  UNL1        0.0577
     22 CL        -13.2627  -15.6054   19.6021 Cl      1  UNL1       -0.0822
     23 C         -12.3307  -15.8912   22.0104 C.ar    1  UNL1        0.0111
     24 C         -11.3161  -16.4719   22.9502 C.ar    1  UNL1       -0.0015
     25 C          -8.8897  -17.2291   24.6509 C.ar    1  UNL1       -0.0003
     26 C          -9.3003  -17.8429   25.9564 C.ar    1  UNL1       -0.0024
     27 C          -8.9858  -17.1438   27.2458 C.ar    1  UNL1       -0.0003
     28 C          -8.2606  -15.8309   27.2295 C.ar    1  UNL1       -0.0000
     29 C          -7.8499  -15.2171   25.9240 C.ar    1  UNL1       -0.0003
     30 C          -8.1644  -15.9161   24.6347 C.ar    1  UNL1       -0.0024
@<TRIPOS>BOND
     1     6     7    2
     2     7    10    1
     3    10    11    1
     4    11    12   ar
     5    12    13   ar
     6    13    14   ar
     7    14    15   ar
     8    15    16   ar
     9     7     8   am
    10     8     5    1
    11     5     1    1
    12     1     2    2
    13     1     3   am
    14     3    17    1
    15    17    25    1
    16    25    26   ar
    17    26    27   ar
    18    27    28   ar
    19    28    29   ar
    20    29    30   ar
    21    17    18    1
    22    18    19   ar
    23    19    20   ar
    24    20    21   ar
    25    21    22    1
    26    21    23   ar
    27    23    24   ar
    28    16    11   ar
    29    30    25   ar
    30    24    18   ar
    31     8     9    1
    32     3     4    1
@<TRIPOS>MOLECULE
*****
 30 32 0 0 0
SMALL
GASTEIGER

@<TRIPOS>ATOM
      1 C          -5.8245  -19.3527   20.6615 C.2     1  UNL1        0.2430
      2 O          -5.2746  -18.3884   19.6527 O.2     1  UNL1       -0.2732
      3 N          -5.4881  -19.1911   22.1144 N.am    1  UNL1       -0.2972
      4 H          -5.8490  -19.8240   22.7766 H       1  UNL1        0.1500
      5 C          -6.7105  -20.4786   20.2175 C.3     1  UNL1        0.1757
      6 O          -8.7117  -19.6533   22.2946 O.2     1  UNL1       -0.2747
      7 C          -9.1320  -19.7912   20.8613 C.2     1  UNL1        0.2272
      8 N          -8.1313  -20.2039   19.8227 N.am    1  UNL1       -0.2964
      9 H          -8.4071  -20.2944   18.8820 H       1  UNL1        0.1499
     10 C         -10.5527  -19.5165   20.4665 C.3     1  UNL1        0.1113
     11 C         -11.3269  -18.4330   21.1570 C.ar    1  UNL1       -0.0131
     12 C         -11.5140  -17.1029   20.4895 C.ar    1  UNL1       -0.0038
     13 C         -12.2882  -16.0195   21.1801 C.ar    1  UNL1       -0.0003
     14 C         -12.8754  -16.2663   22.5381 C.ar    1  UNL1       -0.0000
     15 C         -12.6883  -17.5965   23.2056 C.ar    1  UNL1       -0.0003
     16 C         -11.9141  -18.6798   22.5151 C.ar    1  UNL1       -0.0038
     17 C          -4.6020  -18.0652   22.5584 C.3     1  UNL1        0.1169
     18 C          -3.2502  -17.8838   21.9342 C.ar    1  UNL1       -0.0003
     19 C          -2.4772  -19.0781   21.4588 C.ar    1  UNL1       -0.0015
     20 C          -1.1254  -18.8966   20.8346 C.ar    1  UNL1        0.0111
     21 C          -0.5466  -17.5209   20.6857 C.ar    1  UNL1        0.0577
     22 CL          0.8053  -17.3394   20.0615 Cl      1  UNL1       -0.0822
     23 C          -1.3196  -16.3266   21.1611 C.ar    1  UNL1        0.0111
     24 C          -2.6714  -16.5080   21.7853 C.ar    1  UNL1       -0.0015
     25 C          -5.0678  -17.1208   23.6266 C.ar    1  UNL1       -0.0003
     26 C          -6.2975  -16.2899   23.4090 C.ar    1  UNL1       -0.0024
     27 C          -6.7632  -15.3455   24.4773 C.ar    1  UNL1       -0.0003
     28 C          -5.9992  -15.2319   25.7631 C.ar    1  UNL1       -0.0000
     29 C          -4.7694  -16.0627   25.9806 C.ar    1  UNL1       -0.0003
     30 C          -4.3037  -17.0072   24.9125 C.ar    1  UNL1       -0.0024
@<TRIPOS>BOND
     1     6     7    2
     2     7    10    1
     3    10    11    1
     4    11    12   ar
     5    12    13   ar
     6    13    14   ar
     7    14    15   ar
     8    15    16   ar
     9     7     8   am
    10     8     5    1
    11     5     1    1
    12     1     2    2
    13     1     3   am
    14     3    17    1
    15    17    25    1
    16    25    26   ar
    17    26    27   ar
    18    27    28   ar
    19    28    29   ar
    20    29    30   ar
    21    17    18    1
    22    18    19   ar
    23    19    20   ar
    24    20    21   ar
    25    21    22    1
    26    21    23   ar
    27    23    24   ar
    28    16    11   ar
    29    30    25   ar
    30    24    18   ar
    31     8     9    1
    32     3     4    1
@<TRIPOS>MOLECULE
*****
 30 32 0 0 0
SMALL
GASTEIGER

@<TRIPOS>ATOM
      1 C          -8.4196  -15.3112   21.6183 C.2     1  UNL1        0.2430
      2 O          -7.2245  -14.4113   21.5099 O.2     1  UNL1       -0.2732
      3 N          -8.4138  -16.4517   22.5927 N.am    1  UNL1       -0.2972
      4 H          -9.1982  -17.0423   22.6640 H       1  UNL1        0.1500
      5 C          -9.6206  -15.0707   20.7525 C.3     1  UNL1        0.1757
      6 O         -10.1077  -17.9735   20.1720 O.2     1  UNL1       -0.2747
      7 C         -11.1811  -17.1470   20.8161 C.2     1  UNL1        0.2272
      8 N         -10.9375  -15.6956   21.1063 N.am    1  UNL1       -0.2964
      9 H         -11.6420  -15.1532   21.5290 H       1  UNL1        0.1499
     10 C         -12.4980  -17.7719   21.1699 C.3     1  UNL1        0.1113
     11 C         -12.8191  -18.0851   22.6013 C.ar    1  UNL1       -0.0131
     12 C         -11.7349  -18.5466   23.5295 C.ar    1  UNL1       -0.0038
     13 C         -12.0560  -18.8598   24.9608 C.ar    1  UNL1       -0.0003
     14 C         -13.4613  -18.7115   25.4640 C.ar    1  UNL1       -0.0000
     15 C         -14.5455  -18.2500   24.5358 C.ar    1  UNL1       -0.0003
     16 C         -14.2244  -17.9368   23.1045 C.ar    1  UNL1       -0.0038
     17 C          -7.2128  -16.6922   23.4586 C.3     1  UNL1        0.1169
     18 C          -6.0643  -17.5052   22.9391 C.ar    1  UNL1       -0.0003
     19 C          -4.6590  -17.1502   23.3249 C.ar    1  UNL1       -0.0015
     20 C          -3.5105  -17.9633   22.8053 C.ar    1  UNL1        0.0111
     21 C          -3.7673  -19.1313   21.9001 C.ar    1  UNL1        0.0577
     22 CL         -2.6189  -19.9444   21.3806 Cl      1  UNL1       -0.0822
     23 C          -5.1727  -19.4864   21.5143 C.ar    1  UNL1        0.0111
     24 C          -6.3212  -18.6733   22.0339 C.ar    1  UNL1       -0.0015
     25 C          -7.1603  -16.1196   24.8440 C.ar    1  UNL1       -0.0003
     26 C          -8.3430  -16.2549   25.7568 C.ar    1  UNL1       -0.0024
     27 C          -8.2904  -15.6822   27.1422 C.ar    1  UNL1       -0.0003
     28 C          -7.0553  -14.9744   27.6149 C.ar    1  UNL1       -0.0000
     29 C          -5.8727  -14.8391   26.7021 C.ar    1  UNL1       -0.0003
     30 C          -5.9252  -15.4117   25.3167 C.ar    1  UNL1       -0.0024
@<TRIPOS>BOND
     1     6     7    2
     2     7    10    1
     3    10    11    1
     4    11    12   ar
     5    12    13   ar
     6    13    14   ar
     7    14    15   ar
     8    15    16   ar
     9     7     8   am
    10     8     5    1
    11     5     1    1
    12     1     2    2
    13     1     3   am
    14     3    17    1
    15    17    25    1
    16    25    26   ar
    17    26    27   ar
    18    27    28   ar
    19    28    29   ar
    20    29    30   ar
    21    17    18    1
    22    18    19   ar
    23    19    20   ar
    24    20    21   ar
    25    21    22    1
    26    21    23   ar
    27    23    24   ar
    28    16    11   ar
    29    30    25   ar
    30    24    18   ar
    31     8     9    1
    32     3     4    1
