@<TRIPOS>MOLECULE
*****
 29 32 0 0 0
SMALL
GASTEIGER

@<TRIPOS>ATOM
      1 N          -5.9470  -18.1807   22.2453 N.ar    1  UNL1       -0.3048
      2 C          -7.0595  -19.1759   22.0978 C.ar    1  UNL1        0.0833
      3 C          -8.1769  -18.7604   23.0082 C.ar    1  UNL1        0.0601
      4 C          -7.7550  -17.5083   23.7183 C.ar    1  UNL1        0.0481
      5 C          -8.4477  -16.6481   24.7333 C.ar    1  UNL1        0.1416
      6 F          -9.8258  -17.0064   25.2048 F       1  UNL1       -0.2041
      7 C          -7.7622  -15.4297   25.2768 C.ar    1  UNL1        0.0297
      8 C          -6.3840  -15.0714   24.8053 C.ar    1  UNL1        0.0038
      9 C          -5.6914  -15.9315   23.7903 C.ar    1  UNL1        0.0177
     10 C          -6.3768  -17.1500   23.2468 C.ar    1  UNL1        0.0663
     11 C          -2.0110  -18.2709   20.0658 C.ar    1  UNL1        0.0141
     12 C          -2.0877  -17.7043   21.4525 C.ar    1  UNL1        0.0026
     13 C          -3.3997  -17.6742   22.1790 C.ar    1  UNL1        0.0176
     14 C          -4.6350  -18.2107   21.5188 C.ar    1  UNL1        0.0640
     15 C          -4.5584  -18.7774   20.1320 C.ar    1  UNL1        0.0176
     16 C          -3.2464  -18.8075   19.4056 C.ar    1  UNL1        0.0026
     17 O           0.5253  -18.8319   20.0241 O.co2   1  UNL1       -0.5446
     18 C          -0.6990  -18.3010   19.3393 C.2     1  UNL1        0.0729
     19 O          -0.6115  -17.8001   17.9282 O.co2   1  UNL1       -0.5446
     20 C          -9.4863  -19.4720   23.1786 C.2     1  UNL1        0.1987
     21 O          -9.5278  -20.8193   23.8365 O.2     1  UNL1       -0.2865
     22 C         -10.7545  -18.8362   22.6909 C.ar    1  UNL1        0.0601
     23 C         -10.8907  -18.4436   21.2496 C.ar    1  UNL1        0.0615
     24 CL         -9.7587  -18.6870   20.2959 Cl      1  UNL1       -0.0821
     25 C         -12.1587  -17.8079   20.7620 C.ar    1  UNL1        0.0115
     26 C         -13.2906  -17.5646   21.7157 C.ar    1  UNL1        0.0017
     27 C         -13.1544  -17.9571   23.1570 C.ar    1  UNL1        0.0115
     28 C         -11.8864  -18.5929   23.6447 C.ar    1  UNL1        0.0615
     29 CL        -11.7502  -18.9854   25.0860 Cl      1  UNL1       -0.0821
@<TRIPOS>UNITY_ATOM_ATTR
17 1
charge -1
@<TRIPOS>BOND
     1    17    18   ar
     2    18    19   ar
     3    18    11    1
     4    11    12   ar
     5    12    13   ar
     6    13    14   ar
     7    14     1    1
     8     1     2   ar
     9     2     3   ar
    10     3    20    1
    11    20    21    2
    12    20    22    1
    13    22    23   ar
    14    23    24    1
    15    23    25   ar
    16    25    26   ar
    17    26    27   ar
    18    27    28   ar
    19    28    29    1
    20     3     4   ar
    21     4     5   ar
    22     5     6    1
    23     5     7   ar
    24     7     8   ar
    25     8     9   ar
    26     9    10   ar
    27    14    15   ar
    28    15    16   ar
    29    16    11   ar
    30    10     1   ar
    31    28    22   ar
    32    10     4   ar
@<TRIPOS>MOLECULE
*****
 29 32 0 0 0
SMALL
GASTEIGER

@<TRIPOS>ATOM
      1 N          -5.9632  -18.1879   22.2372 N.ar    1  UNL1       -0.3048
      2 C          -7.0780  -19.1812   22.0937 C.ar    1  UNL1        0.0833
      3 C          -8.1925  -18.7621   23.0059 C.ar    1  UNL1        0.0601
      4 C          -7.7666  -17.5097   23.7132 C.ar    1  UNL1        0.0481
      5 C          -8.4553  -16.6467   24.7284 C.ar    1  UNL1        0.1416
      6 F          -9.8331  -17.0016   25.2035 F       1  UNL1       -0.2041
      7 C          -7.7663  -15.4288   25.2685 C.ar    1  UNL1        0.0297
      8 C          -6.3885  -15.0739   24.7934 C.ar    1  UNL1        0.0038
      9 C          -5.6997  -15.9369   23.7782 C.ar    1  UNL1        0.0177
     10 C          -6.3888  -17.1549   23.2381 C.ar    1  UNL1        0.0663
     11 C          -2.0322  -18.2891   20.0492 C.ar    1  UNL1        0.0141
     12 C          -3.2789  -18.7796   19.3746 C.ar    1  UNL1        0.0026
     13 C          -4.5892  -18.7459   20.1040 C.ar    1  UNL1        0.0176
     14 C          -4.6529  -18.2216   21.5078 C.ar    1  UNL1        0.0640
     15 C          -3.4061  -17.7311   22.1825 C.ar    1  UNL1        0.0176
     16 C          -2.0958  -17.7648   21.4532 C.ar    1  UNL1        0.0026
     17 O           0.5076  -18.8348   20.0101 O.co2   1  UNL1       -0.5446
     18 C          -0.7219  -18.3228   19.3199 C.2     1  UNL1        0.0729
     19 O          -0.6410  -17.8446   17.9005 O.co2   1  UNL1       -0.5446
     20 C          -9.5029  -19.4709   23.1803 C.2     1  UNL1        0.1987
     21 O          -9.5453  -20.8179   23.8388 O.2     1  UNL1       -0.2865
     22 C         -10.7711  -18.8326   22.6960 C.ar    1  UNL1        0.0601
     23 C         -11.8999  -18.5869   23.6528 C.ar    1  UNL1        0.0615
     24 CL        -11.7605  -18.9795   25.0939 Cl      1  UNL1       -0.0821
     25 C         -13.1681  -17.9486   23.1687 C.ar    1  UNL1        0.0115
     26 C         -13.3074  -17.5560   21.7278 C.ar    1  UNL1        0.0017
     27 C         -12.1786  -17.8017   20.7709 C.ar    1  UNL1        0.0115
     28 C         -10.9105  -18.4400   21.2550 C.ar    1  UNL1        0.0615
     29 CL         -9.7817  -18.6857   20.2982 Cl      1  UNL1       -0.0821
@<TRIPOS>UNITY_ATOM_ATTR
17 1
charge -1
@<TRIPOS>BOND
     1    17    18   ar
     2    18    19   ar
     3    18    11    1
     4    11    12   ar
     5    12    13   ar
     6    13    14   ar
     7    14     1    1
     8     1     2   ar
     9     2     3   ar
    10     3    20    1
    11    20    21    2
    12    20    22    1
    13    22    23   ar
    14    23    24    1
    15    23    25   ar
    16    25    26   ar
    17    26    27   ar
    18    27    28   ar
    19    28    29    1
    20     3     4   ar
    21     4     5   ar
    22     5     6    1
    23     5     7   ar
    24     7     8   ar
    25     8     9   ar
    26     9    10   ar
    27    14    15   ar
    28    15    16   ar
    29    16    11   ar
    30    10     1   ar
    31    28    22   ar
    32    10     4   ar
@<TRIPOS>MOLECULE
*****
 29 32 0 0 0
SMALL
GASTEIGER

@<TRIPOS>ATOM
      1 N          -5.5168  -17.4213   22.7665 N.ar    1  UNL1       -0.3048
      2 C          -6.8012  -18.0688   22.3409 C.ar    1  UNL1        0.0833
      3 C          -7.8689  -17.6638   23.3135 C.ar    1  UNL1        0.0601
      4 C          -7.2443  -16.7660   24.3402 C.ar    1  UNL1        0.0481
      5 C          -7.8116  -16.0656   25.5392 C.ar    1  UNL1        0.1416
      6 F          -9.2653  -16.2154   25.8773 F       1  UNL1       -0.2041
      7 C          -6.9251  -15.2153   26.4001 C.ar    1  UNL1        0.0297
      8 C          -5.4714  -15.0655   26.0620 C.ar    1  UNL1        0.0038
      9 C          -4.9042  -15.7659   24.8630 C.ar    1  UNL1        0.0177
     10 C          -5.7907  -16.6162   24.0021 C.ar    1  UNL1        0.0663
     11 C          -1.5399  -17.8237   20.6993 C.ar    1  UNL1        0.0141
     12 C          -2.5775  -18.8959   20.5447 C.ar    1  UNL1        0.0026
     13 C          -3.9031  -18.7617   21.2338 C.ar    1  UNL1        0.0176
     14 C          -4.1912  -17.5555   22.0774 C.ar    1  UNL1        0.0640
     15 C          -3.1536  -16.4832   22.2321 C.ar    1  UNL1        0.0176
     16 C          -1.8280  -16.6174   21.5430 C.ar    1  UNL1        0.0026
     17 O          -0.1452  -17.9633   18.5119 O.co2   1  UNL1       -0.5446
     18 C          -0.2143  -17.9579   20.0103 C.2     1  UNL1        0.0729
     19 O           1.0420  -18.0866   20.8196 O.co2   1  UNL1       -0.5446
     20 C          -9.3084  -18.0829   23.2676 C.2     1  UNL1        0.1987
     21 O          -9.8956  -18.8744   24.3983 O.2     1  UNL1       -0.2865
     22 C         -10.1608  -17.7105   22.0908 C.ar    1  UNL1        0.0601
     23 C         -10.1216  -18.5423   20.8431 C.ar    1  UNL1        0.0615
     24 CL         -9.2299  -19.7465   20.7723 Cl      1  UNL1       -0.0821
     25 C         -10.9739  -18.1700   19.6663 C.ar    1  UNL1        0.0115
     26 C         -11.8655  -16.9658   19.7372 C.ar    1  UNL1        0.0017
     27 C         -11.9047  -16.1341   20.9848 C.ar    1  UNL1        0.0115
     28 C         -11.0524  -16.5064   22.1616 C.ar    1  UNL1        0.0615
     29 CL        -11.0917  -15.6746   23.4093 Cl      1  UNL1       -0.0821
@<TRIPOS>UNITY_ATOM_ATTR
17 1
charge -1
@<TRIPOS>BOND
     1    17    18   ar
     2    18    19   ar
     3    18    11    1
     4    11    12   ar
     5    12    13   ar
     6    13    14   ar
     7    14     1    1
     8     1     2   ar
     9     2     3   ar
    10     3    20    1
    11    20    21    2
    12    20    22    1
    13    22    23   ar
    14    23    24    1
    15    23    25   ar
    16    25    26   ar
    17    26    27   ar
    18    27    28   ar
    19    28    29    1
    20     3     4   ar
    21     4     5   ar
    22     5     6    1
    23     5     7   ar
    24     7     8   ar
    25     8     9   ar
    26     9    10   ar
    27    14    15   ar
    28    15    16   ar
    29    16    11   ar
    30    10     1   ar
    31    28    22   ar
    32    10     4   ar
@<TRIPOS>MOLECULE
*****
 29 32 0 0 0
SMALL
GASTEIGER

@<TRIPOS>ATOM
      1 N          -6.2443  -18.6839   21.4208 N.ar    1  UNL1       -0.3048
      2 C          -6.8895  -18.3179   22.7246 C.ar    1  UNL1        0.0833
      3 C          -8.3510  -18.6407   22.6251 C.ar    1  UNL1        0.0601
      4 C          -8.6090  -19.2062   21.2600 C.ar    1  UNL1        0.0481
      5 C          -9.8613  -19.7003   20.5985 C.ar    1  UNL1        0.1416
      6 F         -11.1633  -19.6737   21.3428 F       1  UNL1       -0.2041
      7 C          -9.8115  -20.2211   19.1927 C.ar    1  UNL1        0.0297
      8 C          -8.5095  -20.2477   18.4484 C.ar    1  UNL1        0.0038
      9 C          -7.2572  -19.7536   19.1099 C.ar    1  UNL1        0.0177
     10 C          -7.3069  -19.2329   20.5157 C.ar    1  UNL1        0.0663
     11 C          -1.8856  -18.2168   20.4037 C.ar    1  UNL1        0.0141
     12 C          -2.8695  -18.5899   19.3347 C.ar    1  UNL1        0.0026
     13 C          -4.3223  -18.7456   19.6738 C.ar    1  UNL1        0.0176
     14 C          -4.7914  -18.5282   21.0818 C.ar    1  UNL1        0.0640
     15 C          -3.8075  -18.1550   22.1509 C.ar    1  UNL1        0.0176
     16 C          -2.3547  -17.9993   21.8118 C.ar    1  UNL1        0.0026
     17 O           0.2135  -16.7094   20.1369 O.co2   1  UNL1       -0.5446
     18 C          -0.4328  -18.0611   20.0646 C.2     1  UNL1        0.0729
     19 O           0.3737  -19.2570   19.6533 O.co2   1  UNL1       -0.5446
     20 C          -9.3747  -18.4343   23.7018 C.2     1  UNL1        0.1987
     21 O          -9.1020  -18.9112   25.0975 O.2     1  UNL1       -0.2865
     22 C         -10.6715  -17.7510   23.3828 C.ar    1  UNL1        0.0601
     23 C         -11.9669  -18.3431   23.8533 C.ar    1  UNL1        0.0615
     24 CL        -11.9655  -19.6185   24.6428 Cl      1  UNL1       -0.0821
     25 C         -13.2635  -17.6598   23.5342 C.ar    1  UNL1        0.0115
     26 C         -13.2647  -16.3844   22.7447 C.ar    1  UNL1        0.0017
     27 C         -11.9693  -15.7924   22.2742 C.ar    1  UNL1        0.0115
     28 C         -10.6727  -16.4756   22.5932 C.ar    1  UNL1        0.0615
     29 CL         -9.3773  -15.8835   22.1227 Cl      1  UNL1       -0.0821
@<TRIPOS>UNITY_ATOM_ATTR
17 1
charge -1
@<TRIPOS>BOND
     1    17    18   ar
     2    18    19   ar
     3    18    11    1
     4    11    12   ar
     5    12    13   ar
     6    13    14   ar
     7    14     1    1
     8     1     2   ar
     9     2     3   ar
    10     3    20    1
    11    20    21    2
    12    20    22    1
    13    22    23   ar
    14    23    24    1
    15    23    25   ar
    16    25    26   ar
    17    26    27   ar
    18    27    28   ar
    19    28    29    1
    20     3     4   ar
    21     4     5   ar
    22     5     6    1
    23     5     7   ar
    24     7     8   ar
    25     8     9   ar
    26     9    10   ar
    27    14    15   ar
    28    15    16   ar
    29    16    11   ar
    30    10     1   ar
    31    28    22   ar
    32    10     4   ar
@<TRIPOS>MOLECULE
*****
 29 32 0 0 0
SMALL
GASTEIGER

@<TRIPOS>ATOM
      1 N          -6.2415  -18.6823   21.4219 N.ar    1  UNL1       -0.3048
      2 C          -6.8851  -18.3180   22.7269 C.ar    1  UNL1        0.0833
      3 C          -8.3469  -18.6393   22.6284 C.ar    1  UNL1        0.0601
      4 C          -8.6068  -19.2021   21.2625 C.ar    1  UNL1        0.0481
      5 C          -9.8602  -19.6939   20.6013 C.ar    1  UNL1        0.1416
      6 F         -11.1615  -19.6673   21.3470 F       1  UNL1       -0.2041
      7 C          -9.8123  -20.2122   19.1946 C.ar    1  UNL1        0.0297
      8 C          -8.5111  -20.2387   18.4489 C.ar    1  UNL1        0.0038
      9 C          -7.2577  -19.7470   19.1101 C.ar    1  UNL1        0.0177
     10 C          -7.3055  -19.2287   20.5168 C.ar    1  UNL1        0.0663
     11 C          -1.8834  -18.2175   20.4012 C.ar    1  UNL1        0.0141
     12 C          -2.3482  -18.0195   21.8135 C.ar    1  UNL1        0.0026
     13 C          -3.8009  -18.1744   22.1537 C.ar    1  UNL1        0.0176
     14 C          -4.7888  -18.5273   21.0817 C.ar    1  UNL1        0.0640
     15 C          -4.3240  -18.7254   19.6693 C.ar    1  UNL1        0.0176
     16 C          -2.8713  -18.5705   19.3290 C.ar    1  UNL1        0.0026
     17 O           0.3759  -19.2598   19.6536 O.co2   1  UNL1       -0.5446
     18 C          -0.4308  -18.0626   20.0609 C.2     1  UNL1        0.0729
     19 O           0.2152  -16.7104   20.1280 O.co2   1  UNL1       -0.5446
     20 C          -9.3695  -18.4338   23.7064 C.2     1  UNL1        0.1987
     21 O          -9.0898  -18.9005   25.1042 O.2     1  UNL1       -0.2865
     22 C         -10.6718  -17.7616   23.3867 C.ar    1  UNL1        0.0601
     23 C         -10.6837  -16.4874   22.5953 C.ar    1  UNL1        0.0615
     24 CL         -9.3932  -15.8855   22.1236 Cl      1  UNL1       -0.0821
     25 C         -11.9859  -15.8152   22.2755 C.ar    1  UNL1        0.0115
     26 C         -13.2763  -16.4172   22.7471 C.ar    1  UNL1        0.0017
     27 C         -13.2644  -17.6913   23.5385 C.ar    1  UNL1        0.0115
     28 C         -11.9622  -18.3636   23.8583 C.ar    1  UNL1        0.0615
     29 CL        -11.9504  -19.6377   24.6497 Cl      1  UNL1       -0.0821
@<TRIPOS>UNITY_ATOM_ATTR
17 1
charge -1
@<TRIPOS>BOND
     1    17    18   ar
     2    18    19   ar
     3    18    11    1
     4    11    12   ar
     5    12    13   ar
     6    13    14   ar
     7    14     1    1
     8     1     2   ar
     9     2     3   ar
    10     3    20    1
    11    20    21    2
    12    20    22    1
    13    22    23   ar
    14    23    24    1
    15    23    25   ar
    16    25    26   ar
    17    26    27   ar
    18    27    28   ar
    19    28    29    1
    20     3     4   ar
    21     4     5   ar
    22     5     6    1
    23     5     7   ar
    24     7     8   ar
    25     8     9   ar
    26     9    10   ar
    27    14    15   ar
    28    15    16   ar
    29    16    11   ar
    30    10     1   ar
    31    28    22   ar
    32    10     4   ar
@<TRIPOS>MOLECULE
*****
 29 32 0 0 0
SMALL
GASTEIGER

@<TRIPOS>ATOM
      1 N          -5.6469  -16.8555   23.0487 N.ar    1  UNL1       -0.3048
      2 C          -7.0250  -17.1421   22.5303 C.ar    1  UNL1        0.0833
      3 C          -8.0123  -16.6986   23.5688 C.ar    1  UNL1        0.0601
      4 C          -7.2445  -16.1379   24.7290 C.ar    1  UNL1        0.0481
      5 C          -7.6876  -15.5516   26.0366 C.ar    1  UNL1        0.1416
      6 F          -9.1495  -15.4546   26.3581 F       1  UNL1       -0.2041
      7 C          -6.6687  -15.0622   27.0227 C.ar    1  UNL1        0.0297
      8 C          -5.2068  -15.1592   26.7012 C.ar    1  UNL1        0.0038
      9 C          -4.7637  -15.7455   25.3937 C.ar    1  UNL1        0.0177
     10 C          -5.7825  -16.2349   24.4075 C.ar    1  UNL1        0.0663
     11 C          -1.7838  -17.7078   20.9039 C.ar    1  UNL1        0.0141
     12 C          -2.8717  -18.7402   20.9282 C.ar    1  UNL1        0.0026
     13 C          -4.1594  -18.4561   21.6432 C.ar    1  UNL1        0.0176
     14 C          -4.3592  -17.1397   22.3338 C.ar    1  UNL1        0.0640
     15 C          -3.2713  -16.1072   22.3094 C.ar    1  UNL1        0.0176
     16 C          -1.9836  -16.3913   21.5944 C.ar    1  UNL1        0.0026
     17 O          -0.4986  -18.2400   18.7096 O.co2   1  UNL1       -0.5446
     18 C          -0.4961  -17.9920   20.1889 C.2     1  UNL1        0.0729
     19 O           0.7940  -18.0281   20.9533 O.co2   1  UNL1       -0.5446
     20 C          -9.5054  -16.7983   23.4654 C.2     1  UNL1        0.1987
     21 O         -10.3698  -15.6978   24.0053 O.2     1  UNL1       -0.2865
     22 C         -10.1342  -17.9987   22.8219 C.ar    1  UNL1        0.0601
     23 C         -10.6116  -17.9246   21.4018 C.ar    1  UNL1        0.0615
     24 CL        -10.4602  -16.6503   20.6252 Cl      1  UNL1       -0.0821
     25 C         -11.2403  -19.1249   20.7584 C.ar    1  UNL1        0.0115
     26 C         -11.3917  -20.3992   21.5351 C.ar    1  UNL1        0.0017
     27 C         -10.9143  -20.4732   22.9551 C.ar    1  UNL1        0.0115
     28 C         -10.2856  -19.2730   23.5986 C.ar    1  UNL1        0.0615
     29 CL         -9.8082  -19.3470   25.0187 Cl      1  UNL1       -0.0821
@<TRIPOS>UNITY_ATOM_ATTR
17 1
charge -1
@<TRIPOS>BOND
     1    17    18   ar
     2    18    19   ar
     3    18    11    1
     4    11    12   ar
     5    12    13   ar
     6    13    14   ar
     7    14     1    1
     8     1     2   ar
     9     2     3   ar
    10     3    20    1
    11    20    21    2
    12    20    22    1
    13    22    23   ar
    14    23    24    1
    15    23    25   ar
    16    25    26   ar
    17    26    27   ar
    18    27    28   ar
    19    28    29    1
    20     3     4   ar
    21     4     5   ar
    22     5     6    1
    23     5     7   ar
    24     7     8   ar
    25     8     9   ar
    26     9    10   ar
    27    14    15   ar
    28    15    16   ar
    29    16    11   ar
    30    10     1   ar
    31    28    22   ar
    32    10     4   ar
@<TRIPOS>MOLECULE
*****
 29 32 0 0 0
SMALL
GASTEIGER

@<TRIPOS>ATOM
      1 N          -6.2637  -18.2085   21.3108 N.ar    1  UNL1       -0.3048
      2 C          -6.9156  -17.4506   22.4291 C.ar    1  UNL1        0.0833
      3 C          -8.3921  -17.7066   22.3636 C.ar    1  UNL1        0.0601
      4 C          -8.6528  -18.6226   21.2048 C.ar    1  UNL1        0.0481
      5 C          -9.9181  -19.2144   20.6580 C.ar    1  UNL1        0.1416
      6 F         -11.2335  -18.9042   21.3087 F       1  UNL1       -0.2041
      7 C          -9.8679  -20.1163   19.4606 C.ar    1  UNL1        0.0297
      8 C          -8.5524  -20.4265   18.8099 C.ar    1  UNL1        0.0038
      9 C          -7.2872  -19.8348   19.3566 C.ar    1  UNL1        0.0177
     10 C          -7.3374  -18.9328   20.5541 C.ar    1  UNL1        0.0663
     11 C          -1.8602  -18.2942   20.3876 C.ar    1  UNL1        0.0141
     12 C          -2.3285  -18.0049   21.7830 C.ar    1  UNL1        0.0026
     13 C          -3.7964  -17.9764   22.0906 C.ar    1  UNL1        0.0176
     14 C          -4.7959  -18.2370   21.0031 C.ar    1  UNL1        0.0640
     15 C          -4.3276  -18.5263   19.6077 C.ar    1  UNL1        0.0176
     16 C          -2.8597  -18.5549   19.3000 C.ar    1  UNL1        0.0026
     17 O           0.4036  -17.0516   20.1033 O.co2   1  UNL1       -0.5446
     18 C          -0.3924  -18.3227   20.0799 C.2     1  UNL1        0.0729
     19 O           0.2794  -19.6224   19.7490 O.co2   1  UNL1       -0.5446
     20 C          -9.4264  -17.1450   23.2936 C.2     1  UNL1        0.1987
     21 O         -10.8115  -16.8624   22.7923 O.2     1  UNL1       -0.2865
     22 C          -9.0755  -16.8661   24.7252 C.ar    1  UNL1        0.0601
     23 C          -8.3743  -15.5915   25.0909 C.ar    1  UNL1        0.0615
     24 CL         -8.0241  -14.5958   24.0250 Cl      1  UNL1       -0.0821
     25 C          -8.0234  -15.3126   26.5223 C.ar    1  UNL1        0.0115
     26 C          -8.3737  -16.3083   27.5880 C.ar    1  UNL1        0.0017
     27 C          -9.0749  -17.5829   27.2223 C.ar    1  UNL1        0.0115
     28 C          -9.4258  -17.8619   25.7909 C.ar    1  UNL1        0.0615
     29 CL        -10.1269  -19.1365   25.4252 Cl      1  UNL1       -0.0821
@<TRIPOS>UNITY_ATOM_ATTR
17 1
charge -1
@<TRIPOS>BOND
     1    17    18   ar
     2    18    19   ar
     3    18    11    1
     4    11    12   ar
     5    12    13   ar
     6    13    14   ar
     7    14     1    1
     8     1     2   ar
     9     2     3   ar
    10     3    20    1
    11    20    21    2
    12    20    22    1
    13    22    23   ar
    14    23    24    1
    15    23    25   ar
    16    25    26   ar
    17    26    27   ar
    18    27    28   ar
    19    28    29    1
    20     3     4   ar
    21     4     5   ar
    22     5     6    1
    23     5     7   ar
    24     7     8   ar
    25     8     9   ar
    26     9    10   ar
    27    14    15   ar
    28    15    16   ar
    29    16    11   ar
    30    10     1   ar
    31    28    22   ar
    32    10     4   ar
@<TRIPOS>MOLECULE
*****
 29 32 0 0 0
SMALL
GASTEIGER

@<TRIPOS>ATOM
      1 N          -6.2855  -18.1835   21.3133 N.ar    1  UNL1       -0.3048
      2 C          -6.9345  -17.4275   22.4346 C.ar    1  UNL1        0.0833
      3 C          -8.4117  -17.6802   22.3699 C.ar    1  UNL1        0.0601
      4 C          -8.6756  -18.5922   21.2087 C.ar    1  UNL1        0.0481
      5 C          -9.9427  -19.1797   20.6616 C.ar    1  UNL1        0.1416
      6 F         -11.2567  -18.8686   21.3146 F       1  UNL1       -0.2041
      7 C          -9.8957  -20.0781   19.4614 C.ar    1  UNL1        0.0297
      8 C          -8.5817  -20.3892   18.8083 C.ar    1  UNL1        0.0038
      9 C          -7.3146  -19.8017   19.3554 C.ar    1  UNL1        0.0177
     10 C          -7.3616  -18.9033   20.5556 C.ar    1  UNL1        0.0663
     11 C          -1.8832  -18.2756   20.3852 C.ar    1  UNL1        0.0141
     12 C          -2.8820  -18.6110   19.3175 C.ar    1  UNL1        0.0026
     13 C          -4.3494  -18.5802   19.6269 C.ar    1  UNL1        0.0176
     14 C          -4.8181  -18.2142   21.0039 C.ar    1  UNL1        0.0640
     15 C          -3.8193  -17.8788   22.0716 C.ar    1  UNL1        0.0176
     16 C          -2.3518  -17.9095   21.7622 C.ar    1  UNL1        0.0026
     17 O           0.2494  -19.6038   19.7239 O.co2   1  UNL1       -0.5446
     18 C          -0.4158  -18.3063   20.0758 C.2     1  UNL1        0.0729
     19 O           0.3864  -17.0395   20.1183 O.co2   1  UNL1       -0.5446
     20 C          -9.4438  -17.1193   23.3028 C.2     1  UNL1        0.1987
     21 O         -10.8268  -16.8255   22.8021 O.2     1  UNL1       -0.2865
     22 C          -9.0927  -16.8521   24.7365 C.ar    1  UNL1        0.0601
     23 C          -9.4289  -17.8635   25.7920 C.ar    1  UNL1        0.0615
     24 CL        -10.1162  -19.1421   25.4137 Cl      1  UNL1       -0.0821
     25 C          -9.0780  -17.5964   27.2257 C.ar    1  UNL1        0.0115
     26 C          -8.3908  -16.3178   27.6039 C.ar    1  UNL1        0.0017
     27 C          -8.0546  -15.3064   26.5484 C.ar    1  UNL1        0.0115
     28 C          -8.4055  -15.5735   25.1147 C.ar    1  UNL1        0.0615
     29 CL         -8.0693  -14.5621   24.0592 Cl      1  UNL1       -0.0821
@<TRIPOS>UNITY_ATOM_ATTR
17 1
charge -1
@<TRIPOS>BOND
     1    17    18   ar
     2    18    19   ar
     3    18    11    1
     4    11    12   ar
     5    12    13   ar
     6    13    14   ar
     7    14     1    1
     8     1     2   ar
     9     2     3   ar
    10     3    20    1
    11    20    21    2
    12    20    22    1
    13    22    23   ar
    14    23    24    1
    15    23    25   ar
    16    25    26   ar
    17    26    27   ar
    18    27    28   ar
    19    28    29    1
    20     3     4   ar
    21     4     5   ar
    22     5     6    1
    23     5     7   ar
    24     7     8   ar
    25     8     9   ar
    26     9    10   ar
    27    14    15   ar
    28    15    16   ar
    29    16    11   ar
    30    10     1   ar
    31    28    22   ar
    32    10     4   ar
@<TRIPOS>MOLECULE
*****
 29 32 0 0 0
SMALL
GASTEIGER

@<TRIPOS>ATOM
      1 N           0.7124    1.5564   20.7506 N.ar    1  UNL1       -0.3048
      2 C          -0.1351    2.5374   19.9960 C.ar    1  UNL1        0.0833
      3 C          -0.9352    3.3219   20.9933 C.ar    1  UNL1        0.0601
      4 C          -0.5821    2.8257   22.3641 C.ar    1  UNL1        0.0481
      5 C          -1.0563    3.2265   23.7295 C.ar    1  UNL1        0.1416
      6 F          -2.0746    4.3176   23.8795 F       1  UNL1       -0.2041
      7 C          -0.5123    2.5361   24.9450 C.ar    1  UNL1        0.0297
      8 C           0.5060    1.4449   24.7950 C.ar    1  UNL1        0.0038
      9 C           0.9802    1.0442   23.4296 C.ar    1  UNL1        0.0177
     10 C           0.4361    1.7345   22.2141 C.ar    1  UNL1        0.0663
     11 C           3.5803   -1.4020   18.9413 C.ar    1  UNL1        0.0141
     12 C           3.1657   -0.1879   18.1642 C.ar    1  UNL1        0.0026
     13 C           2.2097    0.7982   18.7673 C.ar    1  UNL1        0.0176
     14 C           1.6684    0.5703   20.1475 C.ar    1  UNL1        0.0640
     15 C           2.0831   -0.6439   20.9246 C.ar    1  UNL1        0.0176
     16 C           3.0390   -1.6300   20.3215 C.ar    1  UNL1        0.0026
     17 O           4.4306   -3.8436   18.6853 O.co2   1  UNL1       -0.5446
     18 C           4.5363   -2.3881   18.3382 C.2     1  UNL1        0.0729
     19 O           5.5979   -1.9188   17.3881 O.co2   1  UNL1       -0.5446
     20 C          -1.9161    4.4113   20.6755 C.2     1  UNL1        0.1987
     21 O          -1.6878    5.8005   21.1930 O.2     1  UNL1       -0.2865
     22 C          -3.1254    4.1115   19.8401 C.ar    1  UNL1        0.0601
     23 C          -3.0837    4.3258   18.3561 C.ar    1  UNL1        0.0615
     24 CL         -1.8327    4.8400   17.7075 Cl      1  UNL1       -0.0821
     25 C          -4.2929    4.0260   17.5207 C.ar    1  UNL1        0.0115
     26 C          -5.5438    3.5118   18.1694 C.ar    1  UNL1        0.0017
     27 C          -5.5855    3.2975   19.6534 C.ar    1  UNL1        0.0115
     28 C          -4.3763    3.5973   20.4888 C.ar    1  UNL1        0.0615
     29 CL         -4.4180    3.3829   21.9728 Cl      1  UNL1       -0.0821
@<TRIPOS>UNITY_ATOM_ATTR
17 1
charge -1
@<TRIPOS>BOND
     1    17    18   ar
     2    18    19   ar
     3    18    11    1
     4    11    12   ar
     5    12    13   ar
     6    13    14   ar
     7    14     1    1
     8     1     2   ar
     9     2     3   ar
    10     3    20    1
    11    20    21    2
    12    20    22    1
    13    22    23   ar
    14    23    24    1
    15    23    25   ar
    16    25    26   ar
    17    26    27   ar
    18    27    28   ar
    19    28    29    1
    20     3     4   ar
    21     4     5   ar
    22     5     6    1
    23     5     7   ar
    24     7     8   ar
    25     8     9   ar
    26     9    10   ar
    27    14    15   ar
    28    15    16   ar
    29    16    11   ar
    30    10     1   ar
    31    28    22   ar
    32    10     4   ar
