@<TRIPOS>MOLECULE
*****
 27 30 0 0 0
SMALL
GASTEIGER

@<TRIPOS>ATOM
      1 C           0.6585    2.3082   21.6556 C.ar    1  UNL1        0.1446
      2 C           1.0249    2.1754   20.2072 C.ar    1  UNL1        0.0389
      3 C           1.8932    1.0392   19.7544 C.ar    1  UNL1        0.0204
      4 C           2.4161    0.6524   18.4028 C.ar    1  UNL1        0.0233
      5 C           3.2412   -0.5900   18.5630 C.ar    1  UNL1        0.1140
      6 N           3.2282   -0.9710   20.0138 N.ar    1  UNL1       -0.3238
      7 C           2.3951    0.0359   20.7501 C.ar    1  UNL1        0.0607
      8 C           2.0287    0.1687   22.1985 C.ar    1  UNL1        0.0269
      9 C           1.1604    1.3049   22.6513 C.ar    1  UNL1        0.0699
     10 BR          0.7939    1.4377   24.0998 Br      1  UNL1       -0.0458
     11 C           3.9767   -2.1856   20.4769 C.3     1  UNL1        0.1052
     12 C           3.9638   -2.5667   21.9277 C.3     1  UNL1        0.0263
     13 C           4.7382   -3.0192   19.4892 C.3     1  UNL1        0.1122
     14 N           4.7512   -2.6381   18.0385 N.am    1  UNL1       -0.2978
     15 C           4.0027   -1.4235   17.5754 C.2     1  UNL1        0.2618
     16 O           4.0157   -1.0425   16.1247 O.2     1  UNL1       -0.2686
     17 H           5.2509   -3.1852   17.3903 H       1  UNL1        0.1498
     18 O          -0.2099    3.4444   22.1085 O.3     1  UNL1       -0.4786
     19 N          -4.4453    3.7700   20.6233 N.3     1  UNL1       -0.2737
     20 C          -3.3131    3.6681   19.6447 C.3     1  UNL1        0.0758
     21 C          -1.9013    3.5596   20.1397 C.3     1  UNL1        0.0609
     22 C          -1.6217    3.5529   21.6134 C.3     1  UNL1        0.1687
     23 C          -2.7539    3.6548   22.5921 C.3     1  UNL1        0.0609
     24 C          -4.1657    3.7633   22.0970 C.3     1  UNL1        0.0758
     25 C          -6.2572    3.2047   18.8492 C.3     1  UNL1        0.0173
     26 C          -5.8570    3.8785   20.1283 C.3     1  UNL1        0.0576
     27 C          -6.8687    4.6607   20.9123 C.3     1  UNL1        0.0173
@<TRIPOS>BOND
     1    25    26    1
     2    26    27    1
     3    26    19    1
     4    19    20    1
     5    20    21    1
     6    21    22    1
     7    22    18    1
     8    18     1    1
     9     1     2   ar
    10     2     3   ar
    11     3     4   ar
    12     4     5   ar
    13     5     6   ar
    14     6     7   ar
    15     7     8   ar
    16     8     9   ar
    17     9    10    1
    18     6    11    1
    19    11    12    1
    20    11    13    1
    21    13    14    1
    22    14    15   am
    23    15    16    2
    24    22    23    1
    25    23    24    1
    26    24    19    1
    27     9     1   ar
    28     7     3   ar
    29    15     5    1
    30    14    17    1
@<TRIPOS>MOLECULE
*****
 27 30 0 0 0
SMALL
GASTEIGER

@<TRIPOS>ATOM
      1 C          -7.5244  -20.1706   22.1245 C.ar    1  UNL1        0.1446
      2 C          -8.3536  -20.3260   23.3647 C.ar    1  UNL1        0.0389
      3 C          -9.7036  -19.6779   23.4503 C.ar    1  UNL1        0.0204
      4 C         -10.7393  -19.6556   24.5351 C.ar    1  UNL1        0.0233
      5 C         -11.9002  -18.8384   24.0510 C.ar    1  UNL1        0.1140
      6 N         -11.5820  -18.3555   22.6669 N.ar    1  UNL1       -0.3238
      7 C         -10.2244  -18.8744   22.2957 C.ar    1  UNL1        0.0607
      8 C          -9.3952  -18.7190   21.0555 C.ar    1  UNL1        0.0269
      9 C          -8.0452  -19.3671   20.9698 C.ar    1  UNL1        0.0699
     10 BR         -7.2159  -19.2117   19.7296 Br      1  UNL1       -0.0458
     11 C         -12.5695  -17.5058   21.9235 C.3     1  UNL1        0.1052
     12 C         -12.2513  -17.0229   20.5394 C.3     1  UNL1        0.0263
     13 C         -13.8753  -17.1389   22.5641 C.3     1  UNL1        0.1122
     14 N         -14.1935  -17.6217   23.9481 N.am    1  UNL1       -0.2978
     15 C         -13.2060  -18.4714   24.6916 C.2     1  UNL1        0.2618
     16 O         -13.5242  -18.9543   26.0756 O.2     1  UNL1       -0.2686
     17 H         -15.0505  -17.3809   24.3686 H       1  UNL1        0.1498
     18 O          -6.1743  -20.8187   22.0388 O.3     1  UNL1       -0.4786
     19 N          -2.5533  -18.3488   21.0199 N.3     1  UNL1       -0.2737
     20 C          -2.9318  -19.5162   20.1574 C.3     1  UNL1        0.0758
     21 C          -4.1388  -20.3395   20.4970 C.3     1  UNL1        0.0609
     22 C          -4.9673  -19.9954   21.6992 C.3     1  UNL1        0.1687
     23 C          -4.5888  -18.8280   22.5617 C.3     1  UNL1        0.0609
     24 C          -3.3818  -18.0047   22.2221 C.3     1  UNL1        0.0758
     25 C          -1.2236  -16.1242   21.2009 C.3     1  UNL1        0.0173
     26 C          -1.3463  -17.5256   20.6803 C.3     1  UNL1        0.0576
     27 C          -0.2620  -18.1037   19.8199 C.3     1  UNL1        0.0173
@<TRIPOS>BOND
     1    25    26    1
     2    26    27    1
     3    26    19    1
     4    19    20    1
     5    20    21    1
     6    21    22    1
     7    22    18    1
     8    18     1    1
     9     1     2   ar
    10     2     3   ar
    11     3     4   ar
    12     4     5   ar
    13     5     6   ar
    14     6     7   ar
    15     7     8   ar
    16     8     9   ar
    17     9    10    1
    18     6    11    1
    19    11    12    1
    20    11    13    1
    21    13    14    1
    22    14    15   am
    23    15    16    2
    24    22    23    1
    25    23    24    1
    26    24    19    1
    27     9     1   ar
    28     7     3   ar
    29    15     5    1
    30    14    17    1
@<TRIPOS>MOLECULE
*****
 27 30 0 0 0
SMALL
GASTEIGER

@<TRIPOS>ATOM
      1 C           2.0472    1.8771   22.7468 C.ar    1  UNL1        0.1446
      2 C           2.1823    1.9244   21.2537 C.ar    1  UNL1        0.0389
      3 C           2.7664    0.7561   20.5162 C.ar    1  UNL1        0.0204
      4 C           3.0225    0.5162   19.0578 C.ar    1  UNL1        0.0233
      5 C           3.6298   -0.8476   18.9120 C.ar    1  UNL1        0.1140
      6 N           3.7490   -1.4505   20.2803 N.ar    1  UNL1       -0.3238
      7 C           3.2153   -0.4594   21.2717 C.ar    1  UNL1        0.0607
      8 C           3.0803   -0.5067   22.7649 C.ar    1  UNL1        0.0269
      9 C           2.4962    0.6615   23.5024 C.ar    1  UNL1        0.0699
     10 BR          2.3610    0.6143   24.9956 Br      1  UNL1       -0.0458
     11 C           4.3281   -2.8242   20.4467 C.3     1  UNL1        0.1052
     12 C           4.4473   -3.4272   21.8151 C.3     1  UNL1        0.0263
     13 C           4.7880   -3.5949   19.2448 C.3     1  UNL1        0.1122
     14 N           4.6688   -2.9919   17.8765 N.am    1  UNL1       -0.2978
     15 C           4.0897   -1.6183   17.7101 C.2     1  UNL1        0.2618
     16 O           3.9706   -1.0153   16.3418 O.2     1  UNL1       -0.2686
     17 H           4.9707   -3.4978   17.0877 H       1  UNL1        0.1498
     18 O           1.4630    3.0453   23.4845 O.3     1  UNL1       -0.4786
     19 N          -3.0014    3.4604   23.8675 N.3     1  UNL1       -0.2737
     20 C          -2.1698    3.1571   25.0784 C.3     1  UNL1        0.0758
     21 C          -0.6816    3.0187   24.9507 C.3     1  UNL1        0.0609
     22 C          -0.0251    3.1837   23.6122 C.3     1  UNL1        0.1687
     23 C          -0.8568    3.4870   22.4012 C.3     1  UNL1        0.0609
     24 C          -2.3449    3.6253   22.5289 C.3     1  UNL1        0.0758
     25 C          -5.3653    3.4215   22.7903 C.3     1  UNL1        0.0173
     26 C          -4.4895    3.5987   23.9951 C.3     1  UNL1        0.0576
     27 C          -5.1018    3.9143   25.3276 C.3     1  UNL1        0.0173
@<TRIPOS>BOND
     1    25    26    1
     2    26    27    1
     3    26    19    1
     4    19    20    1
     5    20    21    1
     6    21    22    1
     7    22    18    1
     8    18     1    1
     9     1     2   ar
    10     2     3   ar
    11     3     4   ar
    12     4     5   ar
    13     5     6   ar
    14     6     7   ar
    15     7     8   ar
    16     8     9   ar
    17     9    10    1
    18     6    11    1
    19    11    12    1
    20    11    13    1
    21    13    14    1
    22    14    15   am
    23    15    16    2
    24    22    23    1
    25    23    24    1
    26    24    19    1
    27     9     1   ar
    28     7     3   ar
    29    15     5    1
    30    14    17    1
@<TRIPOS>MOLECULE
*****
 27 30 0 0 0
SMALL
GASTEIGER

@<TRIPOS>ATOM
      1 C          -0.7177    3.4634   20.1461 C.ar    1  UNL1        0.1446
      2 C          -0.9475    3.3778   21.6259 C.ar    1  UNL1        0.0389
      3 C          -2.3263    3.5732   22.1832 C.ar    1  UNL1        0.0204
      4 C          -2.8546    3.5468   23.5869 C.ar    1  UNL1        0.0233
      5 C          -4.3301    3.8114   23.5319 C.ar    1  UNL1        0.1140
      6 N          -4.7137    4.0013   22.0943 N.ar    1  UNL1       -0.3238
      7 C          -3.4753    3.8542   21.2608 C.ar    1  UNL1        0.0607
      8 C          -3.2455    3.9397   19.7810 C.ar    1  UNL1        0.0269
      9 C          -1.8667    3.7443   19.2237 C.ar    1  UNL1        0.0699
     10 BR         -1.6367    3.8298   17.7438 Br      1  UNL1       -0.0458
     11 C          -6.1411    4.2838   21.7300 C.3     1  UNL1        0.1052
     12 C          -6.5247    4.4738   20.2923 C.3     1  UNL1        0.0263
     13 C          -7.1849    4.3762   22.8033 C.3     1  UNL1        0.1122
     14 N          -6.8013    4.1863   24.2409 N.am    1  UNL1       -0.2978
     15 C          -5.3739    3.9038   24.6052 C.2     1  UNL1        0.2618
     16 O          -4.9903    3.7138   26.0428 O.2     1  UNL1       -0.2686
     17 H          -7.4864    4.2470   24.9453 H       1  UNL1        0.1498
     18 O           0.6612    3.2679   19.5887 O.3     1  UNL1       -0.4786
     19 N           2.7991   -0.6452   20.1941 N.3     1  UNL1       -0.2737
     20 C           1.3131   -0.6260   19.9915 C.3     1  UNL1        0.0758
     21 C           0.6003    0.6784   19.7897 C.3     1  UNL1        0.0609
     22 C           1.3738    1.9636   19.7905 C.3     1  UNL1        0.1687
     23 C           2.8600    1.9444   19.9932 C.3     1  UNL1        0.0609
     24 C           3.5726    0.6400   20.1950 C.3     1  UNL1        0.0758
     25 C           4.0980   -2.2845   21.7354 C.3     1  UNL1        0.0173
     26 C           3.5118   -1.9495   20.3959 C.3     1  UNL1        0.0576
     27 C           3.6382   -2.9190   19.2582 C.3     1  UNL1        0.0173
@<TRIPOS>BOND
     1    25    26    1
     2    26    27    1
     3    26    19    1
     4    19    20    1
     5    20    21    1
     6    21    22    1
     7    22    18    1
     8    18     1    1
     9     1     2   ar
    10     2     3   ar
    11     3     4   ar
    12     4     5   ar
    13     5     6   ar
    14     6     7   ar
    15     7     8   ar
    16     8     9   ar
    17     9    10    1
    18     6    11    1
    19    11    12    1
    20    11    13    1
    21    13    14    1
    22    14    15   am
    23    15    16    2
    24    22    23    1
    25    23    24    1
    26    24    19    1
    27     9     1   ar
    28     7     3   ar
    29    15     5    1
    30    14    17    1
@<TRIPOS>MOLECULE
*****
 27 30 0 0 0
SMALL
GASTEIGER

@<TRIPOS>ATOM
      1 C         -16.0076   -0.3863   19.1082 C.ar    1  UNL1        0.1446
      2 C         -14.5121   -0.4556   19.0146 C.ar    1  UNL1        0.0389
      3 C         -13.8211   -1.7869   19.0222 C.ar    1  UNL1        0.0204
      4 C         -12.3720   -2.1661   18.9437 C.ar    1  UNL1        0.0233
      5 C         -12.2808   -3.6623   18.9963 C.ar    1  UNL1        0.1140
      6 N         -13.6736   -4.2080   19.1073 N.ar    1  UNL1       -0.3238
      7 C         -14.6256   -3.0489   19.1233 C.ar    1  UNL1        0.0607
      8 C         -16.1210   -2.9796   19.2169 C.ar    1  UNL1        0.0269
      9 C         -16.8120   -1.6483   19.2093 C.ar    1  UNL1        0.0699
     10 BR        -18.3075   -1.5789   19.3029 Br      1  UNL1       -0.0458
     11 C         -13.8950   -5.6897   19.1795 C.3     1  UNL1        0.1052
     12 C         -15.2879   -6.2354   19.2905 C.3     1  UNL1        0.0263
     13 C         -12.7237   -6.6259   19.1406 C.3     1  UNL1        0.1122
     14 N         -11.3308   -6.0803   19.0296 N.am    1  UNL1       -0.2978
     15 C         -11.1094   -4.5985   18.9575 C.2     1  UNL1        0.2618
     16 O          -9.7166   -4.0529   18.8465 O.2     1  UNL1       -0.2686
     17 H         -10.5620   -6.6947   19.0042 H       1  UNL1        0.1498
     18 O         -16.6986    0.9451   19.1007 O.3     1  UNL1       -0.4786
     19 N         -16.5566    3.5746   22.7497 N.3     1  UNL1       -0.2737
     20 C         -17.3184    2.2830   22.7852 C.3     1  UNL1        0.0758
     21 C         -17.3658    1.4065   21.5689 C.3     1  UNL1        0.0609
     22 C         -16.6513    1.8216   20.3170 C.3     1  UNL1        0.1687
     23 C         -15.8894    3.1132   20.2815 C.3     1  UNL1        0.0609
     24 C         -15.8420    3.9897   21.4978 C.3     1  UNL1        0.0758
     25 C         -15.1934    4.7627   24.6152 C.3     1  UNL1        0.0173
     26 C         -16.5092    4.4511   23.9660 C.3     1  UNL1        0.0576
     27 C         -17.7778    5.0161   24.5332 C.3     1  UNL1        0.0173
@<TRIPOS>BOND
     1    25    26    1
     2    26    27    1
     3    26    19    1
     4    19    20    1
     5    20    21    1
     6    21    22    1
     7    22    18    1
     8    18     1    1
     9     1     2   ar
    10     2     3   ar
    11     3     4   ar
    12     4     5   ar
    13     5     6   ar
    14     6     7   ar
    15     7     8   ar
    16     8     9   ar
    17     9    10    1
    18     6    11    1
    19    11    12    1
    20    11    13    1
    21    13    14    1
    22    14    15   am
    23    15    16    2
    24    22    23    1
    25    23    24    1
    26    24    19    1
    27     9     1   ar
    28     7     3   ar
    29    15     5    1
    30    14    17    1
@<TRIPOS>MOLECULE
*****
 27 30 0 0 0
SMALL
GASTEIGER

@<TRIPOS>ATOM
      1 C           7.2965   -5.2349   24.1989 C.ar    1  UNL1        0.1446
      2 C           6.6767   -4.3164   25.2098 C.ar    1  UNL1        0.0389
      3 C           6.9265   -4.5334   26.6729 C.ar    1  UNL1        0.0204
      4 C           6.4546   -3.7974   27.8917 C.ar    1  UNL1        0.0233
      5 C           7.0326   -4.4779   29.0970 C.ar    1  UNL1        0.1140
      6 N           7.8617   -5.6346   28.6231 N.ar    1  UNL1       -0.3238
      7 C           7.7961   -5.6690   27.1249 C.ar    1  UNL1        0.0607
      8 C           8.4160   -6.5874   26.1139 C.ar    1  UNL1        0.0269
      9 C           8.1661   -6.3704   24.6509 C.ar    1  UNL1        0.0699
     10 BR          8.7860   -7.2890   23.6398 Br      1  UNL1       -0.0458
     11 C           8.5693   -6.5072   29.6170 C.3     1  UNL1        0.1052
     12 C           9.3984   -7.6640   29.1431 C.3     1  UNL1        0.0263
     13 C           8.4477   -6.2231   31.0848 C.3     1  UNL1        0.1122
     14 N           7.6186   -5.0664   31.5588 N.am    1  UNL1       -0.2978
     15 C           6.9110   -4.1938   30.5648 C.2     1  UNL1        0.2618
     16 O           6.0819   -3.0371   31.0387 O.2     1  UNL1       -0.2686
     17 H           7.5388   -4.8799   32.5221 H       1  UNL1        0.1498
     18 O           7.0467   -5.0180   22.7358 O.3     1  UNL1       -0.4786
     19 N           4.5902   -1.5039   21.3695 N.3     1  UNL1       -0.2737
     20 C           6.0879   -1.4364   21.3203 C.3     1  UNL1        0.0758
     21 C           6.9067   -2.6078   21.7758 C.3     1  UNL1        0.0609
     22 C           6.2279   -3.8466   22.2803 C.3     1  UNL1        0.1687
     23 C           4.7302   -3.9140   22.3295 C.3     1  UNL1        0.0609
     24 C           3.9114   -2.7426   21.8741 C.3     1  UNL1        0.0758
     25 C           4.4089    1.0177   20.7706 C.3     1  UNL1        0.0173
     26 C           3.7714   -0.3325   20.9141 C.3     1  UNL1        0.0576
     27 C           2.3151   -0.5113   20.6021 C.3     1  UNL1        0.0173
@<TRIPOS>BOND
     1    25    26    1
     2    26    27    1
     3    26    19    1
     4    19    20    1
     5    20    21    1
     6    21    22    1
     7    22    18    1
     8    18     1    1
     9     1     2   ar
    10     2     3   ar
    11     3     4   ar
    12     4     5   ar
    13     5     6   ar
    14     6     7   ar
    15     7     8   ar
    16     8     9   ar
    17     9    10    1
    18     6    11    1
    19    11    12    1
    20    11    13    1
    21    13    14    1
    22    14    15   am
    23    15    16    2
    24    22    23    1
    25    23    24    1
    26    24    19    1
    27     9     1   ar
    28     7     3   ar
    29    15     5    1
    30    14    17    1
@<TRIPOS>MOLECULE
*****
 27 30 0 0 0
SMALL
GASTEIGER

@<TRIPOS>ATOM
      1 C           5.1876   -0.7327   24.8617 C.ar    1  UNL1        0.1446
      2 C           4.7870   -2.1078   24.4164 C.ar    1  UNL1        0.0389
      3 C           4.7741   -2.4490   22.9558 C.ar    1  UNL1        0.0204
      4 C           4.4273   -3.7110   22.2229 C.ar    1  UNL1        0.0233
      5 C           4.6006   -3.4570   20.7547 C.ar    1  UNL1        0.1140
      6 N           5.0546   -2.0381   20.5803 N.ar    1  UNL1       -0.3238
      7 C           5.1618   -1.4151   21.9406 C.ar    1  UNL1        0.0607
      8 C           5.5624   -0.0399   22.3860 C.ar    1  UNL1        0.0269
      9 C           5.5753    0.3013   23.8465 C.ar    1  UNL1        0.0699
     10 BR          5.9759    1.6765   24.2920 Br      1  UNL1       -0.0458
     11 C           5.3117   -1.4966   19.2053 C.3     1  UNL1        0.1052
     12 C           5.7657   -0.0776   19.0307 C.3     1  UNL1        0.0263
     13 C           5.1148   -2.3741   18.0047 C.3     1  UNL1        0.1122
     14 N           4.6608   -3.7930   18.1792 N.am    1  UNL1       -0.2978
     15 C           4.4037   -4.3345   19.5542 C.2     1  UNL1        0.2618
     16 O           3.9497   -5.7535   19.7286 O.2     1  UNL1       -0.2686
     17 H           4.5316   -4.3689   17.3912 H       1  UNL1        0.1498
     18 O           5.2005   -0.3914   26.3224 O.3     1  UNL1       -0.4786
     19 N           1.3279    0.3215   28.5007 N.3     1  UNL1       -0.2737
     20 C           2.3684   -0.5798   29.0963 C.3     1  UNL1        0.0758
     21 C           3.6594   -0.8175   28.3702 C.3     1  UNL1        0.0609
     22 C           3.9096   -0.1538   27.0485 C.3     1  UNL1        0.1687
     23 C           2.8690    0.7477   26.4529 C.3     1  UNL1        0.0609
     24 C           1.5782    0.9853   27.1790 C.3     1  UNL1        0.0758
     25 C          -0.0391    1.6064   30.2980 C.3     1  UNL1        0.0173
     26 C           0.0371    0.5592   29.2268 C.3     1  UNL1        0.0576
     27 C          -1.1776   -0.2505   28.8817 C.3     1  UNL1        0.0173
@<TRIPOS>BOND
     1    25    26    1
     2    26    27    1
     3    26    19    1
     4    19    20    1
     5    20    21    1
     6    21    22    1
     7    22    18    1
     8    18     1    1
     9     1     2   ar
    10     2     3   ar
    11     3     4   ar
    12     4     5   ar
    13     5     6   ar
    14     6     7   ar
    15     7     8   ar
    16     8     9   ar
    17     9    10    1
    18     6    11    1
    19    11    12    1
    20    11    13    1
    21    13    14    1
    22    14    15   am
    23    15    16    2
    24    22    23    1
    25    23    24    1
    26    24    19    1
    27     9     1   ar
    28     7     3   ar
    29    15     5    1
    30    14    17    1
@<TRIPOS>MOLECULE
*****
 27 30 0 0 0
SMALL
GASTEIGER

@<TRIPOS>ATOM
      1 C           7.2457   -4.6004   23.4311 C.ar    1  UNL1        0.1446
      2 C           5.9252   -3.9109   23.6064 C.ar    1  UNL1        0.0389
      3 C           5.3031   -3.1779   22.4550 C.ar    1  UNL1        0.0204
      4 C           4.0206   -2.4103   22.3290 C.ar    1  UNL1        0.0233
      5 C           3.9264   -1.8924   20.9244 C.ar    1  UNL1        0.1140
      6 N           5.1507   -2.3400   20.1823 N.ar    1  UNL1       -0.3238
      7 C           6.0016   -3.1345   21.1283 C.ar    1  UNL1        0.0607
      8 C           7.3221   -3.8240   20.9529 C.ar    1  UNL1        0.0269
      9 C           7.9441   -4.5569   22.1043 C.ar    1  UNL1        0.0699
     10 BR          9.2647   -5.2465   21.9290 Br      1  UNL1       -0.0458
     11 C           5.3326   -1.9663   18.7411 C.3     1  UNL1        0.1052
     12 C           6.5569   -2.4139   17.9989 C.3     1  UNL1        0.0263
     13 C           4.2901   -1.1450   18.0419 C.3     1  UNL1        0.1122
     14 N           3.0658   -0.6974   18.7840 N.am    1  UNL1       -0.2978
     15 C           2.8839   -1.0711   20.2253 C.2     1  UNL1        0.2618
     16 O           1.6596   -0.6235   20.9674 O.2     1  UNL1       -0.2686
     17 H           2.3816   -0.1583   18.3251 H       1  UNL1        0.1498
     18 O           7.8678   -5.3334   24.5825 O.3     1  UNL1       -0.4786
     19 N           6.9804   -4.0573   28.8056 N.3     1  UNL1       -0.2737
     20 C           7.9011   -3.2366   27.9519 C.3     1  UNL1        0.0758
     21 C           8.1969   -3.6620   26.5441 C.3     1  UNL1        0.0609
     22 C           7.5720   -4.9080   25.9902 C.3     1  UNL1        0.1687
     23 C           6.6513   -5.7287   26.8439 C.3     1  UNL1        0.0609
     24 C           6.3556   -5.3034   28.2516 C.3     1  UNL1        0.0758
     25 C           6.9133   -4.5852   31.3485 C.3     1  UNL1        0.0173
     26 C           6.6847   -3.6319   30.2132 C.3     1  UNL1        0.0576
     27 C           6.1602   -2.2532   30.4856 C.3     1  UNL1        0.0173
@<TRIPOS>BOND
     1    25    26    1
     2    26    27    1
     3    26    19    1
     4    19    20    1
     5    20    21    1
     6    21    22    1
     7    22    18    1
     8    18     1    1
     9     1     2   ar
    10     2     3   ar
    11     3     4   ar
    12     4     5   ar
    13     5     6   ar
    14     6     7   ar
    15     7     8   ar
    16     8     9   ar
    17     9    10    1
    18     6    11    1
    19    11    12    1
    20    11    13    1
    21    13    14    1
    22    14    15   am
    23    15    16    2
    24    22    23    1
    25    23    24    1
    26    24    19    1
    27     9     1   ar
    28     7     3   ar
    29    15     5    1
    30    14    17    1
@<TRIPOS>MOLECULE
*****
 27 30 0 0 0
SMALL
GASTEIGER

@<TRIPOS>ATOM
      1 C           0.8354    2.8909   20.6871 C.ar    1  UNL1        0.1446
      2 C          -0.4759    3.0059   19.9678 C.ar    1  UNL1        0.0389
      3 C          -1.7435    3.2004   20.7459 C.ar    1  UNL1        0.0204
      4 C          -3.1730    3.3458   20.3155 C.ar    1  UNL1        0.0233
      5 C          -4.0129    3.5151   21.5467 C.ar    1  UNL1        0.1140
      6 N          -3.1024    3.4743   22.7380 N.ar    1  UNL1       -0.3238
      7 C          -1.6998    3.2798   22.2431 C.ar    1  UNL1        0.0607
      8 C          -0.3886    3.1647   22.9624 C.ar    1  UNL1        0.0269
      9 C           0.8790    2.9702   22.1843 C.ar    1  UNL1        0.0699
     10 BR          2.1903    2.8552   22.9036 Br      1  UNL1       -0.0458
     11 C          -3.6681    3.6195   24.1196 C.3     1  UNL1        0.1052
     12 C          -2.7576    3.5787   25.3111 C.3     1  UNL1        0.0263
     13 C          -5.1444    3.8055   24.3099 C.3     1  UNL1        0.1122
     14 N          -6.0549    3.8464   23.1186 N.am    1  UNL1       -0.2978
     15 C          -5.4891    3.7011   21.7370 C.2     1  UNL1        0.2618
     16 O          -6.3996    3.7420   20.5456 O.2     1  UNL1       -0.2686
     17 H          -7.0237    3.9685   23.2434 H       1  UNL1        0.1498
     18 O           2.1030    2.6964   19.9091 O.3     1  UNL1       -0.4786
     19 N           3.6401   -1.4575   19.1136 N.3     1  UNL1       -0.2737
     20 C           2.3985   -1.2612   19.9320 C.3     1  UNL1        0.0758
     21 C           1.8861    0.1235   20.1972 C.3     1  UNL1        0.0609
     22 C           2.6154    1.3118   19.6439 C.3     1  UNL1        0.1687
     23 C           3.8570    1.1154   18.8255 C.3     1  UNL1        0.0609
     24 C           4.3694   -0.2692   18.5603 C.3     1  UNL1        0.0758
     25 C           5.5028   -3.0354   18.2247 C.3     1  UNL1        0.0173
     26 C           4.1525   -2.8421   18.8485 C.3     1  UNL1        0.0576
     27 C           3.3144   -4.0334   19.2071 C.3     1  UNL1        0.0173
@<TRIPOS>BOND
     1    25    26    1
     2    26    27    1
     3    26    19    1
     4    19    20    1
     5    20    21    1
     6    21    22    1
     7    22    18    1
     8    18     1    1
     9     1     2   ar
    10     2     3   ar
    11     3     4   ar
    12     4     5   ar
    13     5     6   ar
    14     6     7   ar
    15     7     8   ar
    16     8     9   ar
    17     9    10    1
    18     6    11    1
    19    11    12    1
    20    11    13    1
    21    13    14    1
    22    14    15   am
    23    15    16    2
    24    22    23    1
    25    23    24    1
    26    24    19    1
    27     9     1   ar
    28     7     3   ar
    29    15     5    1
    30    14    17    1
