@<TRIPOS>MOLECULE
*****
 26 29 0 0 0
SMALL
GASTEIGER

@<TRIPOS>ATOM
      1 C          -5.4276  -16.6630   23.9708 C.ar    1  UNL1        0.0143
      2 C          -6.4260  -16.8813   22.8728 C.ar    1  UNL1        0.0970
      3 N          -7.7748  -16.4704   23.3844 N.ar    1  UNL1       -0.2080
      4 C          -7.6100  -15.9981   24.7986 C.ar    1  UNL1        0.0823
      5 C          -8.5935  -15.4750   25.8031 C.ar    1  UNL1        0.0189
      6 C          -8.1263  -15.0709   27.1700 C.ar    1  UNL1        0.0015
      7 C          -6.6757  -15.1899   27.5323 C.ar    1  UNL1        0.0001
      8 C          -5.6922  -15.7130   26.5279 C.ar    1  UNL1        0.0013
      9 C          -6.1593  -16.1171   25.1610 C.ar    1  UNL1        0.0163
     10 S          -9.0624  -16.5226   22.6167 S.O2    1  UNL1        0.0860
     11 O          -9.5868  -17.5581   23.5666 O.2     1  UNL1       -0.1476
     12 O          -8.5379  -15.4869   21.6667 O.2     1  UNL1       -0.1476
     13 C         -10.3500  -16.5747   21.8489 C.ar    1  UNL1        0.1277
     14 C         -11.5021  -17.3814   22.3703 C.ar    1  UNL1        0.0204
     15 C         -12.7895  -17.4335   21.6025 C.ar    1  UNL1        0.0014
     16 C         -12.9250  -16.6788   20.3132 C.ar    1  UNL1        0.0001
     17 C         -11.7729  -15.8722   19.7918 C.ar    1  UNL1        0.0014
     18 C         -10.4854  -15.8201   20.5596 C.ar    1  UNL1        0.0204
     19 C          -3.9558  -16.9416   23.8924 C.3     1  UNL1        0.1008
     20 C          -1.4002  -18.1001   18.5889 C.3     1  UNL1        0.0897
     21 N          -2.0390  -17.8104   19.9147 N.3     1  UNL1       -0.2691
     22 C          -3.0300  -18.7747   20.4963 C.3     1  UNL1        0.0897
     23 C          -3.6689  -18.4851   21.8222 C.3     1  UNL1        0.0899
     24 N          -3.3168  -17.2313   22.5664 N.3     1  UNL1       -0.2665
     25 C          -2.3259  -16.2670   21.9848 C.3     1  UNL1        0.0899
     26 C          -1.6870  -16.5566   20.6590 C.3     1  UNL1        0.0897
@<TRIPOS>BOND
     1    20    21    1
     2    21    22    1
     3    22    23    1
     4    23    24    1
     5    24    19    1
     6    19     1    1
     7     1     2   ar
     8     2     3   ar
     9     3    10    1
    10    10    11    2
    11    10    12    2
    12    10    13    1
    13    13    14   ar
    14    14    15   ar
    15    15    16   ar
    16    16    17   ar
    17    17    18   ar
    18     3     4   ar
    19     4     5   ar
    20     5     6   ar
    21     6     7   ar
    22     7     8   ar
    23     8     9   ar
    24    24    25    1
    25    25    26    1
    26    26    21    1
    27     9     1   ar
    28    18    13   ar
    29     9     4   ar
@<TRIPOS>MOLECULE
*****
 26 29 0 0 0
SMALL
GASTEIGER

@<TRIPOS>ATOM
      1 C          -6.1424  -19.2339   21.7846 C.ar    1  UNL1        0.0143
      2 C          -7.6156  -19.5125   21.8321 C.ar    1  UNL1        0.0970
      3 N          -8.2600  -18.4561   22.6798 N.ar    1  UNL1       -0.2080
      4 C          -7.1851  -17.5245   23.1562 C.ar    1  UNL1        0.0823
      5 C          -7.2290  -16.3007   24.0224 C.ar    1  UNL1        0.0189
      6 C          -5.9642  -15.5576   24.3352 C.ar    1  UNL1        0.0015
      7 C          -4.6554  -16.0383   23.7819 C.ar    1  UNL1        0.0001
      8 C          -4.6116  -17.2621   22.9158 C.ar    1  UNL1        0.0013
      9 C          -5.8764  -18.0053   22.6030 C.ar    1  UNL1        0.0163
     10 S          -9.7225  -18.3498   22.9957 S.O2    1  UNL1        0.0860
     11 O          -9.5191  -19.1912   24.2206 O.2     1  UNL1       -0.1476
     12 O          -9.9259  -17.5083   21.7707 O.2     1  UNL1       -0.1476
     13 C         -11.1850  -18.2434   23.3115 C.ar    1  UNL1        0.1277
     14 C         -11.7079  -18.7494   24.6232 C.ar    1  UNL1        0.0204
     15 C         -13.1703  -18.6430   24.9389 C.ar    1  UNL1        0.0014
     16 C         -14.1101  -18.0306   23.9429 C.ar    1  UNL1        0.0001
     17 C         -13.5872  -17.5246   22.6312 C.ar    1  UNL1        0.0014
     18 C         -12.1247  -17.6310   22.3155 C.ar    1  UNL1        0.0204
     19 C          -5.1156  -20.0420   21.0480 C.3     1  UNL1        0.1008
     20 C           0.2606  -17.6714   19.8328 C.3     1  UNL1        0.0897
     21 N          -1.0834  -18.2640   20.1366 N.3     1  UNL1       -0.2691
     22 C          -1.2859  -19.0593   21.3921 C.3     1  UNL1        0.0897
     23 C          -2.6299  -19.6520   21.6960 C.3     1  UNL1        0.0899
     24 N          -3.7715  -19.4493   20.7442 N.3     1  UNL1       -0.2665
     25 C          -3.5689  -18.6540   19.4886 C.3     1  UNL1        0.0899
     26 C          -2.2249  -18.0613   19.1848 C.3     1  UNL1        0.0897
@<TRIPOS>BOND
     1    20    21    1
     2    21    22    1
     3    22    23    1
     4    23    24    1
     5    24    19    1
     6    19     1    1
     7     1     2   ar
     8     2     3   ar
     9     3    10    1
    10    10    11    2
    11    10    12    2
    12    10    13    1
    13    13    14   ar
    14    14    15   ar
    15    15    16   ar
    16    16    17   ar
    17    17    18   ar
    18     3     4   ar
    19     4     5   ar
    20     5     6   ar
    21     6     7   ar
    22     7     8   ar
    23     8     9   ar
    24    24    25    1
    25    25    26    1
    26    26    21    1
    27     9     1   ar
    28    18    13   ar
    29     9     4   ar
@<TRIPOS>MOLECULE
*****
 26 29 0 0 0
SMALL
GASTEIGER

@<TRIPOS>ATOM
      1 C         -13.6974   -6.8720   18.6836 C.ar    1  UNL1        0.0143
      2 C         -14.5462   -5.6367   18.7439 C.ar    1  UNL1        0.0970
      3 N         -13.6339   -4.4538   18.8796 N.ar    1  UNL1       -0.2080
      4 C         -12.2214   -4.9580   18.9032 C.ar    1  UNL1        0.0823
      5 C         -10.9045   -4.2493   19.0193 C.ar    1  UNL1        0.0189
      6 C          -9.6269   -5.0352   19.0143 C.ar    1  UNL1        0.0015
      7 C          -9.6662   -6.5297   18.8932 C.ar    1  UNL1        0.0001
      8 C         -10.9830   -7.2384   18.7771 C.ar    1  UNL1        0.0013
      9 C         -12.2606   -6.4526   18.7821 C.ar    1  UNL1        0.0163
     10 S         -14.0594   -3.0185   18.9749 S.O2    1  UNL1        0.0860
     11 O         -14.2275   -2.9694   17.4853 O.2     1  UNL1       -0.1476
     12 O         -13.8913   -3.0677   20.4647 O.2     1  UNL1       -0.1476
     13 C         -14.4849   -1.5833   19.0704 C.ar    1  UNL1        0.1277
     14 C         -13.6732   -0.5142   18.4010 C.ar    1  UNL1        0.0204
     15 C         -14.0987    0.9209   18.4965 C.ar    1  UNL1        0.0014
     16 C         -15.3361    1.2871   19.2614 C.ar    1  UNL1        0.0001
     17 C         -16.1478    0.2180   19.9308 C.ar    1  UNL1        0.0014
     18 C         -15.7222   -1.2172   19.8352 C.ar    1  UNL1        0.0204
     19 C         -14.1977   -8.2797   18.5486 C.3     1  UNL1        0.1008
     20 C         -20.0967   -9.3747   18.4914 C.3     1  UNL1        0.0897
     21 N         -18.6219   -9.1009   18.5056 N.3     1  UNL1       -0.2691
     22 C         -17.8453   -9.2419   19.7812 C.3     1  UNL1        0.0897
     23 C         -16.3706   -8.9682   19.7955 C.3     1  UNL1        0.0899
     24 N         -15.6725   -8.5534   18.5343 N.3     1  UNL1       -0.2665
     25 C         -16.4491   -8.4125   17.2588 C.3     1  UNL1        0.0899
     26 C         -17.9238   -8.6862   17.2444 C.3     1  UNL1        0.0897
@<TRIPOS>BOND
     1    20    21    1
     2    21    22    1
     3    22    23    1
     4    23    24    1
     5    24    19    1
     6    19     1    1
     7     1     2   ar
     8     2     3   ar
     9     3    10    1
    10    10    11    2
    11    10    12    2
    12    10    13    1
    13    13    14   ar
    14    14    15   ar
    15    15    16   ar
    16    16    17   ar
    17    17    18   ar
    18     3     4   ar
    19     4     5   ar
    20     5     6   ar
    21     6     7   ar
    22     7     8   ar
    23     8     9   ar
    24    24    25    1
    25    25    26    1
    26    26    21    1
    27     9     1   ar
    28    18    13   ar
    29     9     4   ar
@<TRIPOS>MOLECULE
*****
 26 29 0 0 0
SMALL
GASTEIGER

@<TRIPOS>ATOM
      1 C         -13.3291   -4.4807   19.4334 C.ar    1  UNL1        0.0143
      2 C         -14.6918   -5.0871   19.2743 C.ar    1  UNL1        0.0970
      3 N         -14.5301   -6.4228   18.6112 N.ar    1  UNL1       -0.2080
      4 C         -13.0675   -6.6419   18.3604 C.ar    1  UNL1        0.0823
      5 C         -12.3158   -7.7793   17.7349 C.ar    1  UNL1        0.0189
      6 C         -10.8218   -7.7164   17.6177 C.ar    1  UNL1        0.0015
      7 C         -10.0794   -6.5161   18.1259 C.ar    1  UNL1        0.0001
      8 C         -10.8312   -5.3787   18.7513 C.ar    1  UNL1        0.0013
      9 C         -12.3252   -5.4416   18.8685 C.ar    1  UNL1        0.0163
     10 S         -15.6368   -7.3727   18.2604 S.O2    1  UNL1        0.0860
     11 O         -15.6128   -6.8778   16.8446 O.2     1  UNL1       -0.1476
     12 O         -15.6608   -7.8676   19.6762 O.2     1  UNL1       -0.1476
     13 C         -16.7434   -8.3226   17.9096 C.ar    1  UNL1        0.1277
     14 C         -16.8093   -9.6714   18.5626 C.ar    1  UNL1        0.0204
     15 C         -17.9159  -10.6212   18.2119 C.ar    1  UNL1        0.0014
     16 C         -18.9568  -10.2223   17.2081 C.ar    1  UNL1        0.0001
     17 C         -18.8910   -8.8735   16.5551 C.ar    1  UNL1        0.0014
     18 C         -17.7843   -7.9237   16.9059 C.ar    1  UNL1        0.0204
     19 C         -13.0237   -3.1475   20.0492 C.3     1  UNL1        0.1008
     20 C         -12.4327    1.7015   16.5652 C.3     1  UNL1        0.0897
     21 N         -12.5804    0.4893   17.4362 N.3     1  UNL1       -0.2691
     22 C         -13.9090    0.1665   18.0532 C.3     1  UNL1        0.0897
     23 C         -14.0568   -1.0457   18.9242 C.3     1  UNL1        0.0899
     24 N         -12.8760   -1.9351   19.1781 N.3     1  UNL1       -0.2665
     25 C         -11.5474   -1.6124   18.5611 C.3     1  UNL1        0.0899
     26 C         -11.3996   -0.4002   17.6901 C.3     1  UNL1        0.0897
@<TRIPOS>BOND
     1    20    21    1
     2    21    22    1
     3    22    23    1
     4    23    24    1
     5    24    19    1
     6    19     1    1
     7     1     2   ar
     8     2     3   ar
     9     3    10    1
    10    10    11    2
    11    10    12    2
    12    10    13    1
    13    13    14   ar
    14    14    15   ar
    15    15    16   ar
    16    16    17   ar
    17    17    18   ar
    18     3     4   ar
    19     4     5   ar
    20     5     6   ar
    21     6     7   ar
    22     7     8   ar
    23     8     9   ar
    24    24    25    1
    25    25    26    1
    26    26    21    1
    27     9     1   ar
    28    18    13   ar
    29     9     4   ar
@<TRIPOS>MOLECULE
*****
 26 29 0 0 0
SMALL
GASTEIGER

@<TRIPOS>ATOM
      1 C          -6.5259  -18.9359   20.8715 C.ar    1  UNL1        0.0143
      2 C          -6.1369  -18.2252   22.1339 C.ar    1  UNL1        0.0970
      3 N          -7.3860  -17.6867   22.7662 N.ar    1  UNL1       -0.2080
      4 C          -8.5469  -18.0645   21.8947 C.ar    1  UNL1        0.0823
      5 C         -10.0193  -17.8052   22.0162 C.ar    1  UNL1        0.0189
      6 C         -10.9601  -18.3180   20.9665 C.ar    1  UNL1        0.0015
      7 C         -10.4286  -19.0901   19.7955 C.ar    1  UNL1        0.0001
      8 C          -8.9562  -19.3494   19.6740 C.ar    1  UNL1        0.0013
      9 C          -8.0153  -18.8365   20.7237 C.ar    1  UNL1        0.0163
     10 S          -7.4609  -16.9071   24.0456 S.O2    1  UNL1        0.0860
     11 O          -8.6524  -17.7146   24.4678 O.2     1  UNL1       -0.1476
     12 O          -6.2694  -16.0996   23.6234 O.2     1  UNL1       -0.1476
     13 C          -7.5358  -16.1275   25.3249 C.ar    1  UNL1        0.1277
     14 C          -8.8543  -15.9467   26.0170 C.ar    1  UNL1        0.0204
     15 C          -8.9291  -15.1671   27.2962 C.ar    1  UNL1        0.0014
     16 C          -7.6854  -14.5683   27.8835 C.ar    1  UNL1        0.0001
     17 C          -6.3670  -14.7491   27.1915 C.ar    1  UNL1        0.0014
     18 C          -6.2922  -15.5287   25.9121 C.ar    1  UNL1        0.0204
     19 C          -5.5899  -19.6250   19.9233 C.3     1  UNL1        0.1008
     20 C           0.2011  -18.0635   19.7595 C.3     1  UNL1        0.0897
     21 N          -1.2467  -18.4539   19.8005 N.3     1  UNL1       -0.2691
     22 C          -2.2308  -17.7812   18.8901 C.3     1  UNL1        0.0897
     23 C          -3.6786  -18.1715   18.9310 C.3     1  UNL1        0.0899
     24 N          -4.1421  -19.2346   19.8824 N.3     1  UNL1       -0.2665
     25 C          -3.1579  -19.9072   20.7928 C.3     1  UNL1        0.0899
     26 C          -1.7102  -19.5169   20.7519 C.3     1  UNL1        0.0897
@<TRIPOS>BOND
     1    20    21    1
     2    21    22    1
     3    22    23    1
     4    23    24    1
     5    24    19    1
     6    19     1    1
     7     1     2   ar
     8     2     3   ar
     9     3    10    1
    10    10    11    2
    11    10    12    2
    12    10    13    1
    13    13    14   ar
    14    14    15   ar
    15    15    16   ar
    16    16    17   ar
    17    17    18   ar
    18     3     4   ar
    19     4     5   ar
    20     5     6   ar
    21     6     7   ar
    22     7     8   ar
    23     8     9   ar
    24    24    25    1
    25    25    26    1
    26    26    21    1
    27     9     1   ar
    28    18    13   ar
    29     9     4   ar
@<TRIPOS>MOLECULE
*****
 26 29 0 0 0
SMALL
GASTEIGER

@<TRIPOS>ATOM
      1 C         -13.1484   -3.5954   18.6067 C.ar    1  UNL1        0.0143
      2 C         -14.4308   -4.3500   18.4168 C.ar    1  UNL1        0.0970
      3 N         -14.1104   -5.8154   18.4155 N.ar    1  UNL1       -0.2080
      4 C         -12.6301   -5.9665   18.6047 C.ar    1  UNL1        0.0823
      5 C         -11.7467   -7.1761   18.6846 C.ar    1  UNL1        0.0189
      6 C         -10.2688   -7.0137   18.8826 C.ar    1  UNL1        0.0015
      7 C          -9.6742   -5.6416   19.0007 C.ar    1  UNL1        0.0001
      8 C         -10.5576   -4.4320   18.9208 C.ar    1  UNL1        0.0013
      9 C         -12.0355   -4.5944   18.7228 C.ar    1  UNL1        0.0163
     10 S         -15.0972   -6.9335   18.2536 S.O2    1  UNL1        0.0860
     11 O         -14.7272   -7.0502   16.8047 O.2     1  UNL1       -0.1476
     12 O         -15.4672   -6.8168   19.7025 O.2     1  UNL1       -0.1476
     13 C         -16.0840   -8.0516   18.0917 C.ar    1  UNL1        0.1277
     14 C         -17.3764   -7.8126   17.3690 C.ar    1  UNL1        0.0204
     15 C         -18.3631   -8.9306   17.2072 C.ar    1  UNL1        0.0014
     16 C         -18.0574  -10.2879   17.7681 C.ar    1  UNL1        0.0001
     17 C         -16.7649  -10.5269   18.4908 C.ar    1  UNL1        0.0014
     18 C         -15.7782   -9.4088   18.6526 C.ar    1  UNL1        0.0204
     19 C         -13.0042   -2.1037   18.6694 C.3     1  UNL1        0.1008
     20 C         -17.8846    1.3707   19.0012 C.3     1  UNL1        0.0897
     21 N         -16.6645    0.5021   18.9183 N.3     1  UNL1       -0.2691
     22 C         -15.7557    0.5971   17.7288 C.3     1  UNL1        0.0897
     23 C         -14.5356   -0.2714   17.6458 C.3     1  UNL1        0.0899
     24 N         -14.2244   -1.2350   18.7524 N.3     1  UNL1       -0.2665
     25 C         -15.1332   -1.3301   19.9419 C.3     1  UNL1        0.0899
     26 C         -16.3533   -0.4615   20.0249 C.3     1  UNL1        0.0897
@<TRIPOS>BOND
     1    20    21    1
     2    21    22    1
     3    22    23    1
     4    23    24    1
     5    24    19    1
     6    19     1    1
     7     1     2   ar
     8     2     3   ar
     9     3    10    1
    10    10    11    2
    11    10    12    2
    12    10    13    1
    13    13    14   ar
    14    14    15   ar
    15    15    16   ar
    16    16    17   ar
    17    17    18   ar
    18     3     4   ar
    19     4     5   ar
    20     5     6   ar
    21     6     7   ar
    22     7     8   ar
    23     8     9   ar
    24    24    25    1
    25    25    26    1
    26    26    21    1
    27     9     1   ar
    28    18    13   ar
    29     9     4   ar
@<TRIPOS>MOLECULE
*****
 26 29 0 0 0
SMALL
GASTEIGER

@<TRIPOS>ATOM
      1 C          -8.4519  -17.0397   24.0552 C.ar    1  UNL1        0.0143
      2 C          -7.4168  -17.4645   23.0562 C.ar    1  UNL1        0.0970
      3 N          -6.0799  -16.9906   23.5440 N.ar    1  UNL1       -0.2080
      4 C          -6.2887  -16.2729   24.8445 C.ar    1  UNL1        0.0823
      5 C          -5.3333  -15.5956   25.7818 C.ar    1  UNL1        0.0189
      6 C          -5.8439  -14.9488   27.0351 C.ar    1  UNL1        0.0015
      7 C          -7.3099  -14.9791   27.3510 C.ar    1  UNL1        0.0001
      8 C          -8.2653  -15.6563   26.4138 C.ar    1  UNL1        0.0013
      9 C          -7.7547  -16.3032   25.1605 C.ar    1  UNL1        0.0163
     10 S          -4.7649  -17.1979   22.8526 S.O2    1  UNL1        0.0860
     11 O          -5.0707  -18.6594   22.7094 O.2     1  UNL1       -0.1476
     12 O          -4.4592  -15.7364   22.9959 O.2     1  UNL1       -0.1476
     13 C          -3.4499  -17.4052   22.1613 C.ar    1  UNL1        0.1277
     14 C          -2.5402  -16.2384   21.9145 C.ar    1  UNL1        0.0204
     15 C          -1.2253  -16.4458   21.2232 C.ar    1  UNL1        0.0014
     16 C          -0.8200  -17.8199   20.7786 C.ar    1  UNL1        0.0001
     17 C          -1.7298  -18.9867   21.0255 C.ar    1  UNL1        0.0014
     18 C          -3.0448  -18.7793   21.7168 C.ar    1  UNL1        0.0204
     19 C          -9.9255  -17.3047   23.9650 C.3     1  UNL1        0.1008
     20 C         -12.9510  -15.7749   19.0146 C.3     1  UNL1        0.0897
     21 N         -12.1946  -16.1574   20.2521 N.3     1  UNL1       -0.2691
     22 C         -12.8135  -17.0894   21.2513 C.3     1  UNL1        0.0897
     23 C         -12.0572  -17.4718   22.4889 C.3     1  UNL1        0.0899
     24 N         -10.6820  -16.9223   22.7273 N.3     1  UNL1       -0.2665
     25 C         -10.0631  -15.9903   21.7281 C.3     1  UNL1        0.0899
     26 C         -10.8194  -15.6078   20.4905 C.3     1  UNL1        0.0897
@<TRIPOS>BOND
     1    20    21    1
     2    21    22    1
     3    22    23    1
     4    23    24    1
     5    24    19    1
     6    19     1    1
     7     1     2   ar
     8     2     3   ar
     9     3    10    1
    10    10    11    2
    11    10    12    2
    12    10    13    1
    13    13    14   ar
    14    14    15   ar
    15    15    16   ar
    16    16    17   ar
    17    17    18   ar
    18     3     4   ar
    19     4     5   ar
    20     5     6   ar
    21     6     7   ar
    22     7     8   ar
    23     8     9   ar
    24    24    25    1
    25    25    26    1
    26    26    21    1
    27     9     1   ar
    28    18    13   ar
    29     9     4   ar
@<TRIPOS>MOLECULE
*****
 26 29 0 0 0
SMALL
GASTEIGER

@<TRIPOS>ATOM
      1 C          -7.7708  -19.1200   22.6730 C.ar    1  UNL1        0.0143
      2 C          -6.4703  -19.4045   21.9817 C.ar    1  UNL1        0.0970
      3 N          -5.5650  -18.2277   22.1949 N.ar    1  UNL1       -0.2080
      4 C          -6.3058  -17.2160   23.0180 C.ar    1  UNL1        0.0823
      5 C          -5.9152  -15.8638   23.5367 C.ar    1  UNL1        0.0189
      6 C          -6.8879  -15.0631   24.3507 C.ar    1  UNL1        0.0015
      7 C          -8.2512  -15.6146   24.6462 C.ar    1  UNL1        0.0001
      8 C          -8.6418  -16.9668   24.1275 C.ar    1  UNL1        0.0013
      9 C          -7.6691  -17.7675   23.3135 C.ar    1  UNL1        0.0163
     10 S          -4.1645  -18.0873   21.6762 S.O2    1  UNL1        0.0860
     11 O          -4.6565  -18.3349   20.2810 O.2     1  UNL1       -0.1476
     12 O          -3.6725  -17.8397   23.0714 O.2     1  UNL1       -0.1476
     13 C          -2.7640  -17.9469   21.1575 C.ar    1  UNL1        0.1277
     14 C          -2.0780  -16.6137   21.2015 C.ar    1  UNL1        0.0204
     15 C          -0.6777  -16.4733   20.6828 C.ar    1  UNL1        0.0014
     16 C           0.0369  -17.6662   20.1202 C.ar    1  UNL1        0.0001
     17 C          -0.6491  -18.9994   20.0762 C.ar    1  UNL1        0.0014
     18 C          -2.0496  -19.1398   20.5949 C.ar    1  UNL1        0.0204
     19 C          -8.9635  -20.0286   22.7162 C.3     1  UNL1        0.1008
     20 C         -14.3394  -17.8510   24.2518 C.3     1  UNL1        0.0897
     21 N         -12.9955  -18.3954   23.8680 N.3     1  UNL1       -0.2691
     22 C         -12.5188  -18.2852   22.4500 C.3     1  UNL1        0.0897
     23 C         -11.1748  -18.8295   22.0660 C.3     1  UNL1        0.0899
     24 N         -10.3076  -19.4842   23.1001 N.3     1  UNL1       -0.2665
     25 C         -10.7843  -19.5944   24.5181 C.3     1  UNL1        0.0899
     26 C         -12.1282  -19.0501   24.9020 C.3     1  UNL1        0.0897
@<TRIPOS>BOND
     1    20    21    1
     2    21    22    1
     3    22    23    1
     4    23    24    1
     5    24    19    1
     6    19     1    1
     7     1     2   ar
     8     2     3   ar
     9     3    10    1
    10    10    11    2
    11    10    12    2
    12    10    13    1
    13    13    14   ar
    14    14    15   ar
    15    15    16   ar
    16    16    17   ar
    17    17    18   ar
    18     3     4   ar
    19     4     5   ar
    20     5     6   ar
    21     6     7   ar
    22     7     8   ar
    23     8     9   ar
    24    24    25    1
    25    25    26    1
    26    26    21    1
    27     9     1   ar
    28    18    13   ar
    29     9     4   ar
@<TRIPOS>MOLECULE
*****
 26 29 0 0 0
SMALL
GASTEIGER

@<TRIPOS>ATOM
      1 C          -0.2707    2.9344   20.9740 C.ar    1  UNL1        0.0143
      2 C           0.6080    1.9143   20.3129 C.ar    1  UNL1        0.0970
      3 N           1.1356    0.9978   21.3767 N.ar    1  UNL1       -0.2080
      4 C           0.5829    1.4514   22.6953 C.ar    1  UNL1        0.0823
      5 C           0.7587    0.9293   24.0904 C.ar    1  UNL1        0.0189
      6 C           0.0654    1.6041   25.2367 C.ar    1  UNL1        0.0015
      7 C          -0.8038    2.8010   24.9878 C.ar    1  UNL1        0.0001
      8 C          -0.9796    3.3231   23.5927 C.ar    1  UNL1        0.0013
      9 C          -0.2863    2.6484   22.4464 C.ar    1  UNL1        0.0163
     10 S           2.0545   -0.1678   21.1600 S.O2    1  UNL1        0.0860
     11 O           3.1363    0.5444   21.9165 O.2     1  UNL1       -0.1476
     12 O           0.9727   -0.8801   20.4034 O.2     1  UNL1       -0.1476
     13 C           2.9734   -1.3335   20.9432 C.ar    1  UNL1        0.1277
     14 C           3.1110   -1.9361   19.5765 C.ar    1  UNL1        0.0204
     15 C           4.0299   -3.1017   19.3598 C.ar    1  UNL1        0.0014
     16 C           4.8112   -3.6647   20.5099 C.ar    1  UNL1        0.0001
     17 C           4.6736   -3.0621   21.8766 C.ar    1  UNL1        0.0014
     18 C           3.7547   -1.8965   22.0932 C.ar    1  UNL1        0.0204
     19 C          -1.0051    4.0455   20.2840 C.3     1  UNL1        0.1008
     20 C          -6.7432    3.3137   18.6908 C.3     1  UNL1        0.0897
     21 N          -5.3087    3.4967   19.0890 N.3     1  UNL1       -0.2691
     22 C          -4.8899    3.2667   20.5109 C.3     1  UNL1        0.0897
     23 C          -3.4554    3.4497   20.9093 C.3     1  UNL1        0.0899
     24 N          -2.4397    3.8625   19.8856 N.3     1  UNL1       -0.2665
     25 C          -2.8585    4.0925   18.4638 C.3     1  UNL1        0.0899
     26 C          -4.2929    3.9096   18.0654 C.3     1  UNL1        0.0897
@<TRIPOS>BOND
     1    20    21    1
     2    21    22    1
     3    22    23    1
     4    23    24    1
     5    24    19    1
     6    19     1    1
     7     1     2   ar
     8     2     3   ar
     9     3    10    1
    10    10    11    2
    11    10    12    2
    12    10    13    1
    13    13    14   ar
    14    14    15   ar
    15    15    16   ar
    16    16    17   ar
    17    17    18   ar
    18     3     4   ar
    19     4     5   ar
    20     5     6   ar
    21     6     7   ar
    22     7     8   ar
    23     8     9   ar
    24    24    25    1
    25    25    26    1
    26    26    21    1
    27     9     1   ar
    28    18    13   ar
    29     9     4   ar
