@<TRIPOS>MOLECULE
*****
 27 30 0 0 0
SMALL
GASTEIGER

@<TRIPOS>ATOM
      1 C           4.0529   -0.8943   25.2129 C.3     1  UNL1        0.0899
      2 N           4.0048   -1.4944   23.8390 N.3     1  UNL1       -0.2661
      3 C           4.7254   -2.7792   23.5561 C.3     1  UNL1        0.0772
      4 C           4.6773   -3.3793   22.1823 C.3     1  UNL1        0.0465
      5 C           3.9084   -2.6948   21.0913 C.ar    1  UNL1        0.0175
      6 C           3.6825   -3.0454   19.6505 C.ar    1  UNL1        0.1697
      7 N           2.8221   -1.9774   19.0429 N.ar    1  UNL1       -0.1617
      8 N           2.5163   -0.9666   20.1082 N.ar    1  UNL1       -0.2327
      9 C           3.1877   -1.4101   21.3742 C.ar    1  UNL1        0.0741
     10 C           3.2359   -0.8099   22.7481 C.3     1  UNL1        0.1185
     11 C           1.6852    0.2703   19.9375 C.ar    1  UNL1        0.0824
     12 C           0.6123    0.5963   20.9339 C.ar    1  UNL1        0.0189
     13 C          -0.2188    1.8333   20.7632 C.ar    1  UNL1       -0.0011
     14 C           0.0229    2.7441   19.5961 C.ar    1  UNL1       -0.0022
     15 C           1.0957    2.4181   18.5998 C.ar    1  UNL1       -0.0011
     16 C           1.9268    1.1811   18.7705 C.ar    1  UNL1        0.0189
     17 C          -0.8083    3.9810   19.4255 C.3     1  UNL1        0.1201
     18 N          -2.2283    3.8715   18.9546 N.am    1  UNL1       -0.2754
     19 C          -2.7154    4.1179   17.5574 C.3     1  UNL1        0.0942
     20 C          -4.1986    3.8950   17.5376 C.3     1  UNL1        0.0311
     21 C          -4.6282    3.5109   18.9226 C.3     1  UNL1        0.0870
     22 C          -3.4104    3.4964   19.7983 C.2     1  UNL1        0.2259
     23 O          -3.3801    3.1649   21.2609 O.2     1  UNL1       -0.2749
     24 C           4.2221   -4.2522   18.9417 C.3     1  UNL1        0.4362
     25 F           4.7618   -5.4590   18.2329 F       1  UNL1       -0.1644
     26 F           5.4401   -3.4731   18.5425 F       1  UNL1       -0.1644
     27 F           3.0041   -5.0314   19.3410 F       1  UNL1       -0.1644
@<TRIPOS>BOND
     1     1     2    1
     2     2     3    1
     3     3     4    1
     4     4     5    1
     5     5     6   ar
     6     6    24    1
     7    24    25    1
     8    24    26    1
     9    24    27    1
    10     6     7   ar
    11     7     8   ar
    12     8    11    1
    13    11    12   ar
    14    12    13   ar
    15    13    14   ar
    16    14    17    1
    17    17    18    1
    18    18    19    1
    19    19    20    1
    20    20    21    1
    21    21    22    1
    22    22    23    2
    23    14    15   ar
    24    15    16   ar
    25     8     9   ar
    26     9    10    1
    27    10     2    1
    28     9     5   ar
    29    16    11   ar
    30    22    18   am
@<TRIPOS>MOLECULE
*****
 27 30 0 0 0
SMALL
GASTEIGER

@<TRIPOS>ATOM
      1 C           4.2807    2.6669   18.0994 C.3     1  UNL1        0.0899
      2 N           4.2639    1.2182   18.4879 N.3     1  UNL1       -0.2661
      3 C           4.5878    0.1650   17.4702 C.3     1  UNL1        0.0772
      4 C           4.5710   -1.2838   17.8588 C.3     1  UNL1        0.0465
      5 C           4.2302   -1.6792   19.2649 C.ar    1  UNL1        0.0175
      6 C           4.1339   -3.0173   19.9359 C.ar    1  UNL1        0.1697
      7 N           3.7504   -2.7911   21.3683 N.ar    1  UNL1       -0.1617
      8 N           3.6097   -1.3132   21.5826 N.ar    1  UNL1       -0.2327
      9 C           3.9062   -0.6260   20.2826 C.ar    1  UNL1        0.0741
     10 C           3.9231    0.8227   19.8941 C.3     1  UNL1        0.1185
     11 C           3.2378   -0.6405   22.8707 C.ar    1  UNL1        0.0824
     12 C           3.8881   -1.0655   24.1539 C.ar    1  UNL1        0.0189
     13 C           3.5162   -0.3928   25.4419 C.ar    1  UNL1       -0.0011
     14 C           2.4939    0.7049   25.4468 C.ar    1  UNL1       -0.0022
     15 C           1.8436    1.1300   24.1636 C.ar    1  UNL1       -0.0011
     16 C           2.2156    0.4572   22.8756 C.ar    1  UNL1        0.0189
     17 C           2.1220    1.3776   26.7349 C.3     1  UNL1        0.1201
     18 N           0.9397    0.8925   27.5204 N.am    1  UNL1       -0.2754
     19 C          -0.4688    1.3922   27.3928 C.3     1  UNL1        0.0942
     20 C          -1.3205    0.6310   28.3649 C.3     1  UNL1        0.0311
     21 C          -0.4383   -0.3391   29.0934 C.3     1  UNL1        0.0870
     22 C           0.9586   -0.1775   28.5714 C.2     1  UNL1        0.2259
     23 O           2.1629   -0.9502   29.0215 O.2     1  UNL1       -0.2749
     24 C           4.3782   -4.3480   19.2882 C.3     1  UNL1        0.4362
     25 F           4.6225   -5.6788   18.6405 F       1  UNL1       -0.1644
     26 F           2.9401   -4.4064   18.8657 F       1  UNL1       -0.1644
     27 F           5.8163   -4.2897   19.7107 F       1  UNL1       -0.1644
@<TRIPOS>BOND
     1     1     2    1
     2     2     3    1
     3     3     4    1
     4     4     5    1
     5     5     6   ar
     6     6    24    1
     7    24    25    1
     8    24    26    1
     9    24    27    1
    10     6     7   ar
    11     7     8   ar
    12     8    11    1
    13    11    12   ar
    14    12    13   ar
    15    13    14   ar
    16    14    17    1
    17    17    18    1
    18    18    19    1
    19    19    20    1
    20    20    21    1
    21    21    22    1
    22    22    23    2
    23    14    15   ar
    24    15    16   ar
    25     8     9   ar
    26     9    10    1
    27    10     2    1
    28     9     5   ar
    29    16    11   ar
    30    22    18   am
@<TRIPOS>MOLECULE
*****
 27 30 0 0 0
SMALL
GASTEIGER

@<TRIPOS>ATOM
      1 C           6.9976    1.6832   17.4470 C.3     1  UNL1        0.0899
      2 N           6.1991    0.5045   17.9194 N.3     1  UNL1       -0.2661
      3 C           6.8083   -0.8661   17.9104 C.3     1  UNL1        0.0772
      4 C           6.0099   -2.0448   18.3828 C.3     1  UNL1        0.0465
      5 C           4.6023   -1.8529   18.8642 C.ar    1  UNL1        0.0175
      6 C           3.5792   -2.8182   19.3852 C.ar    1  UNL1        0.1697
      7 N           2.3377   -2.0441   19.7162 N.ar    1  UNL1       -0.1617
      8 N           2.5935   -0.6004   19.3998 N.ar    1  UNL1       -0.2327
      9 C           3.9931   -0.4822   18.8732 C.ar    1  UNL1        0.0741
     10 C           4.7915    0.6965   18.4008 C.3     1  UNL1        0.1185
     11 C           1.6206    0.5272   19.5785 C.ar    1  UNL1        0.0824
     12 C           1.1976    1.3474   18.3960 C.ar    1  UNL1        0.0189
     13 C           0.2246    2.4749   18.5748 C.ar    1  UNL1       -0.0011
     14 C          -0.3252    2.7823   19.9361 C.ar    1  UNL1       -0.0022
     15 C           0.0978    1.9622   21.1187 C.ar    1  UNL1       -0.0011
     16 C           1.0707    0.8346   20.9398 C.ar    1  UNL1        0.0189
     17 C          -1.2982    3.9099   20.1149 C.3     1  UNL1        0.1201
     18 N          -2.6577    3.8344   19.4856 N.am    1  UNL1       -0.2754
     19 C          -2.9970    4.2053   18.0723 C.3     1  UNL1        0.0942
     20 C          -4.4657    3.9749   17.8725 C.3     1  UNL1        0.0311
     21 C          -5.0340    3.4616   19.1622 C.3     1  UNL1        0.0870
     22 C          -3.9167    3.3748   20.1592 C.2     1  UNL1        0.2259
     23 O          -4.0371    2.9100   21.5803 O.2     1  UNL1       -0.2749
     24 C           3.7650   -4.2978   19.5468 C.3     1  UNL1        0.4362
     25 F           3.9508   -5.7775   19.7084 F       1  UNL1       -0.1644
     26 F           4.9118   -4.0517   20.4818 F       1  UNL1       -0.1644
     27 F           2.6182   -4.5440   18.6118 F       1  UNL1       -0.1644
@<TRIPOS>BOND
     1     1     2    1
     2     2     3    1
     3     3     4    1
     4     4     5    1
     5     5     6   ar
     6     6    24    1
     7    24    25    1
     8    24    26    1
     9    24    27    1
    10     6     7   ar
    11     7     8   ar
    12     8    11    1
    13    11    12   ar
    14    12    13   ar
    15    13    14   ar
    16    14    17    1
    17    17    18    1
    18    18    19    1
    19    19    20    1
    20    20    21    1
    21    21    22    1
    22    22    23    2
    23    14    15   ar
    24    15    16   ar
    25     8     9   ar
    26     9    10    1
    27    10     2    1
    28     9     5   ar
    29    16    11   ar
    30    22    18   am
@<TRIPOS>MOLECULE
*****
 27 30 0 0 0
SMALL
GASTEIGER

@<TRIPOS>ATOM
      1 C         -16.8809   -6.8733   19.5708 C.3     1  UNL1        0.0899
      2 N         -15.5164   -6.3374   19.2532 N.3     1  UNL1       -0.2661
      3 C         -14.3881   -7.2824   18.9638 C.3     1  UNL1        0.0772
      4 C         -13.0236   -6.7465   18.6462 C.3     1  UNL1        0.0465
      5 C         -12.7874   -5.2655   18.6180 C.ar    1  UNL1        0.0175
      6 C         -11.5598   -4.4501   18.3388 C.ar    1  UNL1        0.1697
      7 N         -11.9294   -3.0010   18.4555 N.ar    1  UNL1       -0.1617
      8 N         -13.3854   -2.9209   18.8070 N.ar    1  UNL1       -0.2327
      9 C         -13.9157   -4.3205   18.9074 C.ar    1  UNL1        0.0741
     10 C         -15.2802   -4.8564   19.2250 C.3     1  UNL1        0.1185
     11 C         -14.1729   -1.6622   19.0205 C.ar    1  UNL1        0.0824
     12 C         -15.3798   -1.6747   19.9112 C.ar    1  UNL1        0.0189
     13 C         -16.1673   -0.4160   20.1246 C.ar    1  UNL1       -0.0011
     14 C         -15.7479    0.8551   19.4476 C.ar    1  UNL1       -0.0022
     15 C         -14.5410    0.8675   18.5569 C.ar    1  UNL1       -0.0011
     16 C         -13.7535   -0.3911   18.3435 C.ar    1  UNL1        0.0189
     17 C         -16.5354    2.1137   19.6611 C.3     1  UNL1        0.1201
     18 N         -16.5075    2.7987   20.9953 N.am    1  UNL1       -0.2754
     19 C         -15.6455    3.9683   21.3681 C.3     1  UNL1        0.0942
     20 C         -15.9421    4.3268   22.7942 C.3     1  UNL1        0.0311
     21 C         -16.9874    3.3787   23.3026 C.3     1  UNL1        0.0870
     22 C         -17.3369    2.4343   22.1909 C.2     1  UNL1        0.2259
     23 O         -18.3396    1.3210   22.2622 O.2     1  UNL1       -0.2749
     24 C         -10.2011   -4.9890   18.0018 C.3     1  UNL1        0.4362
     25 F          -8.8424   -5.5281   17.6648 F       1  UNL1       -0.1644
     26 F         -10.6889   -5.3635   16.6337 F       1  UNL1       -0.1644
     27 F          -9.7133   -4.6146   19.3700 F       1  UNL1       -0.1644
@<TRIPOS>BOND
     1     1     2    1
     2     2     3    1
     3     3     4    1
     4     4     5    1
     5     5     6   ar
     6     6    24    1
     7    24    25    1
     8    24    26    1
     9    24    27    1
    10     6     7   ar
    11     7     8   ar
    12     8    11    1
    13    11    12   ar
    14    12    13   ar
    15    13    14   ar
    16    14    17    1
    17    17    18    1
    18    18    19    1
    19    19    20    1
    20    20    21    1
    21    21    22    1
    22    22    23    2
    23    14    15   ar
    24    15    16   ar
    25     8     9   ar
    26     9    10    1
    27    10     2    1
    28     9     5   ar
    29    16    11   ar
    30    22    18   am
@<TRIPOS>MOLECULE
*****
 27 30 0 0 0
SMALL
GASTEIGER

@<TRIPOS>ATOM
      1 C           2.4238    0.8272   23.8682 C.3     1  UNL1        0.0899
      2 N           2.9865   -0.3145   23.0745 N.3     1  UNL1       -0.2661
      3 C           2.4934   -0.5750   21.6820 C.3     1  UNL1        0.0772
      4 C           3.0562   -1.7166   20.8884 C.3     1  UNL1        0.0465
      5 C           4.1120   -2.5979   21.4872 C.ar    1  UNL1        0.0175
      6 C           4.8484   -3.7891   20.9499 C.ar    1  UNL1        0.1697
      7 N           5.7966   -4.2649   22.0103 N.ar    1  UNL1       -0.1617
      8 N           5.6463   -3.3677   23.2030 N.ar    1  UNL1       -0.2327
      9 C           4.6051   -2.3374   22.8796 C.ar    1  UNL1        0.0741
     10 C           4.0424   -1.1957   23.6733 C.3     1  UNL1        0.1185
     11 C           6.4041   -3.4809   24.4925 C.ar    1  UNL1        0.0824
     12 C           6.6524   -2.2589   25.3263 C.ar    1  UNL1        0.0189
     13 C           7.4102   -2.3722   26.6158 C.ar    1  UNL1       -0.0011
     14 C           7.9196   -3.7073   27.0716 C.ar    1  UNL1       -0.0022
     15 C           7.6712   -4.9293   26.2379 C.ar    1  UNL1       -0.0011
     16 C           6.9135   -4.8161   24.9484 C.ar    1  UNL1        0.0189
     17 C           8.6773   -3.8205   28.3612 C.3     1  UNL1        0.1201
     18 N           7.9835   -4.3079   29.5986 N.am    1  UNL1       -0.2754
     19 C           7.4627   -3.4499   30.7133 C.3     1  UNL1        0.0942
     20 C           6.8460   -4.3506   31.7422 C.3     1  UNL1        0.0311
     21 C           6.9857   -5.7652   31.2633 C.3     1  UNL1        0.0870
     22 C           7.6887   -5.7388   29.9385 C.2     1  UNL1        0.2259
     23 O           8.0360   -6.9336   29.1006 O.2     1  UNL1       -0.2749
     24 C           4.6681   -4.3977   19.5908 C.3     1  UNL1        0.4362
     25 F           4.4878   -5.0064   18.2317 F       1  UNL1       -0.1644
     26 F           3.5357   -5.2307   20.1140 F       1  UNL1       -0.1644
     27 F           5.8006   -3.5647   19.0676 F       1  UNL1       -0.1644
@<TRIPOS>BOND
     1     1     2    1
     2     2     3    1
     3     3     4    1
     4     4     5    1
     5     5     6   ar
     6     6    24    1
     7    24    25    1
     8    24    26    1
     9    24    27    1
    10     6     7   ar
    11     7     8   ar
    12     8    11    1
    13    11    12   ar
    14    12    13   ar
    15    13    14   ar
    16    14    17    1
    17    17    18    1
    18    18    19    1
    19    19    20    1
    20    20    21    1
    21    21    22    1
    22    22    23    2
    23    14    15   ar
    24    15    16   ar
    25     8     9   ar
    26     9    10    1
    27    10     2    1
    28     9     5   ar
    29    16    11   ar
    30    22    18   am
@<TRIPOS>MOLECULE
*****
 27 30 0 0 0
SMALL
GASTEIGER

@<TRIPOS>ATOM
      1 C          -3.5722  -17.7394   25.5687 C.3     1  UNL1        0.0899
      2 N          -3.3499  -17.8411   24.0888 N.3     1  UNL1       -0.2661
      3 C          -1.9760  -17.6406   23.5212 C.3     1  UNL1        0.0772
      4 C          -1.7538  -17.7424   22.0412 C.3     1  UNL1        0.0465
      5 C          -2.9054  -18.0446   21.1289 C.ar    1  UNL1        0.0175
      6 C          -2.9911  -18.2045   19.6399 C.ar    1  UNL1        0.1697
      7 N          -4.4180  -18.5038   19.2872 N.ar    1  UNL1       -0.1617
      8 N          -5.2142  -18.5289   20.5583 N.ar    1  UNL1       -0.2327
      9 C          -4.2792  -18.2451   21.6965 C.ar    1  UNL1        0.0741
     10 C          -4.5015  -18.1433   23.1764 C.3     1  UNL1        0.1185
     11 C          -6.6866  -18.7916   20.6713 C.ar    1  UNL1        0.0824
     12 C          -7.4177  -18.4342   21.9314 C.ar    1  UNL1        0.0189
     13 C          -8.8902  -18.6970   22.0443 C.ar    1  UNL1       -0.0011
     14 C          -9.6316  -19.3171   20.8972 C.ar    1  UNL1       -0.0022
     15 C          -8.9005  -19.6744   19.6371 C.ar    1  UNL1       -0.0011
     16 C          -7.4280  -19.4117   19.5242 C.ar    1  UNL1        0.0189
     17 C         -11.1040  -19.5798   21.0103 C.3     1  UNL1        0.1201
     18 N         -11.9335  -18.7950   21.9829 N.am    1  UNL1       -0.2754
     19 C         -12.1643  -19.1400   23.4244 C.3     1  UNL1        0.0942
     20 C         -13.0513  -18.0856   24.0171 C.3     1  UNL1        0.0311
     21 C         -13.3687  -17.0888   22.9420 C.3     1  UNL1        0.0870
     22 C         -12.6779  -17.5273   21.6848 C.2     1  UNL1        0.2259
     23 O         -12.7234  -16.8219   20.3618 O.2     1  UNL1       -0.2749
     24 C          -1.8502  -18.0859   18.6733 C.3     1  UNL1        0.4362
     25 F          -0.7094  -17.9673   17.7066 F       1  UNL1       -0.1644
     26 F          -2.6242  -17.0718   17.8843 F       1  UNL1       -0.1644
     27 F          -1.0763  -19.1000   19.4623 F       1  UNL1       -0.1644
@<TRIPOS>BOND
     1     1     2    1
     2     2     3    1
     3     3     4    1
     4     4     5    1
     5     5     6   ar
     6     6    24    1
     7    24    25    1
     8    24    26    1
     9    24    27    1
    10     6     7   ar
    11     7     8   ar
    12     8    11    1
    13    11    12   ar
    14    12    13   ar
    15    13    14   ar
    16    14    17    1
    17    17    18    1
    18    18    19    1
    19    19    20    1
    20    20    21    1
    21    21    22    1
    22    22    23    2
    23    14    15   ar
    24    15    16   ar
    25     8     9   ar
    26     9    10    1
    27    10     2    1
    28     9     5   ar
    29    16    11   ar
    30    22    18   am
@<TRIPOS>MOLECULE
*****
 27 30 0 0 0
SMALL
GASTEIGER

@<TRIPOS>ATOM
      1 C           1.9558    3.4763   31.1174 C.3     1  UNL1        0.0899
      2 N           2.2578    3.1059   32.5392 N.3     1  UNL1       -0.2661
      3 C           1.6660    3.9028   33.6638 C.3     1  UNL1        0.0772
      4 C           1.9680    3.5325   35.0856 C.3     1  UNL1        0.0465
      5 C           2.8618    2.3652   35.3829 C.ar    1  UNL1        0.0175
      6 C           3.3356    1.7671   36.6743 C.ar    1  UNL1        0.1697
      7 N           4.2203    0.6005   36.3479 N.ar    1  UNL1       -0.1617
      8 N           4.2933    0.4776   34.8548 N.ar    1  UNL1       -0.2327
      9 C           3.4537    1.5683   34.2584 C.ar    1  UNL1        0.0741
     10 C           3.1517    1.9387   32.8365 C.3     1  UNL1        0.1185
     11 C           5.0695   -0.5546   34.0920 C.ar    1  UNL1        0.0824
     12 C           6.5255   -0.3371   33.8043 C.ar    1  UNL1        0.0189
     13 C           7.3016   -1.3693   33.0415 C.ar    1  UNL1       -0.0011
     14 C           6.6219   -2.6192   32.5663 C.ar    1  UNL1       -0.0022
     15 C           5.1658   -2.8368   32.8540 C.ar    1  UNL1       -0.0011
     16 C           4.3897   -1.8045   33.6168 C.ar    1  UNL1        0.0189
     17 C           7.3981   -3.6514   31.8035 C.3     1  UNL1        0.1201
     18 N           6.9738   -4.0359   30.4171 N.am    1  UNL1       -0.2754
     19 C           6.8546   -5.4342   29.8874 C.3     1  UNL1        0.0942
     20 C           6.4013   -5.3520   28.4599 C.3     1  UNL1        0.0311
     21 C           6.2404   -3.9029   28.1074 C.3     1  UNL1        0.0870
     22 C           6.5942   -3.0895   29.3170 C.2     1  UNL1        0.2259
     23 O           6.5722   -1.5926   29.4101 O.2     1  UNL1       -0.2749
     24 C           2.9861    2.2507   38.0505 C.3     1  UNL1        0.4362
     25 F           2.6365    2.7342   39.4268 F       1  UNL1       -0.1644
     26 F           2.0821    1.0682   38.2365 F       1  UNL1       -0.1644
     27 F           3.8900    3.4332   37.8646 F       1  UNL1       -0.1644
@<TRIPOS>BOND
     1     1     2    1
     2     2     3    1
     3     3     4    1
     4     4     5    1
     5     5     6   ar
     6     6    24    1
     7    24    25    1
     8    24    26    1
     9    24    27    1
    10     6     7   ar
    11     7     8   ar
    12     8    11    1
    13    11    12   ar
    14    12    13   ar
    15    13    14   ar
    16    14    17    1
    17    17    18    1
    18    18    19    1
    19    19    20    1
    20    20    21    1
    21    21    22    1
    22    22    23    2
    23    14    15   ar
    24    15    16   ar
    25     8     9   ar
    26     9    10    1
    27    10     2    1
    28     9     5   ar
    29    16    11   ar
    30    22    18   am
@<TRIPOS>MOLECULE
*****
 27 30 0 0 0
SMALL
GASTEIGER

@<TRIPOS>ATOM
      1 C           6.6292    2.3483   19.4775 C.3     1  UNL1        0.0899
      2 N           6.1455    0.9344   19.6082 N.3     1  UNL1       -0.2661
      3 C           6.3595   -0.0382   18.4865 C.3     1  UNL1        0.0772
      4 C           5.8759   -1.4520   18.6171 C.3     1  UNL1        0.0465
      5 C           5.1782   -1.8933   19.8695 C.ar    1  UNL1        0.0175
      6 C           4.5956   -3.2125   20.2823 C.ar    1  UNL1        0.1697
      7 N           4.0215   -3.0552   21.6591 N.ar    1  UNL1       -0.1617
      8 N           4.2492   -1.6388   22.0973 N.ar    1  UNL1       -0.2327
      9 C           4.9641   -0.9207   20.9911 C.ar    1  UNL1        0.0741
     10 C           5.4478    0.4931   20.8605 C.3     1  UNL1        0.1185
     11 C           3.8349   -1.0448   23.4108 C.ar    1  UNL1        0.0824
     12 C           2.7700    0.0108   23.4540 C.ar    1  UNL1        0.0189
     13 C           2.3557    0.6047   24.7676 C.ar    1  UNL1       -0.0011
     14 C           3.0062    0.1432   26.0379 C.ar    1  UNL1       -0.0022
     15 C           4.0711   -0.9124   25.9947 C.ar    1  UNL1       -0.0011
     16 C           4.4854   -1.5064   24.6812 C.ar    1  UNL1        0.0189
     17 C           2.5919    0.7372   27.3515 C.3     1  UNL1        0.1201
     18 N           1.1593    0.6624   27.7900 N.am    1  UNL1       -0.2754
     19 C           0.5834   -0.3307   28.7554 C.3     1  UNL1        0.0942
     20 C          -0.8807   -0.0392   28.9021 C.3     1  UNL1        0.0311
     21 C          -1.2096    1.1341   28.0272 C.3     1  UNL1        0.0870
     22 C           0.0512    1.5677   27.3399 C.2     1  UNL1        0.2259
     23 O           0.1811    2.7066   26.3724 O.2     1  UNL1       -0.2749
     24 C           4.5884   -4.4684   19.4622 C.3     1  UNL1        0.4362
     25 F           4.5813   -5.7244   18.6421 F       1  UNL1       -0.1644
     26 F           6.0435   -4.6733   19.7633 F       1  UNL1       -0.1644
     27 F           3.1333   -4.2635   19.1611 F       1  UNL1       -0.1644
@<TRIPOS>BOND
     1     1     2    1
     2     2     3    1
     3     3     4    1
     4     4     5    1
     5     5     6   ar
     6     6    24    1
     7    24    25    1
     8    24    26    1
     9    24    27    1
    10     6     7   ar
    11     7     8   ar
    12     8    11    1
    13    11    12   ar
    14    12    13   ar
    15    13    14   ar
    16    14    17    1
    17    17    18    1
    18    18    19    1
    19    19    20    1
    20    20    21    1
    21    21    22    1
    22    22    23    2
    23    14    15   ar
    24    15    16   ar
    25     8     9   ar
    26     9    10    1
    27    10     2    1
    28     9     5   ar
    29    16    11   ar
    30    22    18   am
@<TRIPOS>MOLECULE
*****
 27 30 0 0 0
SMALL
GASTEIGER

@<TRIPOS>ATOM
      1 C         -18.3048   -7.8656   19.9004 C.3     1  UNL1        0.0899
      2 N         -16.8942   -7.6476   19.4389 N.3     1  UNL1       -0.2661
      3 C         -15.9705   -8.8176   19.2718 C.3     1  UNL1        0.0772
      4 C         -14.5600   -8.5996   18.8104 C.3     1  UNL1        0.0465
      5 C         -14.0732   -7.2116   18.5160 C.ar    1  UNL1        0.0175
      6 C         -12.7460   -6.6913   18.0494 C.ar    1  UNL1        0.1697
      7 N         -12.8495   -5.1998   17.9281 N.ar    1  UNL1       -0.1617
      8 N         -14.2406   -4.7983   18.3198 N.ar    1  UNL1       -0.2327
      9 C         -14.9970   -6.0417   18.6832 C.ar    1  UNL1        0.0741
     10 C         -16.4075   -6.2597   19.1446 C.3     1  UNL1        0.1185
     11 C         -14.7807   -3.3991   18.3439 C.ar    1  UNL1        0.0824
     12 C         -14.2697   -2.4152   19.3543 C.ar    1  UNL1        0.0189
     13 C         -14.8098   -1.0161   19.3783 C.ar    1  UNL1       -0.0011
     14 C         -15.8608   -0.6008   18.3921 C.ar    1  UNL1       -0.0022
     15 C         -16.3719   -1.5846   17.3817 C.ar    1  UNL1       -0.0011
     16 C         -15.8318   -2.9838   17.3577 C.ar    1  UNL1        0.0189
     17 C         -16.4009    0.7984   18.4162 C.3     1  UNL1        0.1201
     18 N         -16.6520    1.4831   19.7270 N.am    1  UNL1       -0.2754
     19 C         -16.1004    2.8133   20.1469 C.3     1  UNL1        0.0942
     20 C         -16.6063    3.1099   21.5275 C.3     1  UNL1        0.0311
     21 C         -17.4705    1.9631   21.9608 C.3     1  UNL1        0.0870
     22 C         -17.4988    0.9576   20.8481 C.2     1  UNL1        0.2259
     23 O         -18.2431   -0.3447   20.8552 O.2     1  UNL1       -0.2749
     24 C         -11.5290   -7.5175   17.7556 C.3     1  UNL1        0.4362
     25 F         -10.3120   -8.3437   17.4618 F       1  UNL1       -0.1644
     26 F         -12.1935   -8.0586   16.5246 F       1  UNL1       -0.1644
     27 F         -10.8645   -6.9764   18.9867 F       1  UNL1       -0.1644
@<TRIPOS>BOND
     1     1     2    1
     2     2     3    1
     3     3     4    1
     4     4     5    1
     5     5     6   ar
     6     6    24    1
     7    24    25    1
     8    24    26    1
     9    24    27    1
    10     6     7   ar
    11     7     8   ar
    12     8    11    1
    13    11    12   ar
    14    12    13   ar
    15    13    14   ar
    16    14    17    1
    17    17    18    1
    18    18    19    1
    19    19    20    1
    20    20    21    1
    21    21    22    1
    22    22    23    2
    23    14    15   ar
    24    15    16   ar
    25     8     9   ar
    26     9    10    1
    27    10     2    1
    28     9     5   ar
    29    16    11   ar
    30    22    18   am
