@<TRIPOS>MOLECULE
*****
 22 24 0 0 0
SMALL
GASTEIGER

@<TRIPOS>ATOM
      1 C          -6.7657  -18.7754   21.9040 C.3     1  UNL1        0.2082
      2 S          -6.5355  -17.6640   22.8848 S.3     1  UNL1       -0.0751
      3 C          -5.1384  -17.2988   23.2902 C.2     1  UNL1        0.0470
      4 C          -3.9712  -18.0448   22.7147 C.2     1  UNL1        0.0551
      5 C          -2.5740  -17.6795   23.1201 C.3     1  UNL1        0.0512
      6 N          -4.2013  -19.1561   21.7339 N.ar    1  UNL1       -0.2279
      7 C          -5.5985  -19.5214   21.3285 C.ar    1  UNL1        0.2066
      8 N          -5.5158  -20.6541   20.3487 N.ar    1  UNL1       -0.0545
      9 O          -4.0674  -20.9889   20.1485 O.2     1  UNL1       -0.2950
     10 C          -3.2550  -20.0631   21.0046 C.ar    1  UNL1        0.4470
     11 O          -1.7590  -20.0471   21.1124 O.2     1  UNL1       -0.2203
     12 C          -8.1837  -18.3658   22.1711 C.ar    1  UNL1        0.0191
     13 C          -9.1700  -19.3709   22.6880 C.ar    1  UNL1        0.0024
     14 C         -10.5880  -18.9615   22.9551 C.ar    1  UNL1        0.0367
     15 C         -11.0200  -17.5468   22.7053 C.ar    1  UNL1        0.1387
     16 C         -10.0338  -16.5418   22.1884 C.ar    1  UNL1        0.0367
     17 C          -8.6156  -16.9512   21.9213 C.ar    1  UNL1        0.0024
     18 O         -12.4380  -17.1374   22.9724 O.3     1  UNL1       -0.4714
     19 C         -13.3503  -18.0488   23.7387 C.3     1  UNL1        0.2525
     20 O          -7.4882  -19.7444   21.0159 O.3     1  UNL1       -0.3379
     21 C          -9.0428  -20.0390   18.9552 C.3     1  UNL1        0.0347
     22 C          -7.9141  -19.3266   19.6396 C.3     1  UNL1        0.1440
@<TRIPOS>BOND
     1    21    22    1
     2    22    20    1
     3    20     1    1
     4     1    12    1
     5    12    13   ar
     6    13    14   ar
     7    14    15   ar
     8    15    18    1
     9    18    19    1
    10    15    16   ar
    11    16    17   ar
    12     1     2    1
    13     2     3    1
    14     3     4    2
    15     4     5    1
    16     4     6    1
    17     6     7   ar
    18     7     8   ar
    19     8     9   ar
    20     9    10   ar
    21    10    11    2
    22     7     1    1
    23    17    12   ar
    24    10     6   ar
@<TRIPOS>MOLECULE
*****
 22 24 0 0 0
SMALL
GASTEIGER

@<TRIPOS>ATOM
      1 C          -8.2191  -18.1480   22.7894 C.3     1  UNL1        0.2082
      2 S          -8.2510  -16.9105   23.6366 S.3     1  UNL1       -0.0751
      3 C          -6.9774  -16.1827   23.9494 C.2     1  UNL1        0.0470
      4 C          -5.6717  -16.6922   23.4151 C.2     1  UNL1        0.0551
      5 C          -4.3980  -15.9643   23.7279 C.3     1  UNL1        0.0512
      6 N          -5.6397  -17.9296   22.5679 N.ar    1  UNL1       -0.2279
      7 C          -6.9134  -18.6575   22.2550 C.ar    1  UNL1        0.2066
      8 N          -6.5726  -19.8417   21.3998 N.ar    1  UNL1       -0.0545
      9 O          -5.0882  -19.8457   21.1840 O.2     1  UNL1       -0.2950
     10 C          -4.5116  -18.6639   21.9059 C.ar    1  UNL1        0.4470
     11 O          -3.0616  -18.2834   21.9569 O.2     1  UNL1       -0.2203
     12 C          -9.6912  -18.0571   23.0625 C.ar    1  UNL1        0.0191
     13 C         -10.4949  -16.9344   22.4763 C.ar    1  UNL1        0.0024
     14 C         -11.9670  -16.8435   22.7494 C.ar    1  UNL1        0.0367
     15 C         -12.6355  -17.8754   23.6087 C.ar    1  UNL1        0.1387
     16 C         -11.8318  -18.9981   24.1950 C.ar    1  UNL1        0.0367
     17 C         -10.3597  -19.0890   23.9219 C.ar    1  UNL1        0.0024
     18 O         -14.1076  -17.7844   23.8818 O.3     1  UNL1       -0.4714
     19 C         -14.6804  -18.4059   25.1210 C.3     1  UNL1        0.2525
     20 O          -8.6984  -19.3538   22.0371 O.3     1  UNL1       -0.3379
     21 C         -10.4414  -19.8537   20.1764 C.3     1  UNL1        0.0347
     22 C          -9.1556  -19.2178   20.6150 C.3     1  UNL1        0.1440
@<TRIPOS>BOND
     1    21    22    1
     2    22    20    1
     3    20     1    1
     4     1    12    1
     5    12    13   ar
     6    13    14   ar
     7    14    15   ar
     8    15    18    1
     9    18    19    1
    10    15    16   ar
    11    16    17   ar
    12     1     2    1
    13     2     3    1
    14     3     4    2
    15     4     5    1
    16     4     6    1
    17     6     7   ar
    18     7     8   ar
    19     8     9   ar
    20     9    10   ar
    21    10    11    2
    22     7     1    1
    23    17    12   ar
    24    10     6   ar
@<TRIPOS>MOLECULE
*****
 22 24 0 0 0
SMALL
GASTEIGER

@<TRIPOS>ATOM
      1 C          -6.7948  -18.7681   21.5120 C.3     1  UNL1        0.2082
      2 S          -6.8306  -19.3445   20.1275 S.3     1  UNL1       -0.0751
      3 C          -8.1470  -19.6122   19.4604 C.2     1  UNL1        0.0470
      4 C          -9.4278  -19.3037   20.1775 C.2     1  UNL1        0.0551
      5 C         -10.7443  -19.5715   19.5103 C.3     1  UNL1        0.0512
      6 N          -9.3921  -18.7274   21.5619 N.ar    1  UNL1       -0.2279
      7 C          -8.0757  -18.4596   22.2291 C.ar    1  UNL1        0.2066
      8 N          -8.3525  -17.8910   23.5893 N.ar    1  UNL1       -0.0545
      9 O          -9.8401  -17.8073   23.7627 O.2     1  UNL1       -0.2950
     10 C         -10.4826  -18.3243   22.5097 C.ar    1  UNL1        0.4470
     11 O         -11.9568  -18.4210   22.2501 O.2     1  UNL1       -0.2203
     12 C          -5.3243  -18.8914   21.2431 C.ar    1  UNL1        0.0191
     13 C          -4.7739  -18.5183   19.8986 C.ar    1  UNL1        0.0024
     14 C          -3.3034  -18.6415   19.6296 C.ar    1  UNL1        0.0367
     15 C          -2.3832  -19.1380   20.7052 C.ar    1  UNL1        0.1387
     16 C          -2.9336  -19.5111   22.0497 C.ar    1  UNL1        0.0367
     17 C          -4.4042  -19.3879   22.3187 C.ar    1  UNL1        0.0024
     18 O          -0.9127  -19.2612   20.4362 O.3     1  UNL1       -0.4714
     19 C          -0.1513  -18.0941   19.8811 C.3     1  UNL1        0.2525
     20 O          -6.2485  -18.2346   22.8030 O.3     1  UNL1       -0.3379
     21 C          -5.0474  -16.2470   23.9677 C.3     1  UNL1        0.0347
     22 C          -6.0572  -16.7578   22.9832 C.3     1  UNL1        0.1440
@<TRIPOS>BOND
     1    21    22    1
     2    22    20    1
     3    20     1    1
     4     1    12    1
     5    12    13   ar
     6    13    14   ar
     7    14    15   ar
     8    15    18    1
     9    18    19    1
    10    15    16   ar
    11    16    17   ar
    12     1     2    1
    13     2     3    1
    14     3     4    2
    15     4     5    1
    16     4     6    1
    17     6     7   ar
    18     7     8   ar
    19     8     9   ar
    20     9    10   ar
    21    10    11    2
    22     7     1    1
    23    17    12   ar
    24    10     6   ar
@<TRIPOS>MOLECULE
*****
 22 24 0 0 0
SMALL
GASTEIGER

@<TRIPOS>ATOM
      1 C         -14.5836   -6.8554   18.6306 C.3     1  UNL1        0.2082
      2 S         -14.0066   -8.1397   18.1131 S.3     1  UNL1       -0.0751
      3 C         -14.8393   -9.3872   18.1063 C.2     1  UNL1        0.0470
      4 C         -16.2492   -9.3506   18.6170 C.2     1  UNL1        0.0551
      5 C         -17.0820  -10.5981   18.6102 C.3     1  UNL1        0.0512
      6 N         -16.8263   -8.0664   19.1345 N.ar    1  UNL1       -0.2279
      7 C         -15.9935   -6.8188   19.1413 C.ar    1  UNL1        0.2066
      8 N         -16.8272   -5.7080   19.7080 N.ar    1  UNL1       -0.0545
      9 O         -18.1752   -6.2691   20.0514 O.2     1  UNL1       -0.2950
     10 C         -18.1747   -7.7266   19.6970 C.ar    1  UNL1        0.4470
     11 O         -19.3213   -8.6774   19.8740 O.2     1  UNL1       -0.2203
     12 C         -13.2083   -6.3900   18.2542 C.ar    1  UNL1        0.0191
     13 C         -13.0309   -5.3896   17.1508 C.ar    1  UNL1        0.0024
     14 C         -11.6556   -4.9241   16.7743 C.ar    1  UNL1        0.0367
     15 C         -10.4575   -5.4591   17.5013 C.ar    1  UNL1        0.1387
     16 C         -10.6349   -6.4595   18.6048 C.ar    1  UNL1        0.0367
     17 C         -12.0103   -6.9250   18.9813 C.ar    1  UNL1        0.0024
     18 O          -9.0822   -4.9936   17.1248 O.3     1  UNL1       -0.4714
     19 C          -8.9112   -3.9044   16.1078 C.3     1  UNL1        0.2525
     20 O         -14.6831   -5.4096   19.0174 O.3     1  UNL1       -0.3379
     21 C         -13.7111   -3.4979   20.4840 C.3     1  UNL1        0.0347
     22 C         -14.0951   -4.9380   20.3143 C.3     1  UNL1        0.1440
@<TRIPOS>BOND
     1    21    22    1
     2    22    20    1
     3    20     1    1
     4     1    12    1
     5    12    13   ar
     6    13    14   ar
     7    14    15   ar
     8    15    18    1
     9    18    19    1
    10    15    16   ar
    11    16    17   ar
    12     1     2    1
    13     2     3    1
    14     3     4    2
    15     4     5    1
    16     4     6    1
    17     6     7   ar
    18     7     8   ar
    19     8     9   ar
    20     9    10   ar
    21    10    11    2
    22     7     1    1
    23    17    12   ar
    24    10     6   ar
@<TRIPOS>MOLECULE
*****
 22 24 0 0 0
SMALL
GASTEIGER

@<TRIPOS>ATOM
      1 C         -14.5728   -6.0641   18.7209 C.3     1  UNL1        0.2082
      2 S         -15.5947   -5.0820   19.2124 S.3     1  UNL1       -0.0751
      3 C         -16.9554   -5.5590   19.6254 C.2     1  UNL1        0.0470
      4 C         -17.2944   -7.0181   19.5472 C.2     1  UNL1        0.0551
      5 C         -18.6553   -7.4951   19.9603 C.3     1  UNL1        0.0512
      6 N         -16.2727   -8.0001   19.0558 N.ar    1  UNL1       -0.2279
      7 C         -14.9118   -7.5231   18.6427 C.ar    1  UNL1        0.2066
      8 N         -14.1164   -8.7161   18.2022 N.ar    1  UNL1       -0.0545
      9 O         -14.9856   -9.9305   18.3431 O.2     1  UNL1       -0.2950
     10 C         -16.3183   -9.4880   18.8706 C.ar    1  UNL1        0.4470
     11 O         -17.4906  -10.3772   19.1619 O.2     1  UNL1       -0.2203
     12 C         -13.7838   -4.7927   18.6159 C.ar    1  UNL1        0.0191
     13 C         -13.5216   -3.9693   19.8420 C.ar    1  UNL1        0.0024
     14 C         -12.7326   -2.6980   19.7372 C.ar    1  UNL1        0.0367
     15 C         -12.2059   -2.2498   18.4060 C.ar    1  UNL1        0.1387
     16 C         -12.4681   -3.0731   17.1799 C.ar    1  UNL1        0.0367
     17 C         -13.2571   -4.3446   17.2849 C.ar    1  UNL1        0.0024
     18 O         -11.4169   -0.9784   18.3012 O.3     1  UNL1       -0.4714
     19 C         -10.6738   -0.6588   17.0380 C.3     1  UNL1        0.2525
     20 O         -13.2770   -6.6046   18.1931 O.3     1  UNL1       -0.3379
     21 C         -10.7263   -6.8989   18.5897 C.3     1  UNL1        0.0347
     22 C         -12.1258   -6.8372   19.1261 C.3     1  UNL1        0.1440
@<TRIPOS>BOND
     1    21    22    1
     2    22    20    1
     3    20     1    1
     4     1    12    1
     5    12    13   ar
     6    13    14   ar
     7    14    15   ar
     8    15    18    1
     9    18    19    1
    10    15    16   ar
    11    16    17   ar
    12     1     2    1
    13     2     3    1
    14     3     4    2
    15     4     5    1
    16     4     6    1
    17     6     7   ar
    18     7     8   ar
    19     8     9   ar
    20     9    10   ar
    21    10    11    2
    22     7     1    1
    23    17    12   ar
    24    10     6   ar
@<TRIPOS>MOLECULE
*****
 22 24 0 0 0
SMALL
GASTEIGER

@<TRIPOS>ATOM
      1 C          -6.6484  -18.3436   21.9545 C.3     1  UNL1        0.2082
      2 S          -5.9902  -17.3224   22.8343 S.3     1  UNL1       -0.0751
      3 C          -6.8198  -16.4851   23.7618 C.2     1  UNL1        0.0470
      4 C          -8.3077  -16.6689   23.8097 C.2     1  UNL1        0.0551
      5 C          -9.1374  -15.8315   24.7374 C.3     1  UNL1        0.0512
      6 N          -8.9660  -17.6900   22.9300 N.ar    1  UNL1       -0.2279
      7 C          -8.1363  -18.5274   22.0024 C.ar    1  UNL1        0.2066
      8 N          -9.0583  -19.4478   21.2589 N.ar    1  UNL1       -0.0545
      9 O         -10.4579  -19.1792   21.7271 O.2     1  UNL1       -0.2950
     10 C         -10.4008  -18.0929   22.7599 C.ar    1  UNL1        0.4470
     11 O         -11.5728  -17.5115   23.4936 O.2     1  UNL1       -0.2203
     12 C          -5.2163  -18.5378   21.5527 C.ar    1  UNL1        0.0191
     13 C          -4.8328  -18.5026   20.1029 C.ar    1  UNL1        0.0024
     14 C          -3.4008  -18.6968   19.7010 C.ar    1  UNL1        0.0367
     15 C          -2.3522  -18.9262   20.7488 C.ar    1  UNL1        0.1387
     16 C          -2.7357  -18.9615   22.1985 C.ar    1  UNL1        0.0367
     17 C          -4.1678  -18.7673   22.6005 C.ar    1  UNL1        0.0024
     18 O          -0.9202  -19.1204   20.3469 O.3     1  UNL1       -0.4714
     19 C          -0.1276  -17.9643   19.8129 C.3     1  UNL1        0.2525
     20 O          -6.8093  -19.4322   20.9352 O.3     1  UNL1       -0.3379
     21 C          -6.0276  -21.7787   20.1398 C.3     1  UNL1        0.0347
     22 C          -6.3602  -20.8280   21.2513 C.3     1  UNL1        0.1440
@<TRIPOS>BOND
     1    21    22    1
     2    22    20    1
     3    20     1    1
     4     1    12    1
     5    12    13   ar
     6    13    14   ar
     7    14    15   ar
     8    15    18    1
     9    18    19    1
    10    15    16   ar
    11    16    17   ar
    12     1     2    1
    13     2     3    1
    14     3     4    2
    15     4     5    1
    16     4     6    1
    17     6     7   ar
    18     7     8   ar
    19     8     9   ar
    20     9    10   ar
    21    10    11    2
    22     7     1    1
    23    17    12   ar
    24    10     6   ar
@<TRIPOS>MOLECULE
*****
 22 24 0 0 0
SMALL
GASTEIGER

@<TRIPOS>ATOM
      1 C          -8.7465  -18.1552   22.2646 C.3     1  UNL1        0.2082
      2 S          -7.2808  -18.3038   22.5471 S.3     1  UNL1       -0.0751
      3 C          -6.4136  -19.0954   21.6139 C.2     1  UNL1        0.0470
      4 C          -7.0119  -19.7385   20.3980 C.2     1  UNL1        0.0551
      5 C          -6.1446  -20.5302   19.4647 C.3     1  UNL1        0.0512
      6 N          -8.4775  -19.5900   20.1154 N.ar    1  UNL1       -0.2279
      7 C          -9.3449  -18.7983   21.0487 C.ar    1  UNL1        0.2066
      8 N         -10.7462  -18.8253   20.5144 N.ar    1  UNL1       -0.0545
      9 O         -10.7449  -19.6336   19.2508 O.2     1  UNL1       -0.2950
     10 C          -9.3429  -20.1062   19.0042 C.ar    1  UNL1        0.4470
     11 O          -8.8863  -20.9473   17.8492 O.2     1  UNL1       -0.2203
     12 C          -8.6448  -17.3653   23.5357 C.ar    1  UNL1        0.0191
     13 C          -9.3203  -17.8581   24.7811 C.ar    1  UNL1        0.0024
     14 C          -9.2187  -17.0682   26.0521 C.ar    1  UNL1        0.0367
     15 C          -8.4416  -15.7854   26.0780 C.ar    1  UNL1        0.1387
     16 C          -7.7661  -15.2926   24.8326 C.ar    1  UNL1        0.0367
     17 C          -7.8678  -16.0825   23.5614 C.ar    1  UNL1        0.0024
     18 O          -8.3400  -14.9956   27.3490 O.3     1  UNL1       -0.4714
     19 C          -6.9969  -14.7307   27.9622 C.3     1  UNL1        0.2525
     20 O         -10.1768  -17.7324   22.4235 O.3     1  UNL1       -0.3379
     21 C         -11.9812  -15.8648   22.3416 C.3     1  UNL1        0.0347
     22 C         -10.6009  -16.3528   22.0148 C.3     1  UNL1        0.1440
@<TRIPOS>BOND
     1    21    22    1
     2    22    20    1
     3    20     1    1
     4     1    12    1
     5    12    13   ar
     6    13    14   ar
     7    14    15   ar
     8    15    18    1
     9    18    19    1
    10    15    16   ar
    11    16    17   ar
    12     1     2    1
    13     2     3    1
    14     3     4    2
    15     4     5    1
    16     4     6    1
    17     6     7   ar
    18     7     8   ar
    19     8     9   ar
    20     9    10   ar
    21    10    11    2
    22     7     1    1
    23    17    12   ar
    24    10     6   ar
@<TRIPOS>MOLECULE
*****
 22 24 0 0 0
SMALL
GASTEIGER

@<TRIPOS>ATOM
      1 C         -13.7073   -4.2640   18.2925 C.3     1  UNL1        0.2082
      2 S         -15.1821   -4.1681   18.5492 S.3     1  UNL1       -0.0751
      3 C         -15.8215   -2.8274   18.7573 C.2     1  UNL1        0.0470
      4 C         -14.9863   -1.5824   18.7087 C.2     1  UNL1        0.0551
      5 C         -15.6258   -0.2416   18.9168 C.3     1  UNL1        0.0512
      6 N         -13.5115   -1.6782   18.4520 N.ar    1  UNL1       -0.2279
      7 C         -12.8720   -3.0190   18.2439 C.ar    1  UNL1        0.2066
      8 N         -11.4060   -2.8024   18.0120 N.ar    1  UNL1       -0.0545
      9 O         -11.1394   -1.3277   18.0768 O.2     1  UNL1       -0.2950
     10 C         -12.4407   -0.6329   18.3487 C.ar    1  UNL1        0.4470
     11 O         -12.6367    0.8473   18.4922 O.2     1  UNL1       -0.2203
     12 C         -14.0748   -5.7175   18.2464 C.ar    1  UNL1        0.0191
     13 C         -14.8855   -6.3216   19.3545 C.ar    1  UNL1        0.0024
     14 C         -15.2531   -7.7751   19.3085 C.ar    1  UNL1        0.0367
     15 C         -14.8099   -8.6247   18.1544 C.ar    1  UNL1        0.1387
     16 C         -13.9991   -8.0206   17.0463 C.ar    1  UNL1        0.0367
     17 C         -13.6316   -6.5670   17.0923 C.ar    1  UNL1        0.0024
     18 O         -15.1774  -10.0782   18.1084 O.3     1  UNL1       -0.4714
     19 C         -16.5851  -10.5056   18.4016 C.3     1  UNL1        0.2525
     20 O         -12.3602   -4.8646   18.0198 O.3     1  UNL1       -0.3379
     21 C         -10.2557   -6.1375   18.8572 C.3     1  UNL1        0.0347
     22 C         -11.5629   -5.4594   19.1426 C.3     1  UNL1        0.1440
@<TRIPOS>BOND
     1    21    22    1
     2    22    20    1
     3    20     1    1
     4     1    12    1
     5    12    13   ar
     6    13    14   ar
     7    14    15   ar
     8    15    18    1
     9    18    19    1
    10    15    16   ar
    11    16    17   ar
    12     1     2    1
    13     2     3    1
    14     3     4    2
    15     4     5    1
    16     4     6    1
    17     6     7   ar
    18     7     8   ar
    19     8     9   ar
    20     9    10   ar
    21    10    11    2
    22     7     1    1
    23    17    12   ar
    24    10     6   ar
@<TRIPOS>MOLECULE
*****
 22 24 0 0 0
SMALL
GASTEIGER

@<TRIPOS>ATOM
      1 C          -6.9524  -18.3013   22.3919 C.3     1  UNL1        0.2082
      2 S          -7.0029  -19.7847   22.1746 S.3     1  UNL1       -0.0751
      3 C          -8.2719  -20.5389   22.4402 C.2     1  UNL1        0.0470
      4 C          -9.4906  -19.8098   22.9231 C.2     1  UNL1        0.0551
      5 C         -10.7597  -20.5641   23.1887 C.3     1  UNL1        0.0512
      6 N          -9.4402  -18.3265   23.1404 N.ar    1  UNL1       -0.2279
      7 C          -8.1711  -17.5723   22.8748 C.ar    1  UNL1        0.2066
      8 N          -8.4205  -16.1244   23.1772 N.ar    1  UNL1       -0.0545
      9 O          -9.8436  -15.9838   23.6297 O.2     1  UNL1       -0.2950
     10 C         -10.4739  -17.3448   23.6070 C.ar    1  UNL1        0.4470
     11 O         -11.8893  -17.6673   23.9845 O.2     1  UNL1       -0.2203
     12 C          -5.5467  -18.5447   21.9285 C.ar    1  UNL1        0.0191
     13 C          -4.4209  -18.5517   22.9198 C.ar    1  UNL1        0.0024
     14 C          -3.0152  -18.7950   22.4566 C.ar    1  UNL1        0.0367
     15 C          -2.7351  -19.0314   21.0020 C.ar    1  UNL1        0.1387
     16 C          -3.8609  -19.0243   20.0107 C.ar    1  UNL1        0.0367
     17 C          -5.2667  -18.7810   20.4740 C.ar    1  UNL1        0.0024
     18 O          -1.3294  -19.2747   20.5388 O.3     1  UNL1       -0.4714
     19 C          -0.5497  -18.1672   19.8942 C.3     1  UNL1        0.2525
     20 O          -6.4139  -16.9025   22.4483 O.3     1  UNL1       -0.3379
     21 C          -5.0052  -15.1939   23.8071 C.3     1  UNL1        0.0347
     22 C          -6.0101  -16.3068   23.7643 C.3     1  UNL1        0.1440
@<TRIPOS>BOND
     1    21    22    1
     2    22    20    1
     3    20     1    1
     4     1    12    1
     5    12    13   ar
     6    13    14   ar
     7    14    15   ar
     8    15    18    1
     9    18    19    1
    10    15    16   ar
    11    16    17   ar
    12     1     2    1
    13     2     3    1
    14     3     4    2
    15     4     5    1
    16     4     6    1
    17     6     7   ar
    18     7     8   ar
    19     8     9   ar
    20     9    10   ar
    21    10    11    2
    22     7     1    1
    23    17    12   ar
    24    10     6   ar
