@<TRIPOS>MOLECULE
*****
 62 68 0 0 0
SMALL
GASTEIGER

@<TRIPOS>ATOM
      1 C           6.6753   -1.3774   30.3560 C.ar    1  UNL1        0.0000
      2 C           7.9958   -0.9123   30.8947 C.ar    1  UNL1        0.0000
      3 C           8.0935   -0.3999   32.3010 C.ar    1  UNL1        0.0015
      4 C           6.8709   -0.3526   33.1688 C.ar    1  UNL1        0.0172
      5 C           5.5505   -0.8176   32.6301 C.ar    1  UNL1        0.0015
      6 C           5.4526   -1.3301   31.2237 C.ar    1  UNL1        0.0000
      7 C           6.3821   -2.9146   26.1369 C.ar    1  UNL1        0.0172
      8 C           5.3325   -1.9858   26.6713 C.ar    1  UNL1        0.0015
      9 C           5.4302   -1.4734   28.0777 C.ar    1  UNL1        0.0000
     10 C           6.5776   -1.8898   28.9496 C.ar    1  UNL1        0.0000
     11 C           7.6272   -2.8186   28.4151 C.ar    1  UNL1        0.0000
     12 C           7.5295   -3.3309   27.0089 C.ar    1  UNL1        0.0015
     13 C           5.5011   -3.8256   22.4682 C.ar    1  UNL1        0.1353
     14 N           6.7672   -4.6056   22.6644 N.ar    1  UNL1       -0.2279
     15 C           7.2514   -4.3593   24.0626 C.ar    1  UNL1        0.1171
     16 C           6.2845   -3.4270   24.7305 C.ar    1  UNL1        0.0769
     17 N           5.2027   -3.0972   23.7451 N.ar    1  UNL1       -0.3394
     18 H           4.4322   -2.5064   23.9078 H       1  UNL1        0.1671
     19 C           4.9806   -1.1965   20.6064 C.2     1  UNL1        0.2439
     20 O           5.8488   -0.9356   21.8015 O.2     1  UNL1       -0.2731
     21 N           4.4386   -2.5731   20.3593 N.am    1  UNL1       -0.2730
     22 C           3.5621   -2.9830   19.2131 C.3     1  UNL1        0.0939
     23 C           3.2596   -4.4447   19.3605 C.3     1  UNL1        0.0237
     24 C           3.9492   -4.9383   20.5978 C.3     1  UNL1        0.0293
     25 C           4.6777   -3.7816   21.2151 C.3     1  UNL1        0.1319
     26 C           4.6545   -0.0807   19.6585 C.3     1  UNL1        0.1512
     27 C           6.0676   -0.2026   17.4816 C.2     1  UNL1        0.4021
     28 O           5.3448   -1.4549   17.0826 O.2     1  UNL1       -0.2264
     29 N           5.7225    0.4845   18.7695 N.am    1  UNL1       -0.2640
     30 H           6.1969    1.3064   19.0315 H       1  UNL1        0.1532
     31 C           7.4464    1.8295   16.6332 C.3     1  UNL1        0.2573
     32 O           7.1356    0.3626   16.5927 O.3     1  UNL1       -0.4306
     33 C           3.2605    0.4699   19.5993 C.3     1  UNL1        0.0270
     34 C           2.5712    0.6258   18.2762 C.3     1  UNL1        0.0022
     35 C           2.5558    0.8647   20.8632 C.3     1  UNL1        0.0022
     36 C           6.9686    0.1598   34.5751 C.ar    1  UNL1        0.0769
     37 C           7.6746   -0.5164   35.7128 C.ar    1  UNL1        0.1171
     38 N           7.5199    0.3442   36.9315 N.ar    1  UNL1       -0.2279
     39 C           6.7183    1.5524   36.5471 C.ar    1  UNL1        0.1355
     40 N           6.3776    1.4384   35.0908 N.ar    1  UNL1       -0.3394
     41 H           5.8574    2.0887   34.5656 H       1  UNL1        0.1671
     42 C           6.3262    2.6771   37.4588 C.3     1  UNL1        0.1369
     43 C           7.2645    3.6349   38.1312 C.3     1  UNL1        0.0855
     44 C           6.4453    4.5913   38.9463 C.3     1  UNL1        0.2077
     45 C           5.0005    4.2244   38.7776 C.3     1  UNL1        0.1499
     46 N           4.9270    3.0414   37.8583 N.am    1  UNL1       -0.2680
     47 C           3.6742    2.3450   37.4161 C.2     1  UNL1        0.2440
     48 O           3.7574    1.1686   36.4892 O.2     1  UNL1       -0.2731
     49 O           7.8899    4.9581   39.1149 O.3     1  UNL1       -0.3300
     50 C           7.9634    6.1411   40.0342 C.3     1  UNL1        0.1767
     51 C           6.5643    6.5054   40.4337 C.3     1  UNL1        0.1767
     52 O           5.6260    5.5476   39.7613 O.3     1  UNL1       -0.3300
     53 C           2.3384    2.8250   37.9009 C.3     1  UNL1        0.1512
     54 N           1.8438    4.1863   37.5107 N.am    1  UNL1       -0.2640
     55 C           1.4923    4.4754   36.0813 C.2     1  UNL1        0.4021
     56 O           1.6356    3.4032   35.0422 O.2     1  UNL1       -0.2264
     57 H           1.7498    4.8900   38.1928 H       1  UNL1        0.1532
     58 O           0.9977    5.8367   35.6912 O.3     1  UNL1       -0.4306
     59 C          -0.1206    6.4769   36.4590 C.3     1  UNL1        0.2573
     60 C           1.4971    1.9437   38.7758 C.3     1  UNL1        0.0270
     61 C           1.9866    0.5780   39.1569 C.3     1  UNL1        0.0022
     62 C           0.1662    2.4282   39.2697 C.3     1  UNL1        0.0022
@<TRIPOS>BOND
     1    31    32    1
     2    32    27    1
     3    27    28    2
     4    27    29   am
     5    26    29    1
     6    26    19    1
     7    19    20    2
     8    19    21   am
     9    21    22    1
    10    22    23    1
    11    23    24    1
    12    24    25    1
    13    25    13    1
    14    13    14   ar
    15    14    15   ar
    16    15    16   ar
    17    16     7    1
    18     7     8   ar
    19     8     9   ar
    20     9    10   ar
    21    10     1    1
    22     1     2   ar
    23     2     3   ar
    24     3     4   ar
    25     4    36    1
    26    36    37   ar
    27    37    38   ar
    28    38    39   ar
    29    42    39    1
    30    42    43    1
    31    43    44    1
    32    44    45    1
    33    45    46    1
    34    46    47   am
    35    47    48    2
    36    47    53    1
    37    53    54    1
    38    54    55   am
    39    55    56    2
    40    55    58    1
    41    58    59    1
    42    53    60    1
    43    60    61    1
    44    60    62    1
    45    44    49    1
    46    49    50    1
    47    50    51    1
    48    51    52    1
    49    39    40   ar
    50     4     5   ar
    51     5     6   ar
    52    10    11   ar
    53    11    12   ar
    54    16    17   ar
    55    26    33    1
    56    33    34    1
    57    33    35    1
    58    25    21    1
    59    17    13   ar
    60    12     7   ar
    61     6     1   ar
    62    40    36   ar
    63    46    42    1
    64    52    44    1
    65    29    30    1
    66    54    57    1
    67    40    41    1
    68    17    18    1
@<TRIPOS>MOLECULE
*****
 62 68 0 0 0
SMALL
GASTEIGER

@<TRIPOS>ATOM
      1 C           2.0522    3.4694   28.4736 C.ar    1  UNL1        0.0000
      2 C           1.1548    2.8303   29.4917 C.ar    1  UNL1        0.0000
      3 C           1.1533    3.3267   30.9071 C.ar    1  UNL1        0.0015
      4 C           2.0492    4.4623   31.3046 C.ar    1  UNL1        0.0172
      5 C           2.9465    5.1013   30.2866 C.ar    1  UNL1        0.0015
      6 C           2.9481    4.6049   28.8711 C.ar    1  UNL1        0.0000
      7 C           2.0566    1.9800   24.2273 C.ar    1  UNL1        0.0172
      8 C           1.7175    1.0446   25.3498 C.ar    1  UNL1        0.0015
      9 C           1.7160    1.5411   26.7652 C.ar    1  UNL1        0.0000
     10 C           2.0537    2.9729   27.0582 C.ar    1  UNL1        0.0000
     11 C           2.3928    3.9083   25.9357 C.ar    1  UNL1        0.0000
     12 C           2.3943    3.4119   24.5203 C.ar    1  UNL1        0.0015
     13 C           2.8095    0.7593   20.6206 C.ar    1  UNL1        0.1353
     14 N           1.3118    0.6803   20.6465 N.ar    1  UNL1       -0.2279
     15 C           0.8475    1.1280   22.0008 C.ar    1  UNL1        0.1171
     16 C           2.0582    1.4836   22.8118 C.ar    1  UNL1        0.0769
     17 N           3.2708    1.2557   21.9587 N.ar    1  UNL1       -0.3394
     18 H           4.2054    1.4056   22.2296 H       1  UNL1        0.1671
     19 C           4.3134   -2.0998   20.1589 C.2     1  UNL1        0.2439
     20 O           3.4955   -2.0365   21.4147 O.2     1  UNL1       -0.2731
     21 N           4.3825   -0.9101   19.2480 N.am    1  UNL1       -0.2730
     22 C           5.1549   -0.8257   17.9650 C.3     1  UNL1        0.0939
     23 C           4.9410    0.5406   17.3842 C.3     1  UNL1        0.0237
     24 C           4.0364    1.3007   18.3083 C.3     1  UNL1        0.0293
     25 C           3.6912    0.4041   19.4602 C.3     1  UNL1        0.1319
     26 C           5.0623   -3.3529   19.8141 C.3     1  UNL1        0.1512
     27 C           7.0149   -3.9256   21.4295 C.2     1  UNL1        0.4021
     28 O           6.0254   -4.3082   22.4899 O.2     1  UNL1       -0.2264
     29 N           6.5334   -3.4479   20.0917 N.am    1  UNL1       -0.2640
     30 H           7.1829   -3.1967   19.3957 H       1  UNL1        0.1532
     31 C           9.4750   -3.7328   20.6168 C.3     1  UNL1        0.2573
     32 O           8.4860   -4.0206   21.7071 O.3     1  UNL1       -0.4306
     33 C           4.3402   -4.5110   19.1918 C.3     1  UNL1        0.0270
     34 C           2.8469   -4.4771   19.0537 C.3     1  UNL1        0.0022
     35 C           5.1113   -5.7030   18.7075 C.3     1  UNL1        0.0022
     36 C           2.0477    4.9587   32.7200 C.ar    1  UNL1        0.0769
     37 C           1.0810    5.9437   33.3079 C.ar    1  UNL1        0.1171
     38 N           1.4485    6.1511   34.7473 N.ar    1  UNL1       -0.2279
     39 C           2.6422    5.2943   35.0491 C.ar    1  UNL1        0.1355
     40 N           3.0125    4.5574   33.7962 N.ar    1  UNL1       -0.3394
     41 H           3.7579    3.9219   33.6975 H       1  UNL1        0.1671
     42 C           3.3426    5.1924   36.3716 C.3     1  UNL1        0.1369
     43 C           4.1495    6.2734   37.0275 C.3     1  UNL1        0.0855
     44 C           4.6648    5.7407   38.3317 C.3     1  UNL1        0.2077
     45 C           4.1763    4.3303   38.4817 C.3     1  UNL1        0.1499
     46 N           3.3592    3.9915   37.2703 N.am    1  UNL1       -0.2680
     47 C           2.6782    2.6818   37.0043 C.2     1  UNL1        0.2440
     48 O           1.8915    2.4883   35.7419 O.2     1  UNL1       -0.2731
     49 O           5.1533    7.1510   38.1816 O.3     1  UNL1       -0.3300
     50 C           5.9704    7.4898   39.3930 C.3     1  UNL1        0.1767
     51 C           5.9869    6.2889   40.2918 C.3     1  UNL1        0.1767
     52 O           5.1800    5.2079   39.6358 O.3     1  UNL1       -0.3300
     53 C           2.7839    1.5656   38.0007 C.3     1  UNL1        0.1512
     54 N           4.0463    0.7609   38.0944 N.am    1  UNL1       -0.2640
     55 C           4.7028    0.2474   36.8472 C.2     1  UNL1        0.4021
     56 O           4.0969    0.5386   35.5063 O.2     1  UNL1       -0.2264
     57 H           4.4440    0.5698   38.9745 H       1  UNL1        0.1532
     58 O           5.9653   -0.5573   36.9410 O.3     1  UNL1       -0.4306
     59 C           7.2536    0.0047   36.4172 C.3     1  UNL1        0.2573
     60 C           1.6272    1.2540   38.9034 C.3     1  UNL1        0.0270
     61 C           1.4756   -0.1223   39.4805 C.3     1  UNL1        0.0022
     62 C           0.6220    2.3187   39.2291 C.3     1  UNL1        0.0022
@<TRIPOS>BOND
     1    31    32    1
     2    32    27    1
     3    27    28    2
     4    27    29   am
     5    26    29    1
     6    26    19    1
     7    19    20    2
     8    19    21   am
     9    21    22    1
    10    22    23    1
    11    23    24    1
    12    24    25    1
    13    25    13    1
    14    13    14   ar
    15    14    15   ar
    16    15    16   ar
    17    16     7    1
    18     7     8   ar
    19     8     9   ar
    20     9    10   ar
    21    10     1    1
    22     1     2   ar
    23     2     3   ar
    24     3     4   ar
    25     4    36    1
    26    36    37   ar
    27    37    38   ar
    28    38    39   ar
    29    42    39    1
    30    42    43    1
    31    43    44    1
    32    44    45    1
    33    45    46    1
    34    46    47   am
    35    47    48    2
    36    47    53    1
    37    53    54    1
    38    54    55   am
    39    55    56    2
    40    55    58    1
    41    58    59    1
    42    53    60    1
    43    60    61    1
    44    60    62    1
    45    44    49    1
    46    49    50    1
    47    50    51    1
    48    51    52    1
    49    39    40   ar
    50     4     5   ar
    51     5     6   ar
    52    10    11   ar
    53    11    12   ar
    54    16    17   ar
    55    26    33    1
    56    33    34    1
    57    33    35    1
    58    25    21    1
    59    17    13   ar
    60    12     7   ar
    61     6     1   ar
    62    40    36   ar
    63    46    42    1
    64    52    44    1
    65    29    30    1
    66    54    57    1
    67    40    41    1
    68    17    18    1
@<TRIPOS>MOLECULE
*****
 62 68 0 0 0
SMALL
GASTEIGER

@<TRIPOS>ATOM
      1 C          -4.3298    4.1794   24.8336 C.ar    1  UNL1        0.0000
      2 C          -3.5142    4.0761   23.5788 C.ar    1  UNL1        0.0000
      3 C          -2.0966    3.5906   23.6437 C.ar    1  UNL1        0.0015
      4 C          -1.4942    3.2083   24.9632 C.ar    1  UNL1        0.0172
      5 C          -2.3097    3.3117   26.2179 C.ar    1  UNL1        0.0015
      6 C          -3.7275    3.7973   26.1531 C.ar    1  UNL1        0.0000
      7 C          -8.5831    5.6361   24.6390 C.ar    1  UNL1        0.0172
      8 C          -8.0836    4.6432   23.6318 C.ar    1  UNL1        0.0015
      9 C          -6.6658    4.1576   23.6967 C.ar    1  UNL1        0.0000
     10 C          -5.7476    4.6650   24.7687 C.ar    1  UNL1        0.0000
     11 C          -6.2471    5.6580   25.7759 C.ar    1  UNL1        0.0000
     12 C          -7.6647    6.1435   25.7111 C.ar    1  UNL1        0.0015
     13 C         -12.4210    6.2075   24.7357 C.ar    1  UNL1        0.1353
     14 N         -11.9441    7.5303   24.2136 N.ar    1  UNL1       -0.2279
     15 C         -10.4484    7.4774   24.1138 C.ar    1  UNL1        0.1171
     16 C         -10.0008    6.1217   24.5742 C.ar    1  UNL1        0.0769
     17 N         -11.2200    5.3369   24.9586 N.ar    1  UNL1       -0.3394
     18 H         -11.2301    4.4126   25.2976 H       1  UNL1        0.1671
     19 C         -14.6613    5.5352   22.4601 C.2     1  UNL1        0.2439
     20 O         -13.3143    5.8903   21.9040 O.2     1  UNL1       -0.2731
     21 N         -14.8780    5.5136   23.9442 N.am    1  UNL1       -0.2730
     22 C         -16.1625    5.1793   24.6429 C.3     1  UNL1        0.0939
     23 C         -15.9267    5.2817   26.1206 C.3     1  UNL1        0.0237
     24 C         -14.4964    5.6793   26.3353 C.3     1  UNL1        0.0293
     25 C         -13.8483    5.8226   24.9902 C.3     1  UNL1        0.1319
     26 C         -15.7916    5.2016   21.5322 C.3     1  UNL1        0.1512
     27 C         -15.5269    3.1717   19.9323 C.2     1  UNL1        0.4021
     28 O         -14.6784    4.0038   19.0170 O.2     1  UNL1       -0.2264
     29 N         -16.0835    3.7706   21.1898 N.am    1  UNL1       -0.2640
     30 H         -16.6405    3.2245   21.7905 H       1  UNL1        0.1532
     31 C         -14.8358    0.9475   18.7811 C.3     1  UNL1        0.2573
     32 O         -15.8189    1.7408   19.5899 O.3     1  UNL1       -0.4306
     33 C         -16.6300    6.2989   20.9466 C.3     1  UNL1        0.0270
     34 C         -18.1263    6.2132   21.0070 C.3     1  UNL1        0.0022
     35 C         -15.9721    7.4820   20.3005 C.3     1  UNL1        0.0022
     36 C          -0.0766    2.7228   25.0281 C.ar    1  UNL1        0.0769
     37 C           1.0605    3.4118   25.7228 C.ar    1  UNL1        0.1171
     38 N           2.2929    2.5778   25.5337 N.ar    1  UNL1       -0.2279
     39 C           1.9176    1.3735   24.7220 C.ar    1  UNL1        0.1355
     40 N           0.4532    1.4631   24.4096 N.ar    1  UNL1       -0.3394
     41 H          -0.0686    0.8098   23.8898 H       1  UNL1        0.1671
     42 C           2.8438    0.2728   24.2974 C.3     1  UNL1        0.1369
     43 C           3.6984   -0.5601   25.2063 C.3     1  UNL1        0.0855
     44 C           4.4610   -1.5360   24.3600 C.3     1  UNL1        0.2077
     45 C           4.0778   -1.3062   22.9281 C.3     1  UNL1        0.1499
     46 N           3.0783   -0.1883   22.8894 N.am    1  UNL1       -0.2680
     47 C           2.4276    0.3704   21.6588 C.2     1  UNL1        0.2440
     48 O           1.4418    1.4949   21.7764 O.2     1  UNL1       -0.2731
     49 O           4.8442   -1.7658   25.7919 O.3     1  UNL1       -0.3300
     50 C           5.8436   -2.8837   25.8306 C.3     1  UNL1        0.1767
     51 C           6.0781   -3.3448   24.4226 C.3     1  UNL1        0.1767
     52 O           5.2236   -2.5119   23.5137 O.3     1  UNL1       -0.3300
     53 C           2.7627   -0.1953   20.3107 C.3     1  UNL1        0.1512
     54 N           2.4114   -1.6169   19.9854 N.am    1  UNL1       -0.2640
     55 C           3.4956   -2.6030   19.6656 C.2     1  UNL1        0.4021
     56 O           4.9310   -2.1675   19.6710 O.2     1  UNL1       -0.2264
     57 H           1.4694   -1.9027   19.9819 H       1  UNL1        0.1532
     58 O           3.1444   -4.0246   19.3403 O.3     1  UNL1       -0.4306
     59 C           4.2270   -5.0060   19.0017 C.3     1  UNL1        0.2573
     60 C           3.4491    0.6605   19.2877 C.3     1  UNL1        0.0270
     61 C           4.3582    1.7701   19.7261 C.3     1  UNL1        0.0022
     62 C           3.2264    0.4065   17.8262 C.3     1  UNL1        0.0022
@<TRIPOS>BOND
     1    31    32    1
     2    32    27    1
     3    27    28    2
     4    27    29   am
     5    26    29    1
     6    26    19    1
     7    19    20    2
     8    19    21   am
     9    21    22    1
    10    22    23    1
    11    23    24    1
    12    24    25    1
    13    25    13    1
    14    13    14   ar
    15    14    15   ar
    16    15    16   ar
    17    16     7    1
    18     7     8   ar
    19     8     9   ar
    20     9    10   ar
    21    10     1    1
    22     1     2   ar
    23     2     3   ar
    24     3     4   ar
    25     4    36    1
    26    36    37   ar
    27    37    38   ar
    28    38    39   ar
    29    42    39    1
    30    42    43    1
    31    43    44    1
    32    44    45    1
    33    45    46    1
    34    46    47   am
    35    47    48    2
    36    47    53    1
    37    53    54    1
    38    54    55   am
    39    55    56    2
    40    55    58    1
    41    58    59    1
    42    53    60    1
    43    60    61    1
    44    60    62    1
    45    44    49    1
    46    49    50    1
    47    50    51    1
    48    51    52    1
    49    39    40   ar
    50     4     5   ar
    51     5     6   ar
    52    10    11   ar
    53    11    12   ar
    54    16    17   ar
    55    26    33    1
    56    33    34    1
    57    33    35    1
    58    25    21    1
    59    17    13   ar
    60    12     7   ar
    61     6     1   ar
    62    40    36   ar
    63    46    42    1
    64    52    44    1
    65    29    30    1
    66    54    57    1
    67    40    41    1
    68    17    18    1
@<TRIPOS>MOLECULE
*****
 62 68 0 0 0
SMALL
GASTEIGER

@<TRIPOS>ATOM
      1 C           5.9607   -1.5942   29.9751 C.ar    1  UNL1        0.0000
      2 C           6.3241   -2.5731   31.0521 C.ar    1  UNL1        0.0000
      3 C           6.3140   -2.1447   32.4895 C.ar    1  UNL1        0.0015
      4 C           5.9406   -0.7373   32.8501 C.ar    1  UNL1        0.0172
      5 C           5.5772    0.2415   31.7732 C.ar    1  UNL1        0.0015
      6 C           5.5872   -0.1869   30.3356 C.ar    1  UNL1        0.0000
      7 C           5.9909   -2.8796   25.6627 C.ar    1  UNL1        0.0172
      8 C           6.7775   -3.6509   26.6807 C.ar    1  UNL1        0.0015
      9 C           6.7674   -3.2224   28.1182 C.ar    1  UNL1        0.0000
     10 C           5.9708   -2.0227   28.5376 C.ar    1  UNL1        0.0000
     11 C           5.1842   -1.2514   27.5196 C.ar    1  UNL1        0.0000
     12 C           5.1942   -1.6798   26.0822 C.ar    1  UNL1        0.0015
     13 C           5.2935   -3.7761   21.9512 C.ar    1  UNL1        0.1353
     14 N           6.7387   -4.1582   22.0750 N.ar    1  UNL1       -0.2279
     15 C           7.1759   -3.8689   23.4804 C.ar    1  UNL1        0.1171
     16 C           6.0009   -3.3080   24.2252 C.ar    1  UNL1        0.0769
     17 N           4.8374   -3.2507   23.2801 N.ar    1  UNL1       -0.3394
     18 H           3.9333   -2.9253   23.4943 H       1  UNL1        0.1671
     19 C           3.9114   -1.3102   20.3208 C.2     1  UNL1        0.2439
     20 O           4.6984   -0.8812   21.5235 O.2     1  UNL1       -0.2731
     21 N           3.8167   -2.7645   19.9661 N.am    1  UNL1       -0.2730
     22 C           3.0701   -3.3408   18.7997 C.3     1  UNL1        0.0939
     23 C           3.2439   -4.8303   18.8282 C.3     1  UNL1        0.0237
     24 C           4.0979   -5.1747   20.0123 C.3     1  UNL1        0.0293
     25 C           4.4519   -3.8980   20.7155 C.3     1  UNL1        0.1319
     26 C           3.2192   -0.2847   19.4728 C.3     1  UNL1        0.1512
     27 C           1.2804    0.8810   20.7504 C.2     1  UNL1        0.4021
     28 O           2.2749    1.5326   21.6650 O.2     1  UNL1       -0.2264
     29 N           1.7525   -0.0276   19.6543 N.am    1  UNL1       -0.2640
     30 H           1.0998   -0.4552   19.0540 H       1  UNL1        0.1532
     31 C          -0.7044    2.5457   20.9499 C.3     1  UNL1        0.2573
     32 O          -0.1863    1.1382   20.9319 O.3     1  UNL1       -0.4306
     33 C           3.9935    0.4837   18.4432 C.3     1  UNL1        0.0270
     34 C           4.3219    1.9287   18.6760 C.3     1  UNL1        0.0022
     35 C           4.4394   -0.1929   17.1809 C.3     1  UNL1        0.0022
     36 C           5.9305   -0.3089   34.2875 C.ar    1  UNL1        0.0769
     37 C           7.0268   -0.5416   35.2846 C.ar    1  UNL1        0.1171
     38 N           6.5963    0.0510   36.5936 N.ar    1  UNL1       -0.2279
     39 C           5.2339    0.6498   36.4056 C.ar    1  UNL1        0.1355
     40 N           4.8225    0.4274   34.9804 N.ar    1  UNL1       -0.3394
     41 H           3.9741    0.7144   34.5715 H       1  UNL1        0.1671
     42 C           4.4250    1.3484   37.4579 C.3     1  UNL1        0.1369
     43 C           3.0210    1.0078   37.8615 C.3     1  UNL1        0.0855
     44 C           2.6062    1.9591   38.9446 C.3     1  UNL1        0.2077
     45 C           3.7539    2.8878   39.2103 C.3     1  UNL1        0.1499
     46 N           4.8779    2.5103   38.2915 N.am    1  UNL1       -0.2680
     47 C           6.2193    3.1776   38.2190 C.2     1  UNL1        0.2440
     48 O           7.2492    2.6874   37.2449 O.2     1  UNL1       -0.2731
     49 O           1.4586    1.0305   38.6788 O.3     1  UNL1       -0.3300
     50 C           0.3346    1.4080   39.5976 C.3     1  UNL1        0.1767
     51 C           0.7875    2.5699   40.4311 C.3     1  UNL1        0.1767
     52 O           2.1915    2.9105   40.0276 O.3     1  UNL1       -0.3300
     53 C           6.5308    4.3352   39.1207 C.3     1  UNL1        0.1512
     54 N           7.5757    4.1948   40.1877 N.am    1  UNL1       -0.2640
     55 C           7.2312    3.5417   41.4935 C.2     1  UNL1        0.4021
     56 O           5.8419    3.0289   41.7321 O.2     1  UNL1       -0.2264
     57 H           8.4875    4.5313   40.0311 H       1  UNL1        0.1532
     58 O           8.2761    3.4013   42.5605 O.3     1  UNL1       -0.4306
     59 C           7.9875    2.5940   43.7913 C.3     1  UNL1        0.2573
     60 C           5.7974    5.6332   38.9554 C.3     1  UNL1        0.0270
     61 C           5.7835    6.3225   37.6232 C.3     1  UNL1        0.0022
     62 C           5.0779    6.2419   40.1223 C.3     1  UNL1        0.0022
@<TRIPOS>BOND
     1    31    32    1
     2    32    27    1
     3    27    28    2
     4    27    29   am
     5    26    29    1
     6    26    19    1
     7    19    20    2
     8    19    21   am
     9    21    22    1
    10    22    23    1
    11    23    24    1
    12    24    25    1
    13    25    13    1
    14    13    14   ar
    15    14    15   ar
    16    15    16   ar
    17    16     7    1
    18     7     8   ar
    19     8     9   ar
    20     9    10   ar
    21    10     1    1
    22     1     2   ar
    23     2     3   ar
    24     3     4   ar
    25     4    36    1
    26    36    37   ar
    27    37    38   ar
    28    38    39   ar
    29    42    39    1
    30    42    43    1
    31    43    44    1
    32    44    45    1
    33    45    46    1
    34    46    47   am
    35    47    48    2
    36    47    53    1
    37    53    54    1
    38    54    55   am
    39    55    56    2
    40    55    58    1
    41    58    59    1
    42    53    60    1
    43    60    61    1
    44    60    62    1
    45    44    49    1
    46    49    50    1
    47    50    51    1
    48    51    52    1
    49    39    40   ar
    50     4     5   ar
    51     5     6   ar
    52    10    11   ar
    53    11    12   ar
    54    16    17   ar
    55    26    33    1
    56    33    34    1
    57    33    35    1
    58    25    21    1
    59    17    13   ar
    60    12     7   ar
    61     6     1   ar
    62    40    36   ar
    63    46    42    1
    64    52    44    1
    65    29    30    1
    66    54    57    1
    67    40    41    1
    68    17    18    1
@<TRIPOS>MOLECULE
*****
 62 68 0 0 0
SMALL
GASTEIGER

@<TRIPOS>ATOM
      1 C          -8.1750    5.1990   24.5509 C.ar    1  UNL1        0.0000
      2 C          -7.5517    4.3654   23.4706 C.ar    1  UNL1        0.0000
      3 C          -6.0640    4.1784   23.4319 C.ar    1  UNL1        0.0015
      4 C          -5.1994    4.8249   24.4733 C.ar    1  UNL1        0.0172
      5 C          -5.8227    5.6584   25.5535 C.ar    1  UNL1        0.0015
      6 C          -7.3105    5.8455   25.5923 C.ar    1  UNL1        0.0000
      7 C         -12.6384    5.7600   24.6671 C.ar    1  UNL1        0.0172
      8 C         -11.7333    6.9551   24.6190 C.ar    1  UNL1        0.0015
      9 C         -10.2455    6.7681   24.5803 C.ar    1  UNL1        0.0000
     10 C          -9.6628    5.3860   24.5896 C.ar    1  UNL1        0.0000
     11 C         -10.5679    4.1908   24.6377 C.ar    1  UNL1        0.0000
     12 C         -12.0556    4.3778   24.6764 C.ar    1  UNL1        0.0015
     13 C         -16.5104    5.4930   24.7019 C.ar    1  UNL1        0.1353
     14 N         -16.3210    6.9756   24.8290 N.ar    1  UNL1       -0.2279
     15 C         -14.8475    7.2561   24.8315 C.ar    1  UNL1        0.1171
     16 C         -14.1262    5.9469   24.7058 C.ar    1  UNL1        0.0769
     17 N         -15.1540    4.8572   24.6257 N.ar    1  UNL1       -0.3394
     18 H         -14.9705    3.8939   24.5385 H       1  UNL1        0.1671
     19 C         -17.4820    3.4122   22.3833 C.2     1  UNL1        0.2439
     20 O         -16.1119    3.9799   22.1585 O.2     1  UNL1       -0.2731
     21 N         -18.2720    3.8162   23.5927 N.am    1  UNL1       -0.2730
     22 C         -19.6473    3.3347   23.9487 C.3     1  UNL1        0.0939
     23 C         -20.0506    3.9935   25.2344 C.3     1  UNL1        0.0237
     24 C         -18.9247    4.8822   25.6731 C.3     1  UNL1        0.0293
     25 C         -17.8255    4.7726   24.6585 C.3     1  UNL1        0.1319
     26 C         -18.0620    2.4406   21.3987 C.3     1  UNL1        0.1512
     27 C         -16.5901    0.5723   20.3533 C.2     1  UNL1        0.4021
     28 O         -16.0665    1.5499   19.3433 O.2     1  UNL1       -0.2264
     29 N         -17.5878    1.0176   21.3810 N.am    1  UNL1       -0.2640
     30 H         -17.9315    0.3759   22.0439 H       1  UNL1        0.1532
     31 C         -15.0027   -1.2589   19.4168 C.3     1  UNL1        0.2573
     32 O         -16.1159   -0.8507   20.3356 O.3     1  UNL1       -0.4306
     33 C         -19.1163    2.8919   20.4318 C.3     1  UNL1        0.0270
     34 C         -18.8227    4.0018   19.4663 C.3     1  UNL1        0.0022
     35 C         -20.4640    2.2335   20.4305 C.3     1  UNL1        0.0022
     36 C          -3.7117    4.6379   24.4346 C.ar    1  UNL1        0.0769
     37 C          -2.6914    5.7213   24.2459 C.ar    1  UNL1        0.1171
     38 N          -1.3321    5.0876   24.2724 N.ar    1  UNL1       -0.2279
     39 C          -1.5122    3.6126   24.4774 C.ar    1  UNL1        0.1355
     40 N          -2.9828    3.3347   24.5776 N.ar    1  UNL1       -0.3394
     41 H          -3.3969    2.4519   24.7135 H       1  UNL1        0.1671
     42 C          -0.4145    2.5943   24.5666 C.3     1  UNL1        0.1369
     43 C           0.2799    1.9427   23.4076 C.3     1  UNL1        0.0855
     44 C           1.3052    0.9945   23.9550 C.3     1  UNL1        0.2077
     45 C           1.2445    1.0601   25.4524 C.3     1  UNL1        0.1499
     46 N           0.1817    2.0488   25.8303 N.am    1  UNL1       -0.2680
     47 C          -0.2153    2.4259   27.2268 C.2     1  UNL1        0.2440
     48 O          -1.3017    3.4356   27.4510 O.2     1  UNL1       -0.2731
     49 O           1.3659    0.9289   22.4576 O.3     1  UNL1       -0.3300
     50 C           2.4287   -0.0598   22.0797 C.3     1  UNL1        0.1767
     51 C           3.0249   -0.6053   23.3434 C.3     1  UNL1        0.1767
     52 O           2.3305    0.0463   24.5024 O.3     1  UNL1       -0.3300
     53 C           0.4742    1.7932   28.3991 C.3     1  UNL1        0.1512
     54 N           1.2825    2.6376   29.3391 N.am    1  UNL1       -0.2640
     55 C           0.9785    2.6257   30.8080 C.2     1  UNL1        0.4021
     56 O          -0.1338    1.7694   31.3368 O.2     1  UNL1       -0.2264
     57 H           2.0125    3.1996   28.9921 H       1  UNL1        0.1532
     58 O           1.7867    3.4701   31.7481 O.3     1  UNL1       -0.4306
     59 C           1.1498    4.0398   32.9808 C.3     1  UNL1        0.2573
     60 C           0.3554    0.3161   28.6314 C.3     1  UNL1        0.0270
     61 C           1.5870   -0.5082   28.8633 C.3     1  UNL1        0.0022
     62 C          -0.9950   -0.3368   28.6319 C.3     1  UNL1        0.0022
@<TRIPOS>BOND
     1    31    32    1
     2    32    27    1
     3    27    28    2
     4    27    29   am
     5    26    29    1
     6    26    19    1
     7    19    20    2
     8    19    21   am
     9    21    22    1
    10    22    23    1
    11    23    24    1
    12    24    25    1
    13    25    13    1
    14    13    14   ar
    15    14    15   ar
    16    15    16   ar
    17    16     7    1
    18     7     8   ar
    19     8     9   ar
    20     9    10   ar
    21    10     1    1
    22     1     2   ar
    23     2     3   ar
    24     3     4   ar
    25     4    36    1
    26    36    37   ar
    27    37    38   ar
    28    38    39   ar
    29    42    39    1
    30    42    43    1
    31    43    44    1
    32    44    45    1
    33    45    46    1
    34    46    47   am
    35    47    48    2
    36    47    53    1
    37    53    54    1
    38    54    55   am
    39    55    56    2
    40    55    58    1
    41    58    59    1
    42    53    60    1
    43    60    61    1
    44    60    62    1
    45    44    49    1
    46    49    50    1
    47    50    51    1
    48    51    52    1
    49    39    40   ar
    50     4     5   ar
    51     5     6   ar
    52    10    11   ar
    53    11    12   ar
    54    16    17   ar
    55    26    33    1
    56    33    34    1
    57    33    35    1
    58    25    21    1
    59    17    13   ar
    60    12     7   ar
    61     6     1   ar
    62    40    36   ar
    63    46    42    1
    64    52    44    1
    65    29    30    1
    66    54    57    1
    67    40    41    1
    68    17    18    1
@<TRIPOS>MOLECULE
*****
 62 68 0 0 0
SMALL
GASTEIGER

@<TRIPOS>ATOM
      1 C           0.6450    2.0252   29.5989 C.ar    1  UNL1        0.0000
      2 C           0.6733    3.4449   29.1152 C.ar    1  UNL1        0.0000
      3 C          -0.2216    3.8718   27.9897 C.ar    1  UNL1        0.0015
      4 C          -1.1450    2.8790   27.3478 C.ar    1  UNL1        0.0172
      5 C          -1.1733    1.4594   27.8314 C.ar    1  UNL1        0.0015
      6 C          -0.2783    1.0325   28.9570 C.ar    1  UNL1        0.0000
      7 C           3.3299    0.7446   32.9755 C.ar    1  UNL1        0.0172
      8 C           3.2671   -0.0694   31.7171 C.ar    1  UNL1        0.0015
      9 C           2.3721    0.3575   30.5916 C.ar    1  UNL1        0.0000
     10 C           1.5399    1.5983   30.7244 C.ar    1  UNL1        0.0000
     11 C           1.6027    2.4123   31.9828 C.ar    1  UNL1        0.0000
     12 C           2.4976    1.9855   33.1082 C.ar    1  UNL1        0.0015
     13 C           5.8984    0.3498   35.8585 C.ar    1  UNL1        0.1353
     14 N           5.3056   -1.0272   35.8080 N.ar    1  UNL1       -0.2279
     15 C           4.2712   -1.0469   34.7218 C.ar    1  UNL1        0.1171
     16 C           4.2247    0.3179   34.1011 C.ar    1  UNL1        0.0769
     17 N           5.2305    1.1811   34.8036 N.ar    1  UNL1       -0.3394
     18 H           5.4191    2.1271   34.6069 H       1  UNL1        0.1671
     19 C           5.5435    2.5625   38.2306 C.2     1  UNL1        0.2439
     20 O           4.2905    2.2997   37.4490 O.2     1  UNL1       -0.2731
     21 N           6.8078    1.8311   37.8892 N.am    1  UNL1       -0.2730
     22 C           8.1309    1.9883   38.5781 C.3     1  UNL1        0.0939
     23 C           9.1117    1.0685   37.9136 C.3     1  UNL1        0.0237
     24 C           8.3948    0.3427   36.8139 C.3     1  UNL1        0.0293
     25 C           6.9710    0.8140   36.7988 C.3     1  UNL1        0.1319
     26 C           5.5322    3.5568   39.3537 C.3     1  UNL1        0.1512
     27 C           6.7373    3.4466   41.6527 C.2     1  UNL1        0.4021
     28 O           7.8547    4.2856   41.1072 O.2     1  UNL1       -0.2264
     29 N           5.5761    3.0822   40.7760 N.am    1  UNL1       -0.2640
     30 H           4.8427    2.5316   41.1341 H       1  UNL1        0.1532
     31 C           6.8050    3.9671   44.1972 C.3     1  UNL1        0.2573
     32 O           6.7812    2.9721   43.0750 O.3     1  UNL1       -0.4306
     33 C           5.4769    5.0256   39.0545 C.3     1  UNL1        0.0270
     34 C           6.2712    5.5890   37.9135 C.3     1  UNL1        0.0022
     35 C           4.6274    5.9310   39.8962 C.3     1  UNL1        0.0022
     36 C          -2.0399    3.3059   26.2223 C.ar    1  UNL1        0.0769
     37 C          -3.3249    4.0678   26.3580 C.ar    1  UNL1        0.1171
     38 N          -3.8861    4.2786   24.9830 N.ar    1  UNL1       -0.2279
     39 C          -2.9481    3.6470   23.9975 C.ar    1  UNL1        0.1355
     40 N          -1.8070    3.0459   24.7634 N.ar    1  UNL1       -0.3394
     41 H          -1.0400    2.5651   24.3766 H       1  UNL1        0.1671
     42 C          -3.1206    3.6212   22.5078 C.3     1  UNL1        0.1369
     43 C          -4.4276    3.6091   21.7717 C.3     1  UNL1        0.0855
     44 C          -4.1314    3.5833   20.3014 C.3     1  UNL1        0.2077
     45 C          -2.6413    3.5794   20.1288 C.3     1  UNL1        0.1499
     46 N          -2.0167    3.6028   21.4924 N.am    1  UNL1       -0.2680
     47 C          -0.5462    3.6071   21.7887 C.2     1  UNL1        0.2440
     48 O          -0.0676    3.6316   23.2100 O.2     1  UNL1       -0.2731
     49 O          -5.6214    3.5872   20.4741 O.3     1  UNL1       -0.3300
     50 C          -6.2460    3.5638   19.1105 C.3     1  UNL1        0.1767
     51 C          -5.1420    3.5454   18.0952 C.3     1  UNL1        0.1767
     52 O          -3.8351    3.5574   18.8312 O.3     1  UNL1       -0.3300
     53 C           0.4455    3.5868   20.6635 C.3     1  UNL1        0.1512
     54 N           0.8878    2.2790   20.0769 N.am    1  UNL1       -0.2640
     55 C           0.5750    1.9547   18.6461 C.2     1  UNL1        0.4021
     56 O          -0.1801    2.9382   17.8020 O.2     1  UNL1       -0.2264
     57 H           1.3834    1.6335   20.6310 H       1  UNL1        0.1532
     58 O           1.0172    0.6469   18.0596 O.3     1  UNL1       -0.4306
     59 C           2.4634    0.2522   18.1120 C.3     1  UNL1        0.2573
     60 C           0.9950    4.8744   20.1248 C.3     1  UNL1        0.0270
     61 C           2.4773    5.0581   19.9873 C.3     1  UNL1        0.0022
     62 C           0.0621    5.9784   19.7237 C.3     1  UNL1        0.0022
@<TRIPOS>BOND
     1    31    32    1
     2    32    27    1
     3    27    28    2
     4    27    29   am
     5    26    29    1
     6    26    19    1
     7    19    20    2
     8    19    21   am
     9    21    22    1
    10    22    23    1
    11    23    24    1
    12    24    25    1
    13    25    13    1
    14    13    14   ar
    15    14    15   ar
    16    15    16   ar
    17    16     7    1
    18     7     8   ar
    19     8     9   ar
    20     9    10   ar
    21    10     1    1
    22     1     2   ar
    23     2     3   ar
    24     3     4   ar
    25     4    36    1
    26    36    37   ar
    27    37    38   ar
    28    38    39   ar
    29    42    39    1
    30    42    43    1
    31    43    44    1
    32    44    45    1
    33    45    46    1
    34    46    47   am
    35    47    48    2
    36    47    53    1
    37    53    54    1
    38    54    55   am
    39    55    56    2
    40    55    58    1
    41    58    59    1
    42    53    60    1
    43    60    61    1
    44    60    62    1
    45    44    49    1
    46    49    50    1
    47    50    51    1
    48    51    52    1
    49    39    40   ar
    50     4     5   ar
    51     5     6   ar
    52    10    11   ar
    53    11    12   ar
    54    16    17   ar
    55    26    33    1
    56    33    34    1
    57    33    35    1
    58    25    21    1
    59    17    13   ar
    60    12     7   ar
    61     6     1   ar
    62    40    36   ar
    63    46    42    1
    64    52    44    1
    65    29    30    1
    66    54    57    1
    67    40    41    1
    68    17    18    1
@<TRIPOS>MOLECULE
*****
 62 68 0 0 0
SMALL
GASTEIGER

@<TRIPOS>ATOM
      1 C           0.5776    2.1438   27.6757 C.ar    1  UNL1        0.0000
      2 C           0.0519    3.5392   27.8394 C.ar    1  UNL1        0.0000
      3 C          -0.8282    4.1378   26.7826 C.ar    1  UNL1        0.0015
      4 C          -1.1827    3.3411   25.5620 C.ar    1  UNL1        0.0172
      5 C          -0.6570    1.9458   25.3984 C.ar    1  UNL1        0.0015
      6 C           0.2232    1.3471   26.4552 C.ar    1  UNL1        0.0000
      7 C           3.2182    0.3480   30.8463 C.ar    1  UNL1        0.0172
      8 C           3.2379    1.8281   30.6038 C.ar    1  UNL1        0.0015
      9 C           2.3577    2.4267   29.5469 C.ar    1  UNL1        0.0000
     10 C           1.4578    1.5452   28.7326 C.ar    1  UNL1        0.0000
     11 C           1.4381    0.0651   28.9752 C.ar    1  UNL1        0.0000
     12 C           2.3182   -0.5335   30.0320 C.ar    1  UNL1        0.0015
     13 C           5.6677   -0.4849   33.7397 C.ar    1  UNL1        0.1353
     14 N           5.2377   -1.8591   33.3194 N.ar    1  UNL1       -0.2279
     15 C           4.2678   -1.7144   32.1844 C.ar    1  UNL1        0.1171
     16 C           4.0983   -0.2507   31.9031 C.ar    1  UNL1        0.0769
     17 N           4.9635    0.5092   32.8645 N.ar    1  UNL1       -0.3394
     18 H           5.0534    1.4884   32.9125 H       1  UNL1        0.1671
     19 C           5.0110    1.2739   36.4089 C.2     1  UNL1        0.2439
     20 O           3.8441    1.1164   35.4798 O.2     1  UNL1       -0.2731
     21 N           6.3306    0.6471   36.0687 N.am    1  UNL1       -0.2730
     22 C           7.5800    0.7186   36.8956 C.3     1  UNL1        0.0939
     23 C           8.6540   -0.0456   36.1798 C.3     1  UNL1        0.0237
     24 C           8.0684   -0.5894   34.9104 C.3     1  UNL1        0.0293
     25 C           6.6325   -0.1613   34.8418 C.3     1  UNL1        0.1319
     26 C           4.8584    2.0583   37.6783 C.3     1  UNL1        0.1512
     27 C           2.5268    1.7341   38.7778 C.2     1  UNL1        0.4021
     28 O           1.8887    2.4828   37.6454 O.2     1  UNL1       -0.2264
     29 N           4.0116    1.5219   38.7942 N.am    1  UNL1       -0.2640
     30 H           4.4304    1.0305   39.5375 H       1  UNL1        0.1532
     31 C           1.0592   -0.1628   39.7768 C.3     1  UNL1        0.2573
     32 O           1.6800    1.1977   39.8937 O.3     1  UNL1       -0.4306
     33 C           5.5525    3.3792   37.8318 C.3     1  UNL1        0.0270
     34 C           6.1123    3.7819   39.1639 C.3     1  UNL1        0.0022
     35 C           5.6867    4.2973   36.6533 C.3     1  UNL1        0.0022
     36 C          -2.0629    3.9397   24.5052 C.ar    1  UNL1        0.0769
     37 C          -3.1899    4.9021   24.7375 C.ar    1  UNL1        0.1171
     38 N          -3.7941    5.2382   23.4064 N.ar    1  UNL1       -0.2279
     39 C          -3.0406    4.4837   22.3514 C.ar    1  UNL1        0.1355
     40 N          -1.9707    3.6812   23.0305 N.ar    1  UNL1       -0.3394
     41 H          -1.3219    3.0887   22.5864 H       1  UNL1        0.1671
     42 C          -3.3098    4.5244   20.8764 C.3     1  UNL1        0.1369
     43 C          -4.6415    4.7653   20.2295 C.3     1  UNL1        0.0855
     44 C          -4.4494    4.7212   18.7425 C.3     1  UNL1        0.2077
     45 C          -2.9988    4.4531   18.4704 C.3     1  UNL1        0.1499
     46 N          -2.2945    4.3315   19.7892 N.am    1  UNL1       -0.2680
     47 C          -0.8318    4.0639   19.9862 C.2     1  UNL1        0.2440
     48 O          -0.2669    3.9682   21.3725 O.2     1  UNL1       -0.2731
     49 O          -5.8999    4.9893   19.0147 O.3     1  UNL1       -0.3300
     50 C          -6.6041    5.1109   17.6959 C.3     1  UNL1        0.1767
     51 C          -5.5889    4.9180   16.6086 C.3     1  UNL1        0.1767
     52 O          -4.2571    4.6771   17.2555 O.3     1  UNL1       -0.3300
     53 C           0.0660    3.8919   18.7969 C.3     1  UNL1        0.1512
     54 N           0.3245    2.5216   18.2442 N.am    1  UNL1       -0.2640
     55 C           1.5022    1.7280   18.7271 C.2     1  UNL1        0.4021
     56 O           2.4215    2.3047   19.7627 O.2     1  UNL1       -0.2264
     57 H          -0.2789    2.1431   17.5645 H       1  UNL1        0.1532
     58 O           1.7607    0.3577   18.1743 O.3     1  UNL1       -0.4306
     59 C           3.1528   -0.0443   17.7866 C.3     1  UNL1        0.2573
     60 C           0.7053    5.0903   18.1603 C.3     1  UNL1        0.0270
     61 C           0.3328    5.4850   16.7620 C.3     1  UNL1        0.0022
     62 C           1.7172    5.8938   18.9221 C.3     1  UNL1        0.0022
@<TRIPOS>BOND
     1    31    32    1
     2    32    27    1
     3    27    28    2
     4    27    29   am
     5    26    29    1
     6    26    19    1
     7    19    20    2
     8    19    21   am
     9    21    22    1
    10    22    23    1
    11    23    24    1
    12    24    25    1
    13    25    13    1
    14    13    14   ar
    15    14    15   ar
    16    15    16   ar
    17    16     7    1
    18     7     8   ar
    19     8     9   ar
    20     9    10   ar
    21    10     1    1
    22     1     2   ar
    23     2     3   ar
    24     3     4   ar
    25     4    36    1
    26    36    37   ar
    27    37    38   ar
    28    38    39   ar
    29    42    39    1
    30    42    43    1
    31    43    44    1
    32    44    45    1
    33    45    46    1
    34    46    47   am
    35    47    48    2
    36    47    53    1
    37    53    54    1
    38    54    55   am
    39    55    56    2
    40    55    58    1
    41    58    59    1
    42    53    60    1
    43    60    61    1
    44    60    62    1
    45    44    49    1
    46    49    50    1
    47    50    51    1
    48    51    52    1
    49    39    40   ar
    50     4     5   ar
    51     5     6   ar
    52    10    11   ar
    53    11    12   ar
    54    16    17   ar
    55    26    33    1
    56    33    34    1
    57    33    35    1
    58    25    21    1
    59    17    13   ar
    60    12     7   ar
    61     6     1   ar
    62    40    36   ar
    63    46    42    1
    64    52    44    1
    65    29    30    1
    66    54    57    1
    67    40    41    1
    68    17    18    1
@<TRIPOS>MOLECULE
*****
 62 68 0 0 0
SMALL
GASTEIGER

@<TRIPOS>ATOM
      1 C           1.9961    5.4074   29.3972 C.ar    1  UNL1        0.0000
      2 C           3.1830    5.9758   30.1172 C.ar    1  UNL1        0.0000
      3 C           3.1322    6.1803   31.6022 C.ar    1  UNL1        0.0015
      4 C           1.8944    5.8165   32.3675 C.ar    1  UNL1        0.0172
      5 C           0.7075    5.2482   31.6476 C.ar    1  UNL1        0.0015
      6 C           0.7583    5.0436   30.1624 C.ar    1  UNL1        0.0000
      7 C           2.1488    4.7939   24.9418 C.ar    1  UNL1        0.0172
      8 C           0.8578    4.6031   25.6814 C.ar    1  UNL1        0.0015
      9 C           0.8069    4.8077   27.1665 C.ar    1  UNL1        0.0000
     10 C           2.0470    5.2029   27.9121 C.ar    1  UNL1        0.0000
     11 C           3.3380    5.3937   27.1725 C.ar    1  UNL1        0.0000
     12 C           3.3889    5.1892   25.6875 C.ar    1  UNL1        0.0015
     13 C           1.9895    3.5876   21.2561 C.ar    1  UNL1        0.1353
     14 N           2.5671    4.9616   21.0866 N.ar    1  UNL1       -0.2279
     15 C           2.6971    5.5807   22.4467 C.ar    1  UNL1        0.1171
     16 C           2.1998    4.5894   23.4568 C.ar    1  UNL1        0.0769
     17 N           1.7625    3.3576   22.7208 N.ar    1  UNL1       -0.3394
     18 H           1.3916    2.5415   23.1278 H       1  UNL1        0.1671
     19 C           3.7216    0.9179   20.5338 C.2     1  UNL1        0.2439
     20 O           4.2629    1.7014   21.6927 O.2     1  UNL1       -0.2731
     21 N           2.4874    1.3874   19.8223 N.am    1  UNL1       -0.2730
     22 C           1.8326    0.7121   18.6538 C.3     1  UNL1        0.0939
     23 C           0.6319    1.5219   18.2636 C.3     1  UNL1        0.0237
     24 C           0.5445    2.6977   19.1909 C.3     1  UNL1        0.0293
     25 C           1.6912    2.6145   20.1542 C.3     1  UNL1        0.1319
     26 C           4.4144   -0.3350   20.0866 C.3     1  UNL1        0.1512
     27 C           5.4649   -0.3362   17.7104 C.2     1  UNL1        0.4021
     28 O           4.1022   -0.5092   17.1079 O.2     1  UNL1       -0.2264
     29 N           5.6211   -0.2491   19.1996 N.am    1  UNL1       -0.2640
     30 H           6.5155   -0.1355   19.5950 H       1  UNL1        0.1532
     31 C           7.2595    1.0874   16.4844 C.3     1  UNL1        0.2573
     32 O           6.6716   -0.2503   16.8234 O.3     1  UNL1       -0.4306
     33 C           3.9006   -1.6740   20.5262 C.3     1  UNL1        0.0270
     34 C           3.8164   -2.0021   21.9875 C.3     1  UNL1        0.0022
     35 C           3.4709   -2.6848   19.5046 C.3     1  UNL1        0.0022
     36 C           1.8435    6.0210   33.8525 C.ar    1  UNL1        0.0769
     37 C           0.8364    6.8489   34.5946 C.ar    1  UNL1        0.1171
     38 N           1.1613    6.7731   36.0570 N.ar    1  UNL1       -0.2279
     39 C           2.3691    5.8984   36.2189 C.ar    1  UNL1        0.1355
     40 N           2.7907    5.4336   34.8564 N.ar    1  UNL1       -0.3394
     41 H           3.5549    4.8462   34.6563 H       1  UNL1        0.1671
     42 C           3.0379    5.5498   37.5154 C.3     1  UNL1        0.1369
     43 C           3.7960    6.4958   38.3987 C.3     1  UNL1        0.0855
     44 C           4.2927    5.7247   39.5856 C.3     1  UNL1        0.2077
     45 C           3.8415    4.3019   39.4358 C.3     1  UNL1        0.1499
     46 N           3.0660    4.1939   38.1563 N.am    1  UNL1       -0.2680
     47 C           2.4303    2.9486   37.6131 C.2     1  UNL1        0.2440
     48 O           1.6823    2.9938   36.3137 O.2     1  UNL1       -0.2731
     49 O           4.7438    7.1473   39.7354 O.3     1  UNL1       -0.3300
     50 C           5.5193    7.2554   41.0148 C.3     1  UNL1        0.1767
     51 C           5.5474    5.8995   41.6558 C.3     1  UNL1        0.1767
     52 O           4.7893    4.9534   40.7724 O.3     1  UNL1       -0.3300
     53 C           2.5425    1.6581   38.3694 C.3     1  UNL1        0.1512
     54 N           3.8154    0.8662   38.3169 N.am    1  UNL1       -0.2640
     55 C           4.3939    0.4632   36.9928 C.2     1  UNL1        0.4021
     56 O           3.6995    0.8522   35.7213 O.2     1  UNL1       -0.2264
     57 H           4.2711    0.6110   39.1514 H       1  UNL1        0.1532
     58 O           5.6668   -0.3286   36.9402 O.3     1  UNL1       -0.4306
     59 C           6.9620    0.3542   36.6144 C.3     1  UNL1        0.2573
     60 C           1.3819    1.1594   39.1783 C.3     1  UNL1        0.0270
     61 C           1.3165   -0.2825   39.5865 C.3     1  UNL1        0.0022
     62 C           0.2866    2.1027   39.5791 C.3     1  UNL1        0.0022
@<TRIPOS>BOND
     1    31    32    1
     2    32    27    1
     3    27    28    2
     4    27    29   am
     5    26    29    1
     6    26    19    1
     7    19    20    2
     8    19    21   am
     9    21    22    1
    10    22    23    1
    11    23    24    1
    12    24    25    1
    13    25    13    1
    14    13    14   ar
    15    14    15   ar
    16    15    16   ar
    17    16     7    1
    18     7     8   ar
    19     8     9   ar
    20     9    10   ar
    21    10     1    1
    22     1     2   ar
    23     2     3   ar
    24     3     4   ar
    25     4    36    1
    26    36    37   ar
    27    37    38   ar
    28    38    39   ar
    29    42    39    1
    30    42    43    1
    31    43    44    1
    32    44    45    1
    33    45    46    1
    34    46    47   am
    35    47    48    2
    36    47    53    1
    37    53    54    1
    38    54    55   am
    39    55    56    2
    40    55    58    1
    41    58    59    1
    42    53    60    1
    43    60    61    1
    44    60    62    1
    45    44    49    1
    46    49    50    1
    47    50    51    1
    48    51    52    1
    49    39    40   ar
    50     4     5   ar
    51     5     6   ar
    52    10    11   ar
    53    11    12   ar
    54    16    17   ar
    55    26    33    1
    56    33    34    1
    57    33    35    1
    58    25    21    1
    59    17    13   ar
    60    12     7   ar
    61     6     1   ar
    62    40    36   ar
    63    46    42    1
    64    52    44    1
    65    29    30    1
    66    54    57    1
    67    40    41    1
    68    17    18    1
@<TRIPOS>MOLECULE
*****
 62 68 0 0 0
SMALL
GASTEIGER

@<TRIPOS>ATOM
      1 C           0.2379    5.1643   29.8403 C.ar    1  UNL1        0.0000
      2 C           1.5075    4.5249   30.3194 C.ar    1  UNL1        0.0000
      3 C           2.0238    4.8220   31.6960 C.ar    1  UNL1        0.0015
      4 C           1.2705    5.7584   32.5937 C.ar    1  UNL1        0.0172
      5 C           0.0010    6.3977   32.1146 C.ar    1  UNL1        0.0015
      6 C          -0.5154    6.1007   30.7379 C.ar    1  UNL1        0.0000
      7 C          -1.3109    4.2729   25.7103 C.ar    1  UNL1        0.0172
      8 C          -1.7881    5.4914   26.4435 C.ar    1  UNL1        0.0015
      9 C          -1.2718    5.7885   27.8202 C.ar    1  UNL1        0.0000
     10 C          -0.2784    4.8672   28.4637 C.ar    1  UNL1        0.0000
     11 C           0.1988    3.6487   27.7305 C.ar    1  UNL1        0.0000
     12 C          -0.3174    3.3515   26.3539 C.ar    1  UNL1        0.0015
     13 C          -1.9794    3.7702   21.9202 C.ar    1  UNL1        0.1353
     14 N          -3.2633    3.2666   22.5101 N.ar    1  UNL1       -0.2279
     15 C          -3.1691    3.3936   24.0018 C.ar    1  UNL1        0.1171
     16 C          -1.8271    3.9757   24.3337 C.ar    1  UNL1        0.0769
     17 N          -1.0918    4.2085   23.0471 N.ar    1  UNL1       -0.3394
     18 H          -0.1858    4.5832   22.9580 H       1  UNL1        0.1671
     19 C           0.6385    2.4326   20.5036 C.2     1  UNL1        0.2439
     20 O           0.5670    2.2118   21.9855 O.2     1  UNL1       -0.2731
     21 N          -0.4389    3.2110   19.8085 N.am    1  UNL1       -0.2730
     22 C          -0.5022    3.5113   18.3402 C.3     1  UNL1        0.0939
     23 C          -1.7446    4.3116   18.0839 C.3     1  UNL1        0.0237
     24 C          -2.4492    4.5060   19.3937 C.3     1  UNL1        0.0293
     25 C          -1.6423    3.8259   20.4595 C.3     1  UNL1        0.1319
     26 C           1.7874    1.8751   19.7169 C.3     1  UNL1        0.1512
     27 C           2.4294   -0.6063   20.1420 C.2     1  UNL1        0.4021
     28 O           3.0965   -0.2136   21.4268 O.2     1  UNL1       -0.2264
     29 N           1.7748    0.4380   19.2871 N.am    1  UNL1       -0.2640
     30 H           1.3370    0.1802   18.4438 H       1  UNL1        0.1532
     31 C           3.7089   -2.7836   19.5316 C.3     1  UNL1        0.2573
     32 O           2.4168   -2.0434   19.7122 O.3     1  UNL1       -0.4306
     33 C           2.9490    2.7545   19.3599 C.3     1  UNL1        0.0270
     34 C           3.0398    4.1421   19.9225 C.3     1  UNL1        0.0022
     35 C           4.0196    2.2464   18.4404 C.3     1  UNL1        0.0022
     36 C           1.7868    6.0555   33.9702 C.ar    1  UNL1        0.0769
     37 C           1.5087    7.2952   34.7678 C.ar    1  UNL1        0.1171
     38 N           2.2219    7.1709   36.0815 N.ar    1  UNL1       -0.2279
     39 C           2.9408    5.8545   36.0960 C.ar    1  UNL1        0.1355
     40 N           2.6719    5.1651   34.7912 N.ar    1  UNL1       -0.3394
     41 H           3.0159    4.2831   34.5211 H       1  UNL1        0.1671
     42 C           3.7810    5.3210   37.2182 C.3     1  UNL1        0.1369
     43 C           4.9055    6.0441   37.8984 C.3     1  UNL1        0.0855
     44 C           5.4638    5.1408   38.9579 C.3     1  UNL1        0.2077
     45 C           4.6843    3.8595   38.9325 C.3     1  UNL1        0.1499
     46 N           3.6443    3.9709   37.8573 N.am    1  UNL1       -0.2680
     47 C           2.6433    2.9171   37.4863 C.2     1  UNL1        0.2440
     48 O           1.6593    3.1725   36.3833 O.2     1  UNL1       -0.2731
     49 O           6.2433    6.4222   38.9833 O.3     1  UNL1       -0.3300
     50 C           7.2833    6.3107   40.0584 C.3     1  UNL1        0.1767
     51 C           7.1466    4.9606   40.6975 C.3     1  UNL1        0.1767
     52 O           6.0221    4.2376   40.0173 O.3     1  UNL1       -0.3300
     53 C           2.6263    1.6081   38.2184 C.3     1  UNL1        0.1512
     54 N           3.7833    0.6621   38.0904 N.am    1  UNL1       -0.2640
     55 C           4.3851    0.3911   36.7433 C.2     1  UNL1        0.4021
     56 O           3.8299    1.0662   35.5243 O.2     1  UNL1       -0.2264
     57 H           4.1477    0.2190   38.8905 H       1  UNL1        0.1532
     58 O           5.5421   -0.5549   36.6153 O.3     1  UNL1       -0.4306
     59 C           6.9441   -0.0543   36.7991 C.3     1  UNL1        0.2573
     60 C           1.4522    1.2449   39.0785 C.3     1  UNL1        0.0270
     61 C           0.4154    2.2777   39.4075 C.3     1  UNL1        0.0022
     62 C           1.3150   -0.1512   39.6096 C.3     1  UNL1        0.0022
@<TRIPOS>BOND
     1    31    32    1
     2    32    27    1
     3    27    28    2
     4    27    29   am
     5    26    29    1
     6    26    19    1
     7    19    20    2
     8    19    21   am
     9    21    22    1
    10    22    23    1
    11    23    24    1
    12    24    25    1
    13    25    13    1
    14    13    14   ar
    15    14    15   ar
    16    15    16   ar
    17    16     7    1
    18     7     8   ar
    19     8     9   ar
    20     9    10   ar
    21    10     1    1
    22     1     2   ar
    23     2     3   ar
    24     3     4   ar
    25     4    36    1
    26    36    37   ar
    27    37    38   ar
    28    38    39   ar
    29    42    39    1
    30    42    43    1
    31    43    44    1
    32    44    45    1
    33    45    46    1
    34    46    47   am
    35    47    48    2
    36    47    53    1
    37    53    54    1
    38    54    55   am
    39    55    56    2
    40    55    58    1
    41    58    59    1
    42    53    60    1
    43    60    61    1
    44    60    62    1
    45    44    49    1
    46    49    50    1
    47    50    51    1
    48    51    52    1
    49    39    40   ar
    50     4     5   ar
    51     5     6   ar
    52    10    11   ar
    53    11    12   ar
    54    16    17   ar
    55    26    33    1
    56    33    34    1
    57    33    35    1
    58    25    21    1
    59    17    13   ar
    60    12     7   ar
    61     6     1   ar
    62    40    36   ar
    63    46    42    1
    64    52    44    1
    65    29    30    1
    66    54    57    1
    67    40    41    1
    68    17    18    1
