@<TRIPOS>MOLECULE
*****
 28 32 0 0 0
SMALL
GASTEIGER

@<TRIPOS>ATOM
      1 N          -7.8291  -15.4321   24.5401 N.pl3   1  UNL1       -0.3133
      2 C          -6.7474  -16.2474   23.8959 C.2     1  UNL1        0.2770
      3 N          -6.9357  -17.2515   22.7975 N.2     1  UNL1       -0.2203
      4 C          -5.5920  -17.8264   22.4597 C.3     1  UNL1        0.1539
      5 C          -4.5733  -17.1776   23.3492 C.3     1  UNL1        0.2350
      6 O          -5.2873  -16.2017   24.2369 O.2     1  UNL1       -0.4478
      7 C          -6.7182  -18.3864   21.6423 C.ar    1  UNL1        0.0355
      8 C          -8.1209  -17.9054   21.8691 C.ar    1  UNL1        0.0007
      9 C          -9.2471  -18.4654   21.0517 C.ar    1  UNL1        0.0015
     10 C          -8.9707  -19.5063   20.0077 C.ar    1  UNL1        0.0031
     11 C          -7.5681  -19.9873   19.7809 C.ar    1  UNL1        0.0366
     12 C          -6.4419  -19.4273   20.5983 C.ar    1  UNL1        0.1363
     13 O          -5.0393  -19.9082   20.3715 O.3     1  UNL1       -0.4768
     14 C          -3.9130  -19.3482   21.1889 C.3     1  UNL1        0.1975
     15 C          -2.5105  -19.8292   20.9621 C.3     1  UNL1        0.1855
     16 O          -1.3843  -19.2692   21.7794 O.3     1  UNL1       -0.3499
     17 C          -1.6606  -18.2283   22.8235 C.3     1  UNL1        0.1425
     18 C          -3.0632  -17.7474   23.0503 C.3     1  UNL1        0.0381
     19 C          -4.1894  -18.3073   22.2329 C.3     1  UNL1        0.0734
     20 H          -8.7632  -15.5333   24.2459 H       1  UNL1        0.1466
     21 H          -7.6051  -14.7958   25.2572 H       1  UNL1        0.1466
     22 C         -10.6496  -17.9845   21.2785 C.ar    1  UNL1        0.0200
     23 C         -11.3431  -17.1714   20.2259 C.ar    1  UNL1        0.0989
     24 N         -12.7458  -16.6905   20.4527 N.ar    1  UNL1       -0.2414
     25 C         -13.4549  -17.0226   21.7321 C.ar    1  UNL1        0.1102
     26 C         -12.7614  -17.8356   22.7847 C.ar    1  UNL1        0.0768
     27 CL        -13.4704  -18.1677   24.0641 Cl      1  UNL1       -0.0806
     28 C         -11.3588  -18.3166   22.5579 C.ar    1  UNL1        0.0145
@<TRIPOS>BOND
     1     1     2    1
     2     2     3    2
     3     3     4    1
     4     4     5    1
     5     5     6    1
     6     4     7    1
     7     7     8   ar
     8     8     9   ar
     9     9    22    1
    10    22    23   ar
    11    23    24   ar
    12    24    25   ar
    13    25    26   ar
    14    26    27    1
    15    26    28   ar
    16     9    10   ar
    17    10    11   ar
    18    11    12   ar
    19    12    13    1
    20    13    14    1
    21    14    15    1
    22    15    16    1
    23    16    17    1
    24    17    18    1
    25    19    18    1
    26     6     2    1
    27    12     7   ar
    28    19    14    1
    29    19     4    1
    30    28    22   ar
    31     1    20    1
    32     1    21    1
@<TRIPOS>MOLECULE
*****
 28 32 0 0 0
SMALL
GASTEIGER

@<TRIPOS>ATOM
      1 N          -5.6541  -15.6310   23.7154 N.pl3   1  UNL1       -0.3133
      2 C          -7.0122  -16.1277   23.3171 C.2     1  UNL1        0.2770
      3 N          -7.2962  -17.2370   22.3482 N.2     1  UNL1       -0.2203
      4 C          -8.7844  -17.3972   22.2500 C.3     1  UNL1        0.1539
      5 C          -9.4202  -16.3869   23.1583 C.3     1  UNL1        0.2350
      6 O          -8.3250  -15.6022   23.8178 O.2     1  UNL1       -0.4478
      7 C          -8.0101  -18.3501   21.3884 C.ar    1  UNL1        0.0355
      8 C          -6.5106  -18.3073   21.3828 C.ar    1  UNL1        0.0007
      9 C          -5.7363  -19.2601   20.5212 C.ar    1  UNL1        0.0015
     10 C          -6.4614  -20.2558   19.6651 C.ar    1  UNL1        0.0031
     11 C          -7.9607  -20.2986   19.6706 C.ar    1  UNL1        0.0366
     12 C          -8.7351  -19.3457   20.5323 C.ar    1  UNL1        0.1363
     13 O         -10.2345  -19.3886   20.5378 O.3     1  UNL1       -0.4768
     14 C         -11.0088  -18.4357   21.3995 C.3     1  UNL1        0.1975
     15 C         -12.5082  -18.4785   21.4050 C.3     1  UNL1        0.1855
     16 O         -13.2825  -17.5256   22.2667 O.3     1  UNL1       -0.3499
     17 C         -12.5574  -16.5299   23.1228 C.3     1  UNL1        0.1425
     18 C         -11.0581  -16.4871   23.1172 C.3     1  UNL1        0.0381
     19 C         -10.2838  -17.4400   22.2556 C.3     1  UNL1        0.0734
     20 H          -4.8469  -16.0423   23.3298 H       1  UNL1        0.1466
     21 H          -5.5697  -14.8937   24.3623 H       1  UNL1        0.1466
     22 C          -4.2370  -19.2173   20.5156 C.ar    1  UNL1        0.0200
     23 C          -3.4629  -19.9084   21.5988 C.ar    1  UNL1        0.0989
     24 N          -1.9635  -19.8655   21.5932 N.ar    1  UNL1       -0.2414
     25 C          -1.2382  -19.1316   20.5045 C.ar    1  UNL1        0.1102
     26 C          -2.0123  -18.4405   19.4214 C.ar    1  UNL1        0.0768
     27 CL         -1.2870  -17.7066   18.3327 Cl      1  UNL1       -0.0806
     28 C          -3.5116  -18.4833   19.4269 C.ar    1  UNL1        0.0145
@<TRIPOS>BOND
     1     1     2    1
     2     2     3    2
     3     3     4    1
     4     4     5    1
     5     5     6    1
     6     4     7    1
     7     7     8   ar
     8     8     9   ar
     9     9    22    1
    10    22    23   ar
    11    23    24   ar
    12    24    25   ar
    13    25    26   ar
    14    26    27    1
    15    26    28   ar
    16     9    10   ar
    17    10    11   ar
    18    11    12   ar
    19    12    13    1
    20    13    14    1
    21    14    15    1
    22    15    16    1
    23    16    17    1
    24    17    18    1
    25    19    18    1
    26     6     2    1
    27    12     7   ar
    28    19    14    1
    29    19     4    1
    30    28    22   ar
    31     1    20    1
    32     1    21    1
@<TRIPOS>MOLECULE
*****
 28 32 0 0 0
SMALL
GASTEIGER

@<TRIPOS>ATOM
      1 N          -6.0105  -15.8774   24.9328 N.pl3   1  UNL1       -0.3133
      2 C          -5.1354  -16.4269   23.8454 C.2     1  UNL1        0.2770
      3 N          -5.5361  -17.4488   22.8232 N.2     1  UNL1       -0.2203
      4 C          -4.3544  -17.7044   21.9353 C.3     1  UNL1        0.1539
      5 C          -3.2234  -16.8404   22.4089 C.3     1  UNL1        0.2350
      6 O          -3.7061  -16.0508   23.5894 O.2     1  UNL1       -0.4478
      7 C          -5.5706  -18.5063   21.5780 C.ar    1  UNL1        0.0355
      8 C          -6.8301  -18.3558   22.3788 C.ar    1  UNL1        0.0007
      9 C          -8.0464  -19.1577   22.0215 C.ar    1  UNL1        0.0015
     10 C          -8.0032  -20.1100   20.8634 C.ar    1  UNL1        0.0031
     11 C          -6.7439  -20.2606   20.0627 C.ar    1  UNL1        0.0366
     12 C          -5.5275  -19.4587   20.4199 C.ar    1  UNL1        0.1363
     13 O          -4.2681  -19.6092   19.6192 O.3     1  UNL1       -0.4768
     14 C          -3.0518  -18.8073   19.9765 C.3     1  UNL1        0.1975
     15 C          -1.7924  -18.9578   19.1757 C.3     1  UNL1        0.1855
     16 O          -0.5762  -18.1559   19.5330 O.3     1  UNL1       -0.3499
     17 C          -0.6193  -17.2035   20.6910 C.3     1  UNL1        0.1425
     18 C          -1.8787  -17.0530   21.4918 C.3     1  UNL1        0.0381
     19 C          -3.0949  -17.8549   21.1345 C.3     1  UNL1        0.0734
     20 H          -6.9405  -16.1883   25.0205 H       1  UNL1        0.1466
     21 H          -5.6548  -15.2060   25.5588 H       1  UNL1        0.1466
     22 C          -9.3057  -19.0071   22.8223 C.ar    1  UNL1        0.0200
     23 C          -9.5291  -19.8597   24.0361 C.ar    1  UNL1        0.0989
     24 N         -10.7886  -19.7091   24.8368 N.ar    1  UNL1       -0.2414
     25 C         -11.8246  -18.7061   24.4238 C.ar    1  UNL1        0.1102
     26 C         -11.6011  -17.8535   23.2100 C.ar    1  UNL1        0.0768
     27 CL        -12.6371  -16.8505   22.7970 Cl      1  UNL1       -0.0806
     28 C         -10.3418  -18.0041   22.4093 C.ar    1  UNL1        0.0145
@<TRIPOS>BOND
     1     1     2    1
     2     2     3    2
     3     3     4    1
     4     4     5    1
     5     5     6    1
     6     4     7    1
     7     7     8   ar
     8     8     9   ar
     9     9    22    1
    10    22    23   ar
    11    23    24   ar
    12    24    25   ar
    13    25    26   ar
    14    26    27    1
    15    26    28   ar
    16     9    10   ar
    17    10    11   ar
    18    11    12   ar
    19    12    13    1
    20    13    14    1
    21    14    15    1
    22    15    16    1
    23    16    17    1
    24    17    18    1
    25    19    18    1
    26     6     2    1
    27    12     7   ar
    28    19    14    1
    29    19     4    1
    30    28    22   ar
    31     1    20    1
    32     1    21    1
@<TRIPOS>MOLECULE
*****
 28 32 0 0 0
SMALL
GASTEIGER

@<TRIPOS>ATOM
      1 N         -16.3365   -3.9101   20.5195 N.pl3   1  UNL1       -0.3133
      2 C         -15.1480   -3.4947   19.7041 C.2     1  UNL1        0.2770
      3 N         -14.3451   -4.3825   18.8001 N.2     1  UNL1       -0.2203
      4 C         -13.2546   -3.5552   18.1868 C.3     1  UNL1        0.1539
      5 C         -13.3835   -2.1559   18.7117 C.3     1  UNL1        0.2350
      6 O         -14.5537   -2.1185   19.6494 O.2     1  UNL1       -0.4478
      7 C         -13.2506   -4.9901   17.7500 C.ar    1  UNL1        0.0355
      8 C         -14.2840   -5.9388   18.2815 C.ar    1  UNL1        0.0007
      9 C         -14.2800   -7.3737   17.8447 C.ar    1  UNL1        0.0015
     10 C         -13.2427   -7.8601   16.8765 C.ar    1  UNL1        0.0031
     11 C         -12.2094   -6.9116   16.3451 C.ar    1  UNL1        0.0366
     12 C         -12.2134   -5.4766   16.7818 C.ar    1  UNL1        0.1363
     13 O         -11.1800   -4.5280   16.2504 O.3     1  UNL1       -0.4768
     14 C         -11.1840   -3.0930   16.6871 C.3     1  UNL1        0.1975
     15 C         -10.1507   -2.1444   16.1557 C.3     1  UNL1        0.1855
     16 O         -10.1546   -0.7095   16.5925 O.3     1  UNL1       -0.3499
     17 C         -11.1919   -0.2230   17.5607 C.3     1  UNL1        0.1425
     18 C         -12.2252   -1.1716   18.0921 C.3     1  UNL1        0.0381
     19 C         -12.2213   -2.6065   17.6554 C.3     1  UNL1        0.0734
     20 H         -16.6533   -4.8417   20.4887 H       1  UNL1        0.1466
     21 H         -16.7998   -3.2511   21.0854 H       1  UNL1        0.1466
     22 C         -15.3134   -8.3223   18.3762 C.ar    1  UNL1        0.0200
     23 C         -15.2261   -9.7844   18.0530 C.ar    1  UNL1        0.0989
     24 N         -16.2595  -10.7330   18.5845 N.ar    1  UNL1       -0.2414
     25 C         -17.3801  -10.2193   19.4391 C.ar    1  UNL1        0.1102
     26 C         -17.4673   -8.7572   19.7623 C.ar    1  UNL1        0.0768
     27 CL        -18.5879   -8.2436   20.6170 Cl      1  UNL1       -0.0806
     28 C         -16.4340   -7.8086   19.2309 C.ar    1  UNL1        0.0145
@<TRIPOS>BOND
     1     1     2    1
     2     2     3    2
     3     3     4    1
     4     4     5    1
     5     5     6    1
     6     4     7    1
     7     7     8   ar
     8     8     9   ar
     9     9    22    1
    10    22    23   ar
    11    23    24   ar
    12    24    25   ar
    13    25    26   ar
    14    26    27    1
    15    26    28   ar
    16     9    10   ar
    17    10    11   ar
    18    11    12   ar
    19    12    13    1
    20    13    14    1
    21    14    15    1
    22    15    16    1
    23    16    17    1
    24    17    18    1
    25    19    18    1
    26     6     2    1
    27    12     7   ar
    28    19    14    1
    29    19     4    1
    30    28    22   ar
    31     1    20    1
    32     1    21    1
@<TRIPOS>MOLECULE
*****
 28 32 0 0 0
SMALL
GASTEIGER

@<TRIPOS>ATOM
      1 N         -16.4459   -3.7567   20.5486 N.pl3   1  UNL1       -0.3133
      2 C         -15.0939   -4.1228   20.0121 C.2     1  UNL1        0.2770
      3 N         -14.1139   -3.1826   19.3752 N.2     1  UNL1       -0.2203
      4 C         -12.8987   -3.9721   18.9877 C.3     1  UNL1        0.1539
      5 C         -13.1277   -5.4002   19.3852 C.3     1  UNL1        0.2350
      6 O         -14.4843   -5.4934   20.0183 O.2     1  UNL1       -0.4478
      7 C         -12.8124   -2.5135   18.6485 C.ar    1  UNL1        0.0355
      8 C         -13.9545   -1.5982   18.9770 C.ar    1  UNL1        0.0007
      9 C         -13.8681   -0.1396   18.6378 C.ar    1  UNL1        0.0015
     10 C         -12.6397    0.4037   17.9701 C.ar    1  UNL1        0.0031
     11 C         -11.4976   -0.5116   17.6416 C.ar    1  UNL1        0.0366
     12 C         -11.5839   -1.9702   17.9808 C.ar    1  UNL1        0.1363
     13 O         -10.4419   -2.8855   17.6524 O.3     1  UNL1       -0.4768
     14 C         -10.5282   -4.3441   17.9916 C.3     1  UNL1        0.1975
     15 C          -9.3861   -5.2594   17.6631 C.3     1  UNL1        0.1855
     16 O          -9.4725   -6.7179   18.0023 O.3     1  UNL1       -0.3499
     17 C         -10.7009   -7.2612   18.6700 C.3     1  UNL1        0.1425
     18 C         -11.8430   -6.3460   18.9985 C.3     1  UNL1        0.0381
     19 C         -11.7566   -4.8874   18.6593 C.3     1  UNL1        0.0734
     20 H         -16.7595   -2.8248   20.4987 H       1  UNL1        0.1466
     21 H         -17.0198   -4.4484   20.9506 H       1  UNL1        0.1466
     22 C         -15.0102    0.7756   18.9662 C.ar    1  UNL1        0.0200
     23 C         -14.9801    2.2051   18.5127 C.ar    1  UNL1        0.0989
     24 N         -16.1222    3.1204   18.8412 N.ar    1  UNL1       -0.2414
     25 C         -17.2944    2.6062   19.6232 C.ar    1  UNL1        0.1102
     26 C         -17.3245    1.1767   20.0767 C.ar    1  UNL1        0.0768
     27 CL        -18.4966    0.6625   20.8588 Cl      1  UNL1       -0.0806
     28 C         -16.1824    0.2615   19.7483 C.ar    1  UNL1        0.0145
@<TRIPOS>BOND
     1     1     2    1
     2     2     3    2
     3     3     4    1
     4     4     5    1
     5     5     6    1
     6     4     7    1
     7     7     8   ar
     8     8     9   ar
     9     9    22    1
    10    22    23   ar
    11    23    24   ar
    12    24    25   ar
    13    25    26   ar
    14    26    27    1
    15    26    28   ar
    16     9    10   ar
    17    10    11   ar
    18    11    12   ar
    19    12    13    1
    20    13    14    1
    21    14    15    1
    22    15    16    1
    23    16    17    1
    24    17    18    1
    25    19    18    1
    26     6     2    1
    27    12     7   ar
    28    19    14    1
    29    19     4    1
    30    28    22   ar
    31     1    20    1
    32     1    21    1
@<TRIPOS>MOLECULE
*****
 28 32 0 0 0
SMALL
GASTEIGER

@<TRIPOS>ATOM
      1 N          -0.9732    2.2308   20.7339 N.pl3   1  UNL1       -0.3133
      2 C           0.2226    1.4614   20.2564 C.2     1  UNL1        0.2770
      3 N           1.2675    0.8269   21.1257 N.2     1  UNL1       -0.2203
      4 C           2.2742    0.1648   20.2323 C.3     1  UNL1        0.1539
      5 C           1.8515    0.3901   18.8108 C.3     1  UNL1        0.2350
      6 O           0.5836    1.1915   18.8257 O.2     1  UNL1       -0.4478
      7 C           2.5695    0.0211   21.6958 C.ar    1  UNL1        0.0355
      8 C           1.6490    0.6323   22.7103 C.ar    1  UNL1        0.0007
      9 C           1.9443    0.4886   24.1739 C.ar    1  UNL1        0.0015
     10 C           3.1602   -0.2662   24.6231 C.ar    1  UNL1        0.0031
     11 C           4.0807   -0.8775   23.6087 C.ar    1  UNL1        0.0366
     12 C           3.7854   -0.7338   22.1450 C.ar    1  UNL1        0.1363
     13 O           4.7060   -1.3450   21.1307 O.3     1  UNL1       -0.4768
     14 C           4.4106   -1.2013   19.6670 C.3     1  UNL1        0.1975
     15 C           5.3312   -1.8125   18.6526 C.3     1  UNL1        0.1855
     16 O           5.0358   -1.6688   17.1891 O.3     1  UNL1       -0.3499
     17 C           3.8199   -0.9140   16.7399 C.3     1  UNL1        0.1425
     18 C           2.8994   -0.3028   17.7542 C.3     1  UNL1        0.0381
     19 C           3.1947   -0.4464   19.2178 C.3     1  UNL1        0.0734
     20 H          -1.1254    2.3552   21.6986 H       1  UNL1        0.1466
     21 H          -1.6059    2.6114   20.0827 H       1  UNL1        0.1466
     22 C           1.0238    1.0998   25.1883 C.ar    1  UNL1        0.0200
     23 C           1.3222    0.9611   26.6517 C.ar    1  UNL1        0.0989
     24 N           0.4016    1.5724   27.6661 N.ar    1  UNL1       -0.2414
     25 C          -0.8174    2.3223   27.2170 C.ar    1  UNL1        0.1102
     26 C          -1.1158    2.4610   25.7536 C.ar    1  UNL1        0.0768
     27 CL         -2.3348    3.2109   25.3045 Cl      1  UNL1       -0.0806
     28 C          -0.1953    1.8498   24.7392 C.ar    1  UNL1        0.0145
@<TRIPOS>BOND
     1     1     2    1
     2     2     3    2
     3     3     4    1
     4     4     5    1
     5     5     6    1
     6     4     7    1
     7     7     8   ar
     8     8     9   ar
     9     9    22    1
    10    22    23   ar
    11    23    24   ar
    12    24    25   ar
    13    25    26   ar
    14    26    27    1
    15    26    28   ar
    16     9    10   ar
    17    10    11   ar
    18    11    12   ar
    19    12    13    1
    20    13    14    1
    21    14    15    1
    22    15    16    1
    23    16    17    1
    24    17    18    1
    25    19    18    1
    26     6     2    1
    27    12     7   ar
    28    19    14    1
    29    19     4    1
    30    28    22   ar
    31     1    20    1
    32     1    21    1
@<TRIPOS>MOLECULE
*****
 28 32 0 0 0
SMALL
GASTEIGER

@<TRIPOS>ATOM
      1 N         -10.3627   -1.5614   17.0716 N.pl3   1  UNL1       -0.3133
      2 C         -11.6502   -1.0273   17.6256 C.2     1  UNL1        0.2770
      3 N         -12.7850   -1.8465   18.1653 N.2     1  UNL1       -0.2203
      4 C         -13.8652   -0.9058   18.6104 C.3     1  UNL1        0.1539
      5 C         -13.3981    0.4948   18.3457 C.3     1  UNL1        0.2350
      6 O         -12.0292    0.4198   17.7371 O.2     1  UNL1       -0.4478
      7 C         -14.1952   -2.3545   18.8157 C.ar    1  UNL1        0.0355
      8 C         -13.2088   -3.4122   18.4172 C.ar    1  UNL1        0.0007
      9 C         -13.5388   -4.8609   18.6225 C.ar    1  UNL1        0.0015
     10 C         -14.8550   -5.2522   19.2262 C.ar    1  UNL1        0.0031
     11 C         -15.8413   -4.1946   19.6247 C.ar    1  UNL1        0.0366
     12 C         -15.5114   -2.7458   19.4194 C.ar    1  UNL1        0.1363
     13 O         -16.4977   -1.6882   19.8178 O.3     1  UNL1       -0.4768
     14 C         -16.1678   -0.2394   19.6125 C.3     1  UNL1        0.1975
     15 C         -17.1541    0.8182   20.0110 C.3     1  UNL1        0.1855
     16 O         -16.8241    2.2669   19.8057 O.3     1  UNL1       -0.3499
     17 C         -15.5079    2.6581   19.2020 C.3     1  UNL1        0.1425
     18 C         -14.5216    1.6006   18.8035 C.3     1  UNL1        0.0381
     19 C         -14.8515    0.1518   19.0088 C.3     1  UNL1        0.0734
     20 H         -10.2056   -2.5327   17.0402 H       1  UNL1        0.1466
     21 H          -9.6746   -0.9405   16.7394 H       1  UNL1        0.1466
     22 C         -12.5525   -5.9185   18.2241 C.ar    1  UNL1        0.0200
     23 C         -12.8482   -6.8204   17.0625 C.ar    1  UNL1        0.0989
     24 N         -11.8618   -7.8780   16.6641 N.ar    1  UNL1       -0.2414
     25 C         -10.5798   -8.0336   17.4272 C.ar    1  UNL1        0.1102
     26 C         -10.2842   -7.1317   18.5887 C.ar    1  UNL1        0.0768
     27 CL         -9.0022   -7.2873   19.3518 Cl      1  UNL1       -0.0806
     28 C         -11.2705   -6.0741   18.9871 C.ar    1  UNL1        0.0145
@<TRIPOS>BOND
     1     1     2    1
     2     2     3    2
     3     3     4    1
     4     4     5    1
     5     5     6    1
     6     4     7    1
     7     7     8   ar
     8     8     9   ar
     9     9    22    1
    10    22    23   ar
    11    23    24   ar
    12    24    25   ar
    13    25    26   ar
    14    26    27    1
    15    26    28   ar
    16     9    10   ar
    17    10    11   ar
    18    11    12   ar
    19    12    13    1
    20    13    14    1
    21    14    15    1
    22    15    16    1
    23    16    17    1
    24    17    18    1
    25    19    18    1
    26     6     2    1
    27    12     7   ar
    28    19    14    1
    29    19     4    1
    30    28    22   ar
    31     1    20    1
    32     1    21    1
@<TRIPOS>MOLECULE
*****
 28 32 0 0 0
SMALL
GASTEIGER

@<TRIPOS>ATOM
      1 N           4.3584   -2.0390   25.4450 N.pl3   1  UNL1       -0.3133
      2 C           4.3302   -1.9467   23.9481 C.2     1  UNL1        0.2770
      3 N           3.4244   -1.0694   23.1357 N.2     1  UNL1       -0.2203
      4 C           3.7372   -1.2960   21.6863 C.3     1  UNL1        0.1539
      5 C           4.8363   -2.3133   21.6029 C.3     1  UNL1        0.2350
      6 O           5.2028   -2.7155   23.0007 O.2     1  UNL1       -0.4478
      7 C           2.6471   -0.2938   21.9257 C.ar    1  UNL1        0.0355
      8 C           2.2258    0.0357   23.3272 C.ar    1  UNL1        0.0007
      9 C           1.1357    1.0378   23.5666 C.ar    1  UNL1        0.0015
     10 C           0.4669    1.7104   22.4047 C.ar    1  UNL1        0.0031
     11 C           0.8881    1.3810   21.0033 C.ar    1  UNL1        0.0366
     12 C           1.9783    0.3788   20.7638 C.ar    1  UNL1        0.1363
     13 O           2.3995    0.0494   19.3624 O.3     1  UNL1       -0.4768
     14 C           3.4897   -0.9528   19.1229 C.3     1  UNL1        0.1975
     15 C           3.9109   -1.2822   17.7215 C.3     1  UNL1        0.1855
     16 O           5.0011   -2.2843   17.4821 O.3     1  UNL1       -0.3499
     17 C           5.6699   -2.9570   18.6440 C.3     1  UNL1        0.1425
     18 C           5.2487   -2.6276   20.0454 C.3     1  UNL1        0.0381
     19 C           4.1585   -1.6255   20.2848 C.3     1  UNL1        0.0734
     20 H           3.7429   -1.4910   25.9836 H       1  UNL1        0.1466
     21 H           4.9924   -2.6475   25.8888 H       1  UNL1        0.1466
     22 C           0.7145    1.3672   24.9680 C.ar    1  UNL1        0.0200
     23 C           1.5779    0.9618   26.1257 C.ar    1  UNL1        0.0989
     24 N           1.1566    1.2913   27.5271 N.ar    1  UNL1       -0.2414
     25 C          -0.1281    2.0261   27.7709 C.ar    1  UNL1        0.1102
     26 C          -0.9916    2.4315   26.6133 C.ar    1  UNL1        0.0768
     27 CL         -2.2763    3.1664   26.8570 Cl      1  UNL1       -0.0806
     28 C          -0.5703    2.1021   25.2119 C.ar    1  UNL1        0.0145
@<TRIPOS>BOND
     1     1     2    1
     2     2     3    2
     3     3     4    1
     4     4     5    1
     5     5     6    1
     6     4     7    1
     7     7     8   ar
     8     8     9   ar
     9     9    22    1
    10    22    23   ar
    11    23    24   ar
    12    24    25   ar
    13    25    26   ar
    14    26    27    1
    15    26    28   ar
    16     9    10   ar
    17    10    11   ar
    18    11    12   ar
    19    12    13    1
    20    13    14    1
    21    14    15    1
    22    15    16    1
    23    16    17    1
    24    17    18    1
    25    19    18    1
    26     6     2    1
    27    12     7   ar
    28    19    14    1
    29    19     4    1
    30    28    22   ar
    31     1    20    1
    32     1    21    1
@<TRIPOS>MOLECULE
*****
 28 32 0 0 0
SMALL
GASTEIGER

@<TRIPOS>ATOM
      1 N           3.5371   -1.0755   26.1422 N.pl3   1  UNL1       -0.3133
      2 C           3.7281   -1.4137   24.6934 C.2     1  UNL1        0.2770
      3 N           2.9862   -0.8048   23.5407 N.2     1  UNL1       -0.2203
      4 C           3.4940   -1.4349   22.2777 C.3     1  UNL1        0.1539
      5 C           4.5498   -2.4333   22.6500 C.3     1  UNL1        0.2350
      6 O           4.6945   -2.4202   24.1429 O.2     1  UNL1       -0.4478
      7 C           2.4241   -0.4067   22.0590 C.ar    1  UNL1        0.0355
      8 C           1.8202    0.3084   23.2312 C.ar    1  UNL1        0.0007
      9 C           0.7502    1.3366   23.0125 C.ar    1  UNL1        0.0015
     10 C           0.2841    1.6499   21.6216 C.ar    1  UNL1        0.0031
     11 C           0.8880    0.9349   20.4494 C.ar    1  UNL1        0.0366
     12 C           1.9580   -0.0934   20.6681 C.ar    1  UNL1        0.1363
     13 O           2.5618   -0.8084   19.4959 O.3     1  UNL1       -0.4768
     14 C           3.6319   -1.8367   19.7146 C.3     1  UNL1        0.1975
     15 C           4.2357   -2.5518   18.5424 C.3     1  UNL1        0.1855
     16 O           5.3057   -3.5800   18.7611 O.3     1  UNL1       -0.3499
     17 C           5.7717   -3.8932   20.1520 C.3     1  UNL1        0.1425
     18 C           5.1679   -3.1782   21.3242 C.3     1  UNL1        0.0381
     19 C           4.0979   -2.1500   21.1055 C.3     1  UNL1        0.0734
     20 H           2.8743   -0.3970   26.4061 H       1  UNL1        0.1466
     21 H           4.0745   -1.5320   26.8293 H       1  UNL1        0.1466
     22 C           0.1464    2.0517   24.1847 C.ar    1  UNL1        0.0200
     23 C          -0.1747    3.5137   24.0873 C.ar    1  UNL1        0.0989
     24 N          -0.7785    4.2287   25.2596 N.ar    1  UNL1       -0.2414
     25 C          -1.0614    3.4817   26.5292 C.ar    1  UNL1        0.1102
     26 C          -0.7404    2.0197   26.6266 C.ar    1  UNL1        0.0768
     27 CL         -1.0232    1.2727   27.8962 Cl      1  UNL1       -0.0806
     28 C          -0.1365    1.3047   25.4544 C.ar    1  UNL1        0.0145
@<TRIPOS>BOND
     1     1     2    1
     2     2     3    2
     3     3     4    1
     4     4     5    1
     5     5     6    1
     6     4     7    1
     7     7     8   ar
     8     8     9   ar
     9     9    22    1
    10    22    23   ar
    11    23    24   ar
    12    24    25   ar
    13    25    26   ar
    14    26    27    1
    15    26    28   ar
    16     9    10   ar
    17    10    11   ar
    18    11    12   ar
    19    12    13    1
    20    13    14    1
    21    14    15    1
    22    15    16    1
    23    16    17    1
    24    17    18    1
    25    19    18    1
    26     6     2    1
    27    12     7   ar
    28    19    14    1
    29    19     4    1
    30    28    22   ar
    31     1    20    1
    32     1    21    1
