@<TRIPOS>MOLECULE
*****
 24 26 0 0 0
SMALL
GASTEIGER

@<TRIPOS>ATOM
      1 C         -10.5946  -18.8808   21.3284 C.ar    1  UNL1       -0.0001
      2 C         -10.6814  -19.6587   20.0489 C.ar    1  UNL1       -0.0003
      3 C          -9.4304  -20.0195   19.3041 C.ar    1  UNL1       -0.0029
      4 C          -8.0925  -19.6024   19.8389 C.ar    1  UNL1       -0.0047
      5 C          -8.0057  -18.8245   21.1184 C.ar    1  UNL1       -0.0047
      6 C          -9.2567  -18.4637   21.8632 C.ar    1  UNL1       -0.0029
      7 C          -6.5572  -18.5531   21.3986 C.3     1  UNL1        0.1202
      8 N          -5.7489  -19.1634   20.2922 N.am    1  UNL1       -0.2713
      9 C          -4.2541  -19.1309   20.1709 C.2     1  UNL1        0.2256
     10 O          -3.5820  -19.7884   19.0022 O.2     1  UNL1       -0.2749
     11 C          -6.6977  -19.8119   19.3283 C.3     1  UNL1        0.1202
     12 C          -3.4315  -18.4409   21.2185 C.3     1  UNL1        0.0767
     13 C          -2.4262  -17.3545   20.9758 C.3     1  UNL1        0.0091
     14 C          -1.8432  -16.9583   22.2999 C.3     1  UNL1        0.0005
     15 C          -2.4883  -17.7999   23.3608 C.3     1  UNL1        0.0005
     16 C          -3.4700  -18.7163   22.6925 C.3     1  UNL1        0.0091
     17 C         -11.9030  -18.6773   23.5638 C.2     1  UNL1        0.0598
     18 C         -11.8457  -18.5200   22.0732 C.2     1  UNL1        0.0047
     19 O         -14.1607  -17.3973   23.6827 O.2     1  UNL1       -0.2681
     20 C         -13.1540  -18.3165   24.3085 C.2     1  UNL1        0.2679
     21 N         -13.3984  -18.8749   25.6791 N.am    1  UNL1       -0.1934
     22 O         -14.6495  -18.5141   26.4239 O.3     1  UNL1       -0.2949
     23 H         -12.7377  -19.4783   26.0898 H       1  UNL1        0.1825
     24 H         -15.1874  -17.9162   25.8817 H       1  UNL1        0.2414
@<TRIPOS>BOND
     1    19    20    2
     2    20    17    1
     3    17    18    2
     4    18     1    1
     5     1     2   ar
     6     2     3   ar
     7     3     4   ar
     8     4     5   ar
     9     5     6   ar
    10     5     7    1
    11     7     8    1
    12     8     9   am
    13     9    10    2
    14     9    12    1
    15    12    13    1
    16    13    14    1
    17    14    15    1
    18    15    16    1
    19     8    11    1
    20    20    21   am
    21    21    22    1
    22     6     1   ar
    23    16    12    1
    24    11     4    1
    25    21    23    1
    26    22    24    1
@<TRIPOS>MOLECULE
*****
 24 26 0 0 0
SMALL
GASTEIGER

@<TRIPOS>ATOM
      1 C         -12.3849   -2.8806   18.8150 C.ar    1  UNL1       -0.0001
      2 C         -11.1474   -3.7100   18.6397 C.ar    1  UNL1       -0.0003
      3 C         -11.2500   -5.2048   18.5697 C.ar    1  UNL1       -0.0029
      4 C         -12.5902   -5.8703   18.6750 C.ar    1  UNL1       -0.0047
      5 C         -13.8276   -5.0409   18.8504 C.ar    1  UNL1       -0.0047
      6 C         -13.7250   -3.5461   18.9204 C.ar    1  UNL1       -0.0029
      7 C         -15.0024   -5.9709   18.9240 C.3     1  UNL1        0.1202
      8 N         -14.4908   -7.3750   18.7941 N.am    1  UNL1       -0.2713
      9 C         -15.3238   -8.6223   18.8146 C.2     1  UNL1        0.2256
     10 O         -14.6686   -9.9641   18.6729 O.2     1  UNL1       -0.2749
     11 C         -13.0000   -7.3128   18.6403 C.3     1  UNL1        0.1202
     12 C         -16.8121   -8.5277   18.9766 C.3     1  UNL1        0.0767
     13 C         -17.5433   -8.2414   20.2546 C.3     1  UNL1        0.0091
     14 C         -19.0135   -8.2395   19.9570 C.3     1  UNL1        0.0005
     15 C         -19.1908   -8.5247   18.4951 C.3     1  UNL1        0.0005
     16 C         -17.8302   -8.7028   17.8891 C.3     1  UNL1        0.0091
     17 C         -12.9867   -0.5372   17.8684 C.2     1  UNL1        0.0598
     18 C         -12.2822   -1.3858   18.8850 C.2     1  UNL1        0.0047
     19 O         -13.7415    1.7240   18.9013 O.2     1  UNL1       -0.2681
     20 C         -12.8840    0.9577   17.9384 C.2     1  UNL1        0.2679
     21 N         -11.9238    1.6861   17.0453 N.am    1  UNL1       -0.1934
     22 O         -11.8212    3.1810   17.1153 O.3     1  UNL1       -0.2949
     23 H         -11.3611    1.1831   16.4132 H       1  UNL1        0.1825
     24 H         -12.4389    3.5165   17.7837 H       1  UNL1        0.2414
@<TRIPOS>BOND
     1    19    20    2
     2    20    17    1
     3    17    18    2
     4    18     1    1
     5     1     2   ar
     6     2     3   ar
     7     3     4   ar
     8     4     5   ar
     9     5     6   ar
    10     5     7    1
    11     7     8    1
    12     8     9   am
    13     9    10    2
    14     9    12    1
    15    12    13    1
    16    13    14    1
    17    14    15    1
    18    15    16    1
    19     8    11    1
    20    20    21   am
    21    21    22    1
    22     6     1   ar
    23    16    12    1
    24    11     4    1
    25    21    23    1
    26    22    24    1
@<TRIPOS>MOLECULE
*****
 24 26 0 0 0
SMALL
GASTEIGER

@<TRIPOS>ATOM
      1 C          -9.6051  -16.4956   23.8650 C.ar    1  UNL1       -0.0001
      2 C          -9.0357  -15.5811   24.9087 C.ar    1  UNL1       -0.0003
      3 C          -7.5495  -15.4266   25.0404 C.ar    1  UNL1       -0.0029
      4 C          -6.6327  -16.1867   24.1284 C.ar    1  UNL1       -0.0047
      5 C          -7.2022  -17.1012   23.0846 C.ar    1  UNL1       -0.0047
      6 C          -8.6884  -17.2557   22.9529 C.ar    1  UNL1       -0.0029
      7 C          -6.0586  -17.7164   22.3336 C.3     1  UNL1        0.1202
      8 N          -4.7825  -17.1820   22.9132 N.am    1  UNL1       -0.2713
      9 C          -3.3951  -17.5316   22.4626 C.2     1  UNL1        0.2256
     10 O          -2.2083  -16.9145   23.1413 O.2     1  UNL1       -0.2749
     11 C          -5.1373  -16.2366   24.0224 C.3     1  UNL1        0.1202
     12 C          -3.1945  -18.4985   21.3335 C.3     1  UNL1        0.0767
     13 C          -3.3489  -19.9884   21.4107 C.3     1  UNL1        0.0091
     14 C          -3.0542  -20.5559   20.0538 C.3     1  UNL1        0.0005
     15 C          -2.7177  -19.4165   19.1380 C.3     1  UNL1        0.0005
     16 C          -2.8044  -18.1449   19.9289 C.3     1  UNL1        0.0091
     17 C         -11.7174  -18.0082   23.8489 C.2     1  UNL1        0.0598
     18 C         -11.0913  -16.6501   23.7332 C.2     1  UNL1        0.0047
     19 O         -13.8487  -18.0859   22.3652 O.2     1  UNL1       -0.2681
     20 C         -13.2036  -18.1627   23.7172 C.2     1  UNL1        0.2679
     21 N         -14.0447  -18.3940   24.9375 N.am    1  UNL1       -0.1934
     22 O         -15.5309  -18.5485   24.8058 O.3     1  UNL1       -0.2949
     23 H         -13.6212  -18.4444   25.8249 H       1  UNL1        0.1825
     24 H         -15.7822  -18.4733   23.8720 H       1  UNL1        0.2414
@<TRIPOS>BOND
     1    19    20    2
     2    20    17    1
     3    17    18    2
     4    18     1    1
     5     1     2   ar
     6     2     3   ar
     7     3     4   ar
     8     4     5   ar
     9     5     6   ar
    10     5     7    1
    11     7     8    1
    12     8     9   am
    13     9    10    2
    14     9    12    1
    15    12    13    1
    16    13    14    1
    17    14    15    1
    18    15    16    1
    19     8    11    1
    20    20    21   am
    21    21    22    1
    22     6     1   ar
    23    16    12    1
    24    11     4    1
    25    21    23    1
    26    22    24    1
@<TRIPOS>MOLECULE
*****
 24 26 0 0 0
SMALL
GASTEIGER

@<TRIPOS>ATOM
      1 C           6.1932   -3.3577   23.0800 C.ar    1  UNL1       -0.0001
      2 C           6.8990   -4.2202   22.0760 C.ar    1  UNL1       -0.0003
      3 C           6.6841   -3.9927   20.6090 C.ar    1  UNL1       -0.0029
      4 C           5.7636   -2.9027   20.1459 C.ar    1  UNL1       -0.0047
      5 C           5.0578   -2.0402   21.1499 C.ar    1  UNL1       -0.0047
      6 C           5.2726   -2.2677   22.6169 C.ar    1  UNL1       -0.0029
      7 C           4.2162   -1.0502   20.4004 C.3     1  UNL1        0.1202
      8 N           4.4019   -1.3009   18.9332 N.am    1  UNL1       -0.2713
      9 C           3.7463   -0.5403   17.8188 C.2     1  UNL1        0.2256
     10 O           4.0298   -0.9069   16.3922 O.2     1  UNL1       -0.2749
     11 C           5.3582   -2.4458   18.7759 C.3     1  UNL1        0.1202
     12 C           2.8073    0.5870   18.1311 C.3     1  UNL1        0.0767
     13 C           3.1933    2.0182   18.3598 C.3     1  UNL1        0.0091
     14 C           1.9420    2.7967   18.6396 C.3     1  UNL1        0.0005
     15 C           0.7827    1.8465   18.5837 C.3     1  UNL1        0.0005
     16 C           1.3175    0.4807   18.2695 C.3     1  UNL1        0.0091
     17 C           6.9460   -4.8988   25.0313 C.2     1  UNL1        0.0598
     18 C           6.4080   -3.5851   24.5470 C.2     1  UNL1        0.0047
     19 O           8.4935   -4.8242   27.1169 O.2     1  UNL1       -0.2681
     20 C           7.1608   -5.1263   26.4984 C.2     1  UNL1        0.2679
     21 N           6.0429   -5.6560   27.3468 N.am    1  UNL1       -0.1934
     22 O           6.2577   -5.8834   28.8138 O.3     1  UNL1       -0.2949
     23 H           5.1682   -5.8543   26.9408 H       1  UNL1        0.1825
     24 H           7.1666   -5.6397   29.0491 H       1  UNL1        0.2414
@<TRIPOS>BOND
     1    19    20    2
     2    20    17    1
     3    17    18    2
     4    18     1    1
     5     1     2   ar
     6     2     3   ar
     7     3     4   ar
     8     4     5   ar
     9     5     6   ar
    10     5     7    1
    11     7     8    1
    12     8     9   am
    13     9    10    2
    14     9    12    1
    15    12    13    1
    16    13    14    1
    17    14    15    1
    18    15    16    1
    19     8    11    1
    20    20    21   am
    21    21    22    1
    22     6     1   ar
    23    16    12    1
    24    11     4    1
    25    21    23    1
    26    22    24    1
@<TRIPOS>MOLECULE
*****
 24 26 0 0 0
SMALL
GASTEIGER

@<TRIPOS>ATOM
      1 C         -17.4608   -5.8374   19.1847 C.ar    1  UNL1       -0.0001
      2 C         -17.9279   -4.5766   19.8495 C.ar    1  UNL1       -0.0003
      3 C         -16.9815   -3.4261   20.0248 C.ar    1  UNL1       -0.0029
      4 C         -15.5680   -3.5365   19.5353 C.ar    1  UNL1       -0.0047
      5 C         -15.1008   -4.7974   18.8705 C.ar    1  UNL1       -0.0047
      6 C         -16.0473   -5.9478   18.6952 C.ar    1  UNL1       -0.0029
      7 C         -13.6606   -4.6160   18.4925 C.3     1  UNL1        0.1202
      8 N         -13.2376   -3.2430   18.9237 N.am    1  UNL1       -0.2713
      9 C         -11.8750   -2.6425   18.7424 C.2     1  UNL1        0.2256
     10 O         -11.5983   -1.2504   19.2274 O.2     1  UNL1       -0.2749
     11 C         -14.4164   -2.5759   19.5682 C.3     1  UNL1        0.1202
     12 C         -10.7892   -3.4342   18.0759 C.3     1  UNL1        0.0767
     13 C         -10.0449   -3.0392   16.8350 C.3     1  UNL1        0.0091
     14 C          -9.0528   -4.1208   16.5255 C.3     1  UNL1        0.0005
     15 C          -9.1839   -5.1842   17.5752 C.3     1  UNL1        0.0005
     16 C         -10.2571   -4.7599   18.5335 C.3     1  UNL1        0.0091
     17 C         -18.4596   -8.0793   20.0370 C.2     1  UNL1        0.0598
     18 C         -18.4073   -6.9879   19.0094 C.2     1  UNL1        0.0047
     19 O         -20.4609   -9.4971   20.8939 O.2     1  UNL1       -0.2681
     20 C         -19.4061   -9.2297   19.8616 C.2     1  UNL1        0.2679
     21 N         -19.2976  -10.1128   18.6539 N.am    1  UNL1       -0.1934
     22 O         -20.2440  -11.2633   18.4786 O.3     1  UNL1       -0.2949
     23 H         -18.6052   -9.9373   17.9764 H       1  UNL1        0.1825
     24 H         -20.8575  -11.2945   19.2293 H       1  UNL1        0.2414
@<TRIPOS>BOND
     1    19    20    2
     2    20    17    1
     3    17    18    2
     4    18     1    1
     5     1     2   ar
     6     2     3   ar
     7     3     4   ar
     8     4     5   ar
     9     5     6   ar
    10     5     7    1
    11     7     8    1
    12     8     9   am
    13     9    10    2
    14     9    12    1
    15    12    13    1
    16    13    14    1
    17    14    15    1
    18    15    16    1
    19     8    11    1
    20    20    21   am
    21    21    22    1
    22     6     1   ar
    23    16    12    1
    24    11     4    1
    25    21    23    1
    26    22    24    1
@<TRIPOS>MOLECULE
*****
 24 26 0 0 0
SMALL
GASTEIGER

@<TRIPOS>ATOM
      1 C          -0.5711    2.5326   20.2884 C.ar    1  UNL1       -0.0001
      2 C          -0.0043    3.3573   19.1711 C.ar    1  UNL1       -0.0003
      3 C           1.1426    2.8329   18.3589 C.ar    1  UNL1       -0.0029
      4 C           1.7226    1.4837   18.6639 C.ar    1  UNL1       -0.0047
      5 C           1.1557    0.6589   19.7812 C.ar    1  UNL1       -0.0047
      6 C           0.0089    1.1833   20.5934 C.ar    1  UNL1       -0.0029
      7 C           1.9288   -0.6249   19.8480 C.3     1  UNL1        0.1202
      8 N           2.9734   -0.5935   18.7720 N.am    1  UNL1       -0.2713
      9 C           3.9704   -1.6753   18.4792 C.2     1  UNL1        0.2256
     10 O           4.9598   -1.5018   17.3652 O.2     1  UNL1       -0.2749
     11 C           2.8459    0.7097   18.0402 C.3     1  UNL1        0.1202
     12 C           3.9780   -2.9305   19.3004 C.3     1  UNL1        0.0767
     13 C           4.5529   -3.0794   20.6778 C.3     1  UNL1        0.0091
     14 C           4.3423   -4.4981   21.1171 C.3     1  UNL1        0.0005
     15 C           3.6372   -5.2259   20.0111 C.3     1  UNL1        0.0005
     16 C           3.4120   -4.2571   18.8883 C.3     1  UNL1        0.0091
     17 C          -3.0869    3.1477   20.4943 C.2     1  UNL1        0.0598
     18 C          -1.7179    3.0570   21.1006 C.2     1  UNL1        0.0047
     19 O          -4.7837    5.0403   21.0316 O.2     1  UNL1       -0.2681
     20 C          -4.2337    3.6721   21.3065 C.2     1  UNL1        0.2679
     21 N          -4.8306    2.8283   22.3937 N.am    1  UNL1       -0.1934
     22 O          -5.9774    3.3528   23.2059 O.3     1  UNL1       -0.2949
     23 H          -4.4696    1.9304   22.5741 H       1  UNL1        0.1825
     24 H          -6.2081    4.2444   22.9015 H       1  UNL1        0.2414
@<TRIPOS>BOND
     1    19    20    2
     2    20    17    1
     3    17    18    2
     4    18     1    1
     5     1     2   ar
     6     2     3   ar
     7     3     4   ar
     8     4     5   ar
     9     5     6   ar
    10     5     7    1
    11     7     8    1
    12     8     9   am
    13     9    10    2
    14     9    12    1
    15    12    13    1
    16    13    14    1
    17    14    15    1
    18    15    16    1
    19     8    11    1
    20    20    21   am
    21    21    22    1
    22     6     1   ar
    23    16    12    1
    24    11     4    1
    25    21    23    1
    26    22    24    1
@<TRIPOS>MOLECULE
*****
 24 26 0 0 0
SMALL
GASTEIGER

@<TRIPOS>ATOM
      1 C           6.8868   -4.3699   24.1195 C.ar    1  UNL1       -0.0001
      2 C           7.9408   -4.8726   23.1781 C.ar    1  UNL1       -0.0003
      3 C           7.8586   -4.5455   21.7165 C.ar    1  UNL1       -0.0029
      4 C           6.7224   -3.7158   21.1963 C.ar    1  UNL1       -0.0047
      5 C           5.6685   -3.2131   22.1378 C.ar    1  UNL1       -0.0047
      6 C           5.7507   -3.5402   23.5994 C.ar    1  UNL1       -0.0029
      7 C           4.6737   -2.4226   21.3406 C.3     1  UNL1        0.1202
      8 N           5.1129   -2.4367   19.9064 N.am    1  UNL1       -0.2713
      9 C           4.4094   -1.7688   18.7622 C.2     1  UNL1        0.2256
     10 O           4.9705   -1.8702   17.3748 O.2     1  UNL1       -0.2749
     11 C           6.3791   -3.2359   19.8173 C.3     1  UNL1        0.1202
     12 C           3.1449   -0.9995   19.0055 C.3     1  UNL1        0.0767
     13 C           2.1332   -1.2820   20.0762 C.3     1  UNL1        0.0091
     14 C           1.0331   -0.2698   19.9532 C.3     1  UNL1        0.0005
     15 C           1.3650    0.6383   18.8064 C.3     1  UNL1        0.0005
     16 C           2.6702    0.1874   18.2206 C.3     1  UNL1        0.0091
     17 C           7.2576   -6.1019   26.0202 C.2     1  UNL1        0.0598
     18 C           6.9690   -4.6970   25.5811 C.2     1  UNL1        0.0047
     19 O           8.3168   -7.4589   27.9661 O.2     1  UNL1       -0.2681
     20 C           7.3398   -6.4290   27.4818 C.2     1  UNL1        0.2679
     21 N           6.4449   -5.7260   28.4592 N.am    1  UNL1       -0.1934
     22 O           6.5271   -6.0531   29.9208 O.3     1  UNL1       -0.2949
     23 H           5.8036   -5.0500   28.1413 H       1  UNL1        0.1825
     24 H           7.2037   -6.7336   30.0623 H       1  UNL1        0.2414
@<TRIPOS>BOND
     1    19    20    2
     2    20    17    1
     3    17    18    2
     4    18     1    1
     5     1     2   ar
     6     2     3   ar
     7     3     4   ar
     8     4     5   ar
     9     5     6   ar
    10     5     7    1
    11     7     8    1
    12     8     9   am
    13     9    10    2
    14     9    12    1
    15    12    13    1
    16    13    14    1
    17    14    15    1
    18    15    16    1
    19     8    11    1
    20    20    21   am
    21    21    22    1
    22     6     1   ar
    23    16    12    1
    24    11     4    1
    25    21    23    1
    26    22    24    1
@<TRIPOS>MOLECULE
*****
 24 26 0 0 0
SMALL
GASTEIGER

@<TRIPOS>ATOM
      1 C           2.5425   -0.7301   19.7887 C.ar    1  UNL1       -0.0001
      2 C           3.0722    0.1054   18.6613 C.ar    1  UNL1       -0.0003
      3 C           2.3807    1.3821   18.2845 C.ar    1  UNL1       -0.0029
      4 C           1.1593    1.8232   19.0352 C.ar    1  UNL1       -0.0047
      5 C           0.6295    0.9877   20.1627 C.ar    1  UNL1       -0.0047
      6 C           1.3211   -0.2889   20.5395 C.ar    1  UNL1       -0.0029
      7 C          -0.5846    1.6727   20.7166 C.3     1  UNL1        0.1202
      8 N          -0.8052    2.9315   19.9313 N.am    1  UNL1       -0.2713
      9 C          -1.9097    3.9233   20.1472 C.2     1  UNL1        0.2256
     10 O          -2.0031    5.1427   19.2788 O.2     1  UNL1       -0.2749
     11 C           0.2726    3.0245   18.8922 C.3     1  UNL1        0.1202
     12 C          -2.9207    3.6956   21.2317 C.3     1  UNL1        0.0767
     13 C          -4.3299    3.2198   21.0374 C.3     1  UNL1        0.0091
     14 C          -4.9802    3.1339   22.3864 C.3     1  UNL1        0.0005
     15 C          -3.9729    3.5567   23.4143 C.3     1  UNL1        0.0005
     16 C          -2.7000    3.9039   22.7007 C.3     1  UNL1        0.0091
     17 C           3.5658   -3.0197   19.1101 C.2     1  UNL1        0.0598
     18 C           3.2341   -2.0067   20.1655 C.2     1  UNL1        0.0047
     19 O           4.6826   -4.5282   20.9065 O.2     1  UNL1       -0.2681
     20 C           4.2574   -4.2963   19.4869 C.2     1  UNL1        0.2679
     21 N           4.5238   -5.3410   18.4439 N.am    1  UNL1       -0.1934
     22 O           5.2154   -6.6176   18.8206 O.3     1  UNL1       -0.2949
     23 H           4.2447   -5.1888   17.5121 H       1  UNL1        0.1825
     24 H           5.4203   -6.6067   19.7687 H       1  UNL1        0.2414
@<TRIPOS>BOND
     1    19    20    2
     2    20    17    1
     3    17    18    2
     4    18     1    1
     5     1     2   ar
     6     2     3   ar
     7     3     4   ar
     8     4     5   ar
     9     5     6   ar
    10     5     7    1
    11     7     8    1
    12     8     9   am
    13     9    10    2
    14     9    12    1
    15    12    13    1
    16    13    14    1
    17    14    15    1
    18    15    16    1
    19     8    11    1
    20    20    21   am
    21    21    22    1
    22     6     1   ar
    23    16    12    1
    24    11     4    1
    25    21    23    1
    26    22    24    1
@<TRIPOS>MOLECULE
*****
 24 26 0 0 0
SMALL
GASTEIGER

@<TRIPOS>ATOM
      1 C           4.5857    0.7720   34.7851 C.ar    1  UNL1       -0.0001
      2 C           5.7034   -0.1407   34.3755 C.ar    1  UNL1       -0.0003
      3 C           5.6969   -0.7704   33.0140 C.ar    1  UNL1       -0.0029
      4 C           4.5726   -0.4873   32.0622 C.ar    1  UNL1       -0.0047
      5 C           3.4550    0.4253   32.4718 C.ar    1  UNL1       -0.0047
      6 C           3.4615    1.0550   33.8333 C.ar    1  UNL1       -0.0029
      7 C           2.4886    0.5171   31.3282 C.3     1  UNL1        0.1202
      8 N           3.0091   -0.3389   30.2118 N.am    1  UNL1       -0.2713
      9 C           2.3562   -0.5390   28.8762 C.2     1  UNL1        0.2256
     10 O           2.9978   -1.4294   27.8537 O.2     1  UNL1       -0.2749
     11 C           4.2971   -0.9596   30.6655 C.3     1  UNL1        0.1202
     12 C           1.0619    0.1513   28.5631 C.3     1  UNL1        0.0767
     13 C          -0.3088   -0.3394   28.9240 C.3     1  UNL1        0.0091
     14 C          -1.3069    0.6596   28.4181 C.3     1  UNL1        0.0005
     15 C          -0.5530    1.7678   27.7447 C.3     1  UNL1        0.0005
     16 C           0.9111    1.4537   27.8343 C.3     1  UNL1        0.0091
     17 C           3.9767    0.6809   37.3091 C.2     1  UNL1        0.0598
     18 C           4.5923    1.4016   36.1465 C.2     1  UNL1        0.0047
     19 O           2.8142    1.1198   39.5907 O.2     1  UNL1       -0.2681
     20 C           3.9833    1.3106   38.6706 C.2     1  UNL1        0.2679
     21 N           5.1590    2.1309   39.1118 N.am    1  UNL1       -0.1934
     22 O           5.1656    2.7606   40.4733 O.3     1  UNL1       -0.2949
     23 H           5.9264    2.2561   38.5079 H       1  UNL1        0.1825
     24 H           4.3416    2.5404   40.9353 H       1  UNL1        0.2414
@<TRIPOS>BOND
     1    19    20    2
     2    20    17    1
     3    17    18    2
     4    18     1    1
     5     1     2   ar
     6     2     3   ar
     7     3     4   ar
     8     4     5   ar
     9     5     6   ar
    10     5     7    1
    11     7     8    1
    12     8     9   am
    13     9    10    2
    14     9    12    1
    15    12    13    1
    16    13    14    1
    17    14    15    1
    18    15    16    1
    19     8    11    1
    20    20    21   am
    21    21    22    1
    22     6     1   ar
    23    16    12    1
    24    11     4    1
    25    21    23    1
    26    22    24    1
