@<TRIPOS>MOLECULE
*****
 22 24 0 0 0
SMALL
GASTEIGER

@<TRIPOS>ATOM
      1 C          -2.5684  -18.8926   20.0940 C.2     1  UNL1        0.1223
      2 C          -2.5226  -19.3311   21.5277 C.2     1  UNL1        0.0343
      3 C          -3.7981  -19.5664   22.2812 C.2     1  UNL1        0.0232
      4 C          -5.1194  -19.3631   21.6010 C.2     1  UNL1        0.0975
      5 N          -6.5312  -19.5162   22.0842 N.2     1  UNL1       -0.2200
      6 C          -7.4495  -19.1722   20.9491 C.2     1  UNL1        0.1901
      7 N          -6.6053  -18.8066   19.7643 N.2     1  UNL1       -0.2236
      8 C          -5.1652  -18.9246   20.1673 C.2     1  UNL1        0.0863
      9 C          -3.8897  -18.6893   19.4138 C.3     1  UNL1        0.1112
     10 C          -0.1942  -17.8459   19.9607 C.3     1  UNL1        0.2520
     11 O          -1.2928  -18.6573   19.3406 O.2     1  UNL1       -0.4753
     12 S          -8.9488  -19.1907   20.9914 S.3     1  UNL1       -0.0709
     13 C          -9.6957  -18.0481   21.6132 C.3     1  UNL1        0.0913
     14 C          -9.1710  -17.3987   22.8593 C.ar    1  UNL1       -0.0109
     15 C          -9.6647  -17.8461   24.2032 C.ar    1  UNL1       -0.0037
     16 C          -9.1400  -17.1966   25.4493 C.ar    1  UNL1       -0.0046
     17 C          -8.1215  -16.0997   25.3515 C.ar    1  UNL1       -0.0225
     18 C          -7.6278  -15.6523   24.0076 C.ar    1  UNL1       -0.0046
     19 C          -8.1526  -16.3018   22.7615 C.ar    1  UNL1       -0.0037
     20 C          -7.5968  -15.4502   26.5976 C.3     1  UNL1        0.0224
     21 C          -6.1240  -15.2153   26.7578 C.3     1  UNL1        0.0047
     22 C          -8.5449  -15.0357   27.6835 C.3     1  UNL1        0.0047
@<TRIPOS>BOND
     1    10    11    1
     2    11     1    1
     3     1     2    2
     4     2     3    1
     5     3     4    2
     6     4     5    1
     7     5     6    2
     8     6    12    1
     9    12    13    1
    10    13    14    1
    11    14    15   ar
    12    15    16   ar
    13    16    17   ar
    14    17    20    1
    15    20    21    1
    16    20    22    1
    17    17    18   ar
    18    18    19   ar
    19     6     7    1
    20     7     8    2
    21     8     9    1
    22     9     1    1
    23     8     4    1
    24    19    14   ar
@<TRIPOS>MOLECULE
*****
 22 24 0 0 0
SMALL
GASTEIGER

@<TRIPOS>ATOM
      1 C          -4.0803  -19.5397   21.3380 C.2     1  UNL1        0.1223
      2 C          -4.3524  -19.1096   19.9270 C.2     1  UNL1        0.0343
      3 C          -5.7655  -18.9353   19.4553 C.2     1  UNL1        0.0232
      4 C          -6.9067  -19.1912   20.3945 C.2     1  UNL1        0.0975
      5 N          -8.3933  -19.1031   20.2153 N.2     1  UNL1       -0.2200
      6 C          -9.0401  -19.4787   21.5155 C.2     1  UNL1        0.1901
      7 N          -7.9532  -19.7990   22.4984 N.2     1  UNL1       -0.2236
      8 C          -6.6347  -19.6213   21.8055 C.2     1  UNL1        0.0863
      9 C          -5.2215  -19.7955   22.2773 C.3     1  UNL1        0.1112
     10 C          -1.7586  -18.5248   21.9122 C.3     1  UNL1        0.2520
     11 O          -2.6671  -19.7140   21.8097 O.2     1  UNL1       -0.4753
     12 S         -10.5149  -19.5258   21.7854 S.3     1  UNL1       -0.0709
     13 C         -11.1447  -18.5083   22.6898 C.3     1  UNL1        0.0913
     14 C         -10.3070  -17.7822   23.7002 C.ar    1  UNL1       -0.0109
     15 C          -9.7374  -16.4338   23.3724 C.ar    1  UNL1       -0.0037
     16 C          -8.8996  -15.7078   24.3828 C.ar    1  UNL1       -0.0046
     17 C          -8.6314  -16.3301   25.7211 C.ar    1  UNL1       -0.0225
     18 C          -9.2010  -17.6785   26.0488 C.ar    1  UNL1       -0.0046
     19 C         -10.0388  -18.4045   25.0384 C.ar    1  UNL1       -0.0037
     20 C          -7.7937  -15.6040   26.7315 C.3     1  UNL1        0.0224
     21 C          -6.2987  -15.6091   26.6090 C.3     1  UNL1        0.0047
     22 C          -8.4509  -14.8729   27.8644 C.3     1  UNL1        0.0047
@<TRIPOS>BOND
     1    10    11    1
     2    11     1    1
     3     1     2    2
     4     2     3    1
     5     3     4    2
     6     4     5    1
     7     5     6    2
     8     6    12    1
     9    12    13    1
    10    13    14    1
    11    14    15   ar
    12    15    16   ar
    13    16    17   ar
    14    17    20    1
    15    20    21    1
    16    20    22    1
    17    17    18   ar
    18    18    19   ar
    19     6     7    1
    20     7     8    2
    21     8     9    1
    22     9     1    1
    23     8     4    1
    24    19    14   ar
@<TRIPOS>MOLECULE
*****
 22 24 0 0 0
SMALL
GASTEIGER

@<TRIPOS>ATOM
      1 C         -12.9405  -17.9491   23.2486 C.2     1  UNL1        0.1223
      2 C         -12.9174  -17.3227   21.8858 C.2     1  UNL1        0.0343
      3 C         -11.7176  -17.4938   21.0020 C.2     1  UNL1        0.0232
      4 C         -10.5409  -18.2913   21.4809 C.2     1  UNL1        0.0975
      5 N          -9.2288  -18.6296   20.8375 N.2     1  UNL1       -0.2200
      6 C          -8.4410  -19.4650   21.8026 C.2     1  UNL1        0.1901
      7 N          -9.2662  -19.6431   23.0425 N.2     1  UNL1       -0.2236
      8 C         -10.5640  -18.9176   22.8436 C.2     1  UNL1        0.0863
      9 C         -11.7638  -18.7465   23.7275 C.3     1  UNL1        0.1112
     10 C         -14.2067  -18.4872   25.4524 C.3     1  UNL1        0.2520
     11 O         -14.1403  -17.7780   24.1324 O.2     1  UNL1       -0.4753
     12 S          -7.0688  -20.0243   21.5688 S.3     1  UNL1       -0.0709
     13 C          -5.8930  -19.4608   22.3103 C.3     1  UNL1        0.0913
     14 C          -4.6557  -19.0616   21.5620 C.ar    1  UNL1       -0.0109
     15 C          -3.4567  -18.5582   22.3097 C.ar    1  UNL1       -0.0037
     16 C          -2.2195  -18.1590   21.5614 C.ar    1  UNL1       -0.0046
     17 C          -2.1813  -18.2632   20.0655 C.ar    1  UNL1       -0.0225
     18 C          -3.3803  -18.7665   19.3179 C.ar    1  UNL1       -0.0046
     19 C          -4.6176  -19.1657   20.0662 C.ar    1  UNL1       -0.0037
     20 C          -0.9440  -17.8640   19.3173 C.3     1  UNL1        0.0224
     21 C          -0.9754  -17.7517   17.8218 C.3     1  UNL1        0.0047
     22 C           0.3245  -17.5771   20.0645 C.3     1  UNL1        0.0047
@<TRIPOS>BOND
     1    10    11    1
     2    11     1    1
     3     1     2    2
     4     2     3    1
     5     3     4    2
     6     4     5    1
     7     5     6    2
     8     6    12    1
     9    12    13    1
    10    13    14    1
    11    14    15   ar
    12    15    16   ar
    13    16    17   ar
    14    17    20    1
    15    20    21    1
    16    20    22    1
    17    17    18   ar
    18    18    19   ar
    19     6     7    1
    20     7     8    2
    21     8     9    1
    22     9     1    1
    23     8     4    1
    24    19    14   ar
@<TRIPOS>MOLECULE
*****
 22 24 0 0 0
SMALL
GASTEIGER

@<TRIPOS>ATOM
      1 C          -5.0992  -16.8190   23.9780 C.2     1  UNL1        0.1223
      2 C          -3.9865  -17.7931   23.7271 C.2     1  UNL1        0.0343
      3 C          -4.1032  -18.7955   22.6173 C.2     1  UNL1        0.0232
      4 C          -5.3327  -18.8238   21.7585 C.2     1  UNL1        0.0975
      5 N          -5.7281  -19.6907   20.6000 N.2     1  UNL1       -0.2200
      6 C          -7.0852  -19.2524   20.1349 C.2     1  UNL1        0.1901
      7 N          -7.5285  -18.1146   21.0060 N.2     1  UNL1       -0.2236
      8 C          -6.4454  -17.8497   22.0094 C.2     1  UNL1        0.0863
      9 C          -6.3286  -16.8473   23.1192 C.3     1  UNL1        0.1112
     10 C          -6.1968  -15.4266   25.8770 C.3     1  UNL1        0.2520
     11 O          -4.9824  -15.8166   25.0878 O.2     1  UNL1       -0.4753
     12 S          -7.8624  -19.8475   18.9983 S.3     1  UNL1       -0.0709
     13 C          -9.2744  -20.3055   19.2139 C.3     1  UNL1        0.0913
     14 C         -10.1778  -19.5424   20.1367 C.ar    1  UNL1       -0.0109
     15 C         -10.7781  -18.2416   19.6925 C.ar    1  UNL1       -0.0037
     16 C         -11.6815  -17.4785   20.6153 C.ar    1  UNL1       -0.0046
     17 C         -11.9845  -18.0163   21.9825 C.ar    1  UNL1       -0.0225
     18 C         -11.3841  -19.3172   22.4268 C.ar    1  UNL1       -0.0046
     19 C         -10.4807  -20.0802   21.5038 C.ar    1  UNL1       -0.0037
     20 C         -12.8878  -17.2533   22.9054 C.3     1  UNL1        0.0224
     21 C         -12.9264  -15.7549   22.8477 C.3     1  UNL1        0.0047
     22 C         -13.7526  -17.9886   23.8859 C.3     1  UNL1        0.0047
@<TRIPOS>BOND
     1    10    11    1
     2    11     1    1
     3     1     2    2
     4     2     3    1
     5     3     4    2
     6     4     5    1
     7     5     6    2
     8     6    12    1
     9    12    13    1
    10    13    14    1
    11    14    15   ar
    12    15    16   ar
    13    16    17   ar
    14    17    20    1
    15    20    21    1
    16    20    22    1
    17    17    18   ar
    18    18    19   ar
    19     6     7    1
    20     7     8    2
    21     8     9    1
    22     9     1    1
    23     8     4    1
    24    19    14   ar
@<TRIPOS>MOLECULE
*****
 22 24 0 0 0
SMALL
GASTEIGER

@<TRIPOS>ATOM
      1 C          -9.1626  -16.1250   24.1426 C.2     1  UNL1        0.1223
      2 C         -10.4686  -16.3306   23.4341 C.2     1  UNL1        0.0343
      3 C         -10.5607  -17.3070   22.2991 C.2     1  UNL1        0.0232
      4 C          -9.3466  -18.0779   21.8726 C.2     1  UNL1        0.0975
      5 N          -9.1341  -19.1008   20.7963 N.2     1  UNL1       -0.2200
      6 C          -7.6967  -19.5274   20.8396 C.2     1  UNL1        0.1901
      7 N          -7.0208  -18.7681   21.9426 N.2     1  UNL1       -0.2236
      8 C          -8.0406  -17.8723   22.5811 C.2     1  UNL1        0.0863
      9 C          -7.9486  -16.8958   23.7160 C.3     1  UNL1        0.1112
     10 C          -8.3008  -15.5064   26.5142 C.3     1  UNL1        0.2520
     11 O          -9.0706  -15.1486   25.2775 O.2     1  UNL1       -0.4753
     12 S          -7.0489  -20.5362   19.9380 S.3     1  UNL1       -0.0709
     13 C          -5.6788  -21.0568   20.2571 C.3     1  UNL1        0.0913
     14 C          -4.5196  -20.1095   20.3505 C.ar    1  UNL1       -0.0109
     15 C          -4.2662  -19.1233   19.2491 C.ar    1  UNL1       -0.0037
     16 C          -3.1069  -18.1760   19.3425 C.ar    1  UNL1       -0.0046
     17 C          -2.2010  -18.2149   20.5375 C.ar    1  UNL1       -0.0225
     18 C          -2.4544  -19.2010   21.6390 C.ar    1  UNL1       -0.0046
     19 C          -3.6137  -20.1484   21.5455 C.ar    1  UNL1       -0.0037
     20 C          -1.0418  -17.2676   20.6309 C.3     1  UNL1        0.0224
     21 C           0.2794  -17.6369   20.0242 C.3     1  UNL1        0.0047
     22 C          -1.2037  -15.9510   21.3311 C.3     1  UNL1        0.0047
@<TRIPOS>BOND
     1    10    11    1
     2    11     1    1
     3     1     2    2
     4     2     3    1
     5     3     4    2
     6     4     5    1
     7     5     6    2
     8     6    12    1
     9    12    13    1
    10    13    14    1
    11    14    15   ar
    12    15    16   ar
    13    16    17   ar
    14    17    20    1
    15    20    21    1
    16    20    22    1
    17    17    18   ar
    18    18    19   ar
    19     6     7    1
    20     7     8    2
    21     8     9    1
    22     9     1    1
    23     8     4    1
    24    19    14   ar
@<TRIPOS>MOLECULE
*****
 22 24 0 0 0
SMALL
GASTEIGER

@<TRIPOS>ATOM
      1 C          -7.4195  -15.6513   26.4812 C.2     1  UNL1        0.1223
      2 C          -8.1698  -16.5702   27.3991 C.2     1  UNL1        0.0343
      3 C          -9.2253  -17.4827   26.8484 C.2     1  UNL1        0.0232
      4 C          -9.5304  -17.4763   25.3798 C.2     1  UNL1        0.0975
      5 N         -10.5093  -18.2578   24.5546 N.2     1  UNL1       -0.2200
      6 C         -10.3640  -17.8218   23.1267 C.2     1  UNL1        0.1901
      7 N          -9.2953  -16.7709   23.0694 N.2     1  UNL1       -0.2236
      8 C          -8.7801  -16.5574   24.4619 C.2     1  UNL1        0.0863
      9 C          -7.7246  -15.6448   25.0126 C.3     1  UNL1        0.1112
     10 C          -5.0448  -14.6083   26.3303 C.3     1  UNL1        0.2520
     11 O          -6.3641  -14.7387   27.0320 O.2     1  UNL1       -0.4753
     12 S         -11.1496  -18.3450   21.9608 S.3     1  UNL1       -0.0709
     13 C         -10.5305  -19.3413   21.0258 C.3     1  UNL1        0.0913
     14 C          -9.0399  -19.5030   20.9818 C.ar    1  UNL1       -0.0109
     15 C          -8.3029  -19.9958   22.1918 C.ar    1  UNL1       -0.0037
     16 C          -6.8124  -20.1575   22.1478 C.ar    1  UNL1       -0.0046
     17 C          -6.0587  -19.8264   20.8938 C.ar    1  UNL1       -0.0225
     18 C          -6.7957  -19.3337   19.6838 C.ar    1  UNL1       -0.0046
     19 C          -8.2863  -19.1720   19.7279 C.ar    1  UNL1       -0.0037
     20 C          -4.5681  -19.9881   20.8498 C.3     1  UNL1        0.0224
     21 C          -3.7235  -19.4657   21.9740 C.3     1  UNL1        0.0047
     22 C          -3.9221  -20.6723   19.6817 C.3     1  UNL1        0.0047
@<TRIPOS>BOND
     1    10    11    1
     2    11     1    1
     3     1     2    2
     4     2     3    1
     5     3     4    2
     6     4     5    1
     7     5     6    2
     8     6    12    1
     9    12    13    1
    10    13    14    1
    11    14    15   ar
    12    15    16   ar
    13    16    17   ar
    14    17    20    1
    15    20    21    1
    16    20    22    1
    17    17    18   ar
    18    18    19   ar
    19     6     7    1
    20     7     8    2
    21     8     9    1
    22     9     1    1
    23     8     4    1
    24    19    14   ar
@<TRIPOS>MOLECULE
*****
 22 24 0 0 0
SMALL
GASTEIGER

@<TRIPOS>ATOM
      1 C          -8.5824  -16.2104   25.8047 C.2     1  UNL1        0.1223
      2 C          -9.3418  -17.4046   26.3018 C.2     1  UNL1        0.0343
      3 C          -9.7182  -18.5027   25.3517 C.2     1  UNL1        0.0232
      4 C          -9.3352  -18.4065   23.9046 C.2     1  UNL1        0.0975
      5 N          -9.5663  -19.3256   22.7420 N.2     1  UNL1       -0.2200
      6 C          -8.9497  -18.6994   21.5264 C.2     1  UNL1        0.1901
      7 N          -8.3375  -17.3933   21.9377 N.2     1  UNL1       -0.2236
      8 C          -8.5758  -17.2122   23.4076 C.2     1  UNL1        0.0863
      9 C          -8.1994  -16.1142   24.3577 C.3     1  UNL1        0.1112
     10 C          -6.8807  -15.1492   27.4564 C.3     1  UNL1        0.2520
     11 O          -8.2059  -15.1123   26.7548 O.2     1  UNL1       -0.4753
     12 S          -8.9459  -19.2779   20.1423 S.3     1  UNL1       -0.0709
     13 C          -7.7574  -20.0537   19.6570 C.3     1  UNL1        0.0913
     14 C          -6.3783  -19.6729   20.1075 C.ar    1  UNL1       -0.0109
     15 C          -5.9404  -19.9659   21.5119 C.ar    1  UNL1       -0.0037
     16 C          -4.5613  -19.5851   21.9624 C.ar    1  UNL1       -0.0046
     17 C          -3.6200  -18.9113   21.0084 C.ar    1  UNL1       -0.0225
     18 C          -4.0579  -18.6183   19.6040 C.ar    1  UNL1       -0.0046
     19 C          -5.4371  -18.9992   19.1535 C.ar    1  UNL1       -0.0037
     20 C          -2.2409  -18.5305   21.4589 C.3     1  UNL1        0.0224
     21 C          -1.0936  -18.5904   20.4944 C.3     1  UNL1        0.0047
     22 C          -2.0091  -18.0897   22.8737 C.3     1  UNL1        0.0047
@<TRIPOS>BOND
     1    10    11    1
     2    11     1    1
     3     1     2    2
     4     2     3    1
     5     3     4    2
     6     4     5    1
     7     5     6    2
     8     6    12    1
     9    12    13    1
    10    13    14    1
    11    14    15   ar
    12    15    16   ar
    13    16    17   ar
    14    17    20    1
    15    20    21    1
    16    20    22    1
    17    17    18   ar
    18    18    19   ar
    19     6     7    1
    20     7     8    2
    21     8     9    1
    22     9     1    1
    23     8     4    1
    24    19    14   ar
@<TRIPOS>MOLECULE
*****
 22 24 0 0 0
SMALL
GASTEIGER

@<TRIPOS>ATOM
      1 C         -17.3143   -8.8360   19.4112 C.2     1  UNL1        0.1223
      2 C         -16.8096   -9.8869   18.4673 C.2     1  UNL1        0.0343
      3 C         -15.4450   -9.7554   17.8587 C.2     1  UNL1        0.0232
      4 C         -14.5849   -8.5731   18.1940 C.2     1  UNL1        0.0975
      5 N         -13.2075   -8.1764   17.7522 N.2     1  UNL1       -0.2200
      6 C         -12.8608   -6.8804   18.4231 C.2     1  UNL1        0.1901
      7 N         -14.0240   -6.4760   19.2795 N.2     1  UNL1       -0.2236
      8 C         -15.0896   -7.5223   19.1379 C.2     1  UNL1        0.0863
      9 C         -16.4543   -7.6537   19.7465 C.3     1  UNL1        0.1112
     10 C         -19.7186   -7.9170   19.7640 C.3     1  UNL1        0.2520
     11 O         -18.6789   -8.9675   20.0198 O.2     1  UNL1       -0.4753
     12 S         -11.5763   -6.1218   18.2653 S.3     1  UNL1       -0.0709
     13 C         -11.2377   -5.0139   19.2180 C.3     1  UNL1        0.0913
     14 C         -11.6904   -3.6130   18.9306 C.ar    1  UNL1       -0.0109
     15 C         -10.7947   -2.6752   18.1767 C.ar    1  UNL1       -0.0037
     16 C         -11.2474   -1.2743   17.8892 C.ar    1  UNL1       -0.0046
     17 C         -12.5958   -0.8113   18.3557 C.ar    1  UNL1       -0.0225
     18 C         -13.4914   -1.7491   19.1096 C.ar    1  UNL1       -0.0046
     19 C         -13.0387   -3.1500   19.3970 C.ar    1  UNL1       -0.0037
     20 C         -13.0485    0.5896   18.0683 C.3     1  UNL1        0.0224
     21 C         -14.3221    1.1047   18.6704 C.3     1  UNL1        0.0047
     22 C         -12.2275    1.4754   17.1787 C.3     1  UNL1        0.0047
@<TRIPOS>BOND
     1    10    11    1
     2    11     1    1
     3     1     2    2
     4     2     3    1
     5     3     4    2
     6     4     5    1
     7     5     6    2
     8     6    12    1
     9    12    13    1
    10    13    14    1
    11    14    15   ar
    12    15    16   ar
    13    16    17   ar
    14    17    20    1
    15    20    21    1
    16    20    22    1
    17    17    18   ar
    18    18    19   ar
    19     6     7    1
    20     7     8    2
    21     8     9    1
    22     9     1    1
    23     8     4    1
    24    19    14   ar
@<TRIPOS>MOLECULE
*****
 22 24 0 0 0
SMALL
GASTEIGER

@<TRIPOS>ATOM
      1 C          -4.4940    3.4740   24.1691 C.2     1  UNL1        0.1223
      2 C          -5.4261    3.3072   23.0058 C.2     1  UNL1        0.0343
      3 C          -4.8829    3.2767   21.6079 C.2     1  UNL1        0.0232
      4 C          -3.4077    3.4130   21.3733 C.2     1  UNL1        0.0975
      5 N          -2.5875    3.4195   20.1175 N.2     1  UNL1       -0.2200
      6 C          -1.1484    3.5903   20.5047 C.2     1  UNL1        0.1901
      7 N          -1.0792    3.6894   21.9998 N.2     1  UNL1       -0.2236
      8 C          -2.4756    3.5798   22.5366 C.2     1  UNL1        0.0863
      9 C          -3.0187    3.6103   23.9345 C.3     1  UNL1        0.1112
     10 C          -4.4523    4.4453   26.5784 C.3     1  UNL1        0.2520
     11 O          -5.0371    3.5045   25.5670 O.2     1  UNL1       -0.4753
     12 S           0.0170    3.6514   19.5621 S.3     1  UNL1       -0.0709
     13 C           0.2362    2.5495   18.5682 C.3     1  UNL1        0.0913
     14 C           1.0497    1.3479   18.9479 C.ar    1  UNL1       -0.0109
     15 C           0.5624    0.4211   20.0220 C.ar    1  UNL1       -0.0037
     16 C           1.3759   -0.7805   20.4016 C.ar    1  UNL1       -0.0046
     17 C           2.6768   -1.0554   19.7072 C.ar    1  UNL1       -0.0225
     18 C           3.1641   -0.1287   18.6332 C.ar    1  UNL1       -0.0046
     19 C           2.3506    1.0730   18.2535 C.ar    1  UNL1       -0.0037
     20 C           3.4903   -2.2571   20.0869 C.3     1  UNL1        0.0224
     21 C           3.8492   -3.2784   19.0486 C.3     1  UNL1        0.0047
     22 C           3.9450   -2.4374   21.5049 C.3     1  UNL1        0.0047
@<TRIPOS>BOND
     1    10    11    1
     2    11     1    1
     3     1     2    2
     4     2     3    1
     5     3     4    2
     6     4     5    1
     7     5     6    2
     8     6    12    1
     9    12    13    1
    10    13    14    1
    11    14    15   ar
    12    15    16   ar
    13    16    17   ar
    14    17    20    1
    15    20    21    1
    16    20    22    1
    17    17    18   ar
    18    18    19   ar
    19     6     7    1
    20     7     8    2
    21     8     9    1
    22     9     1    1
    23     8     4    1
    24    19    14   ar
