@<TRIPOS>MOLECULE
*****
 30 33 0 0 0
SMALL
GASTEIGER

@<TRIPOS>ATOM
      1 C          -8.5786  -18.2347   21.5887 C.ar    1  UNL1        0.2014
      2 N          -9.7423  -19.1521   21.3559 N.ar    1  UNL1       -0.2136
      3 C         -10.9907  -18.4319   21.7716 C.ar    1  UNL1        0.0999
      4 C         -12.4339  -18.8407   21.7675 C.ar    1  UNL1        0.0207
      5 C         -13.4849  -17.8870   22.2531 C.ar    1  UNL1        0.0016
      6 C         -13.0927  -16.5245   22.7428 C.ar    1  UNL1        0.0016
      7 C         -11.6496  -16.1157   22.7470 C.ar    1  UNL1        0.0188
      8 C         -10.5986  -17.0694   22.2614 C.ar    1  UNL1        0.0801
      9 N          -9.1078  -16.9476   22.1483 N.ar    1  UNL1       -0.2954
     10 C          -4.2584  -19.1784   20.7548 C.3     1  UNL1        0.0610
     11 C          -5.2681  -19.2462   19.6477 C.3     1  UNL1        0.0375
     12 C          -6.7082  -18.9316   19.9256 C.3     1  UNL1        0.0949
     13 N          -7.1385  -18.5493   21.3107 N.pl3   1  UNL1       -0.2794
     14 C          -6.1288  -18.4815   22.4179 C.3     1  UNL1        0.0949
     15 C          -4.6887  -18.7961   22.1399 C.3     1  UNL1        0.0375
     16 N          -2.8183  -19.4930   20.4768 N.3     1  UNL1       -0.2715
     17 C          -2.0069  -20.2478   21.4876 C.3     1  UNL1        0.0896
     18 C          -2.1897  -19.0528   19.1880 C.3     1  UNL1        0.0896
     19 C          -1.6487  -17.6602   19.0547 C.3     1  UNL1        0.0897
     20 C          -1.5479  -16.2728   21.2491 C.3     1  UNL1        0.0897
     21 N          -0.8537  -17.0542   20.1731 N.3     1  UNL1       -0.2691
     22 C           0.6354  -17.2295   20.2156 C.3     1  UNL1        0.0897
     23 C          -8.2898  -15.7490   22.5282 C.3     1  UNL1        0.1354
     24 C          -7.8060  -15.5876   23.9387 C.ar    1  UNL1        0.0006
     25 C          -6.3468  -15.3713   24.2110 C.ar    1  UNL1       -0.0001
     26 C          -5.8628  -15.2099   25.6216 C.ar    1  UNL1        0.0294
     27 C          -6.8381  -15.2648   26.7600 C.ar    1  UNL1        0.1401
     28 F          -6.3541  -15.1034   28.1705 F       1  UNL1       -0.2042
     29 C          -8.2972  -15.4811   26.4877 C.ar    1  UNL1        0.0294
     30 C          -8.7811  -15.6425   25.0772 C.ar    1  UNL1       -0.0001
@<TRIPOS>BOND
     1    20    21    1
     2    21    22    1
     3    21    19    1
     4    19    18    1
     5    18    16    1
     6    16    17    1
     7    16    10    1
     8    10    11    1
     9    11    12    1
    10    12    13    1
    11    13     1    1
    12     1     2   ar
    13     2     3   ar
    14     3     4   ar
    15     4     5   ar
    16     5     6   ar
    17     6     7   ar
    18     7     8   ar
    19     8     9   ar
    20     9    23    1
    21    23    24    1
    22    24    25   ar
    23    25    26   ar
    24    26    27   ar
    25    27    28    1
    26    27    29   ar
    27    29    30   ar
    28    13    14    1
    29    14    15    1
    30    15    10    1
    31     9     1   ar
    32    30    24   ar
    33     8     3   ar
@<TRIPOS>MOLECULE
*****
 30 33 0 0 0
SMALL
GASTEIGER

@<TRIPOS>ATOM
      1 C           1.8551    4.3634   34.6218 C.ar    1  UNL1        0.2014
      2 N           0.9219    4.9831   33.6243 N.ar    1  UNL1       -0.2136
      3 C          -0.0116    5.8933   34.3659 C.ar    1  UNL1        0.0999
      4 C          -1.1400    6.7668   33.9036 C.ar    1  UNL1        0.0207
      5 C          -1.9121    7.5832   34.8972 C.ar    1  UNL1        0.0016
      6 C          -1.5558    7.5260   36.3531 C.ar    1  UNL1        0.0016
      7 C          -0.4275    6.6526   36.8155 C.ar    1  UNL1        0.0188
      8 C           0.3446    5.8362   35.8219 C.ar    1  UNL1        0.0801
      9 N           1.4983    4.8907   35.9800 N.ar    1  UNL1       -0.2954
     10 C           5.1469    1.4364   33.7016 C.3     1  UNL1        0.0610
     11 C           3.7306    0.9580   33.8246 C.3     1  UNL1        0.0375
     12 C           2.6333    1.9336   34.1313 C.3     1  UNL1        0.0949
     13 N           2.9524    3.3877   34.3151 N.pl3   1  UNL1       -0.2794
     14 C           4.3686    3.8662   34.1921 C.3     1  UNL1        0.0949
     15 C           5.4659    2.8905   33.8854 C.3     1  UNL1        0.0375
     16 N           6.2442    0.4608   33.3949 N.3     1  UNL1       -0.2715
     17 C           7.1955    0.0381   34.4748 C.3     1  UNL1        0.0896
     18 C           6.3902   -0.0921   32.0082 C.3     1  UNL1        0.0896
     19 C           5.5149   -1.2231   31.5557 C.3     1  UNL1        0.0897
     20 C           4.4498   -2.6973   33.4112 C.3     1  UNL1        0.0897
     21 N           5.4791   -2.5029   32.3375 N.3     1  UNL1       -0.2691
     22 C           6.4725   -3.5881   32.0456 C.3     1  UNL1        0.0897
     23 C           2.1762    4.5349   37.2700 C.3     1  UNL1        0.1354
     24 C           1.8968    3.2147   37.9248 C.ar    1  UNL1        0.0006
     25 C           0.6456    3.0269   38.7306 C.ar    1  UNL1       -0.0001
     26 C           0.3662    1.7067   39.3855 C.ar    1  UNL1        0.0294
     27 C           1.3381    0.5741   39.2346 C.ar    1  UNL1        0.1401
     28 F           1.0587   -0.7461   39.8895 F       1  UNL1       -0.2042
     29 C           2.5893    0.7618   38.4289 C.ar    1  UNL1        0.0294
     30 C           2.8687    2.0821   37.7740 C.ar    1  UNL1       -0.0001
@<TRIPOS>BOND
     1    20    21    1
     2    21    22    1
     3    21    19    1
     4    19    18    1
     5    18    16    1
     6    16    17    1
     7    16    10    1
     8    10    11    1
     9    11    12    1
    10    12    13    1
    11    13     1    1
    12     1     2   ar
    13     2     3   ar
    14     3     4   ar
    15     4     5   ar
    16     5     6   ar
    17     6     7   ar
    18     7     8   ar
    19     8     9   ar
    20     9    23    1
    21    23    24    1
    22    24    25   ar
    23    25    26   ar
    24    26    27   ar
    25    27    28    1
    26    27    29   ar
    27    29    30   ar
    28    13    14    1
    29    14    15    1
    30    15    10    1
    31     9     1   ar
    32    30    24   ar
    33     8     3   ar
@<TRIPOS>MOLECULE
*****
 30 33 0 0 0
SMALL
GASTEIGER

@<TRIPOS>ATOM
      1 C          -9.1094  -18.3821   23.3182 C.ar    1  UNL1        0.2014
      2 N          -9.7643  -18.6889   24.6323 N.ar    1  UNL1       -0.2136
      3 C         -11.2446  -18.5137   24.4646 C.ar    1  UNL1        0.0999
      4 C         -12.3894  -18.6786   25.4198 C.ar    1  UNL1        0.0207
      5 C         -13.7941  -18.4283   24.9571 C.ar    1  UNL1        0.0016
      6 C         -14.0540  -18.0133   23.5393 C.ar    1  UNL1        0.0016
      7 C         -12.9093  -17.8484   22.5842 C.ar    1  UNL1        0.0188
      8 C         -11.5046  -18.0987   23.0468 C.ar    1  UNL1        0.0801
      9 N         -10.1849  -18.0173   22.3383 N.ar    1  UNL1       -0.2954
     10 C          -4.6935  -18.5300   22.4652 C.3     1  UNL1        0.0610
     11 C          -5.3037  -17.2897   23.0477 C.3     1  UNL1        0.0375
     12 C          -6.7757  -17.2404   23.3320 C.3     1  UNL1        0.0949
     13 N          -7.6374  -18.4314   23.0339 N.pl3   1  UNL1       -0.2794
     14 C          -7.0272  -19.6717   22.4515 C.3     1  UNL1        0.0949
     15 C          -5.5552  -19.7210   22.1671 C.3     1  UNL1        0.0375
     16 N          -3.2215  -18.5793   22.1809 N.3     1  UNL1       -0.2715
     17 C          -2.5955  -19.8491   21.6852 C.3     1  UNL1        0.0896
     18 C          -2.3755  -17.3588   22.3923 C.3     1  UNL1        0.0896
     19 C          -1.9315  -16.5411   21.2158 C.3     1  UNL1        0.0897
     20 C           0.0548  -17.6714   19.9800 C.3     1  UNL1        0.0897
     21 N          -1.3751  -17.2186   19.9986 N.3     1  UNL1       -0.2691
     22 C          -2.2486  -17.4433   18.8001 C.3     1  UNL1        0.0897
     23 C          -9.9773  -17.6378   20.9021 C.3     1  UNL1        0.1354
     24 C          -9.6766  -18.6961   19.8826 C.ar    1  UNL1        0.0006
     25 C          -8.2673  -19.1720   19.6888 C.ar    1  UNL1       -0.0001
     26 C          -7.9665  -20.2304   18.6693 C.ar    1  UNL1        0.0294
     27 C          -9.0751  -20.8128   17.8435 C.ar    1  UNL1        0.1401
     28 F          -8.7743  -21.8711   16.8239 F       1  UNL1       -0.2042
     29 C         -10.4843  -20.3369   18.0372 C.ar    1  UNL1        0.0294
     30 C         -10.7851  -19.2786   19.0567 C.ar    1  UNL1       -0.0001
@<TRIPOS>BOND
     1    20    21    1
     2    21    22    1
     3    21    19    1
     4    19    18    1
     5    18    16    1
     6    16    17    1
     7    16    10    1
     8    10    11    1
     9    11    12    1
    10    12    13    1
    11    13     1    1
    12     1     2   ar
    13     2     3   ar
    14     3     4   ar
    15     4     5   ar
    16     5     6   ar
    17     6     7   ar
    18     7     8   ar
    19     8     9   ar
    20     9    23    1
    21    23    24    1
    22    24    25   ar
    23    25    26   ar
    24    26    27   ar
    25    27    28    1
    26    27    29   ar
    27    29    30   ar
    28    13    14    1
    29    14    15    1
    30    15    10    1
    31     9     1   ar
    32    30    24   ar
    33     8     3   ar
@<TRIPOS>MOLECULE
*****
 30 33 0 0 0
SMALL
GASTEIGER

@<TRIPOS>ATOM
      1 C          -6.2475  -18.4472   22.3560 C.ar    1  UNL1        0.2014
      2 N          -5.2203  -17.3803   22.5939 N.ar    1  UNL1       -0.2136
      3 C          -3.9029  -17.8829   22.0822 C.ar    1  UNL1        0.0999
      4 C          -2.5369  -17.2642   22.0492 C.ar    1  UNL1        0.0207
      5 C          -1.3839  -18.0230   21.4621 C.ar    1  UNL1        0.0016
      6 C          -1.5969  -19.4005   20.9079 C.ar    1  UNL1        0.0016
      7 C          -2.9629  -20.0192   20.9409 C.ar    1  UNL1        0.0188
      8 C          -4.1159  -19.2604   21.5280 C.ar    1  UNL1        0.0801
      9 N          -5.5650  -19.6091   21.6973 N.ar    1  UNL1       -0.2954
     10 C         -10.6107  -18.2045   23.4301 C.3     1  UNL1        0.0610
     11 C          -9.8588  -16.9602   23.0612 C.3     1  UNL1        0.0375
     12 C          -8.4044  -17.0410   22.7032 C.3     1  UNL1        0.0949
     13 N          -7.7019  -18.3663   22.7141 N.pl3   1  UNL1       -0.2794
     14 C          -8.4538  -19.6107   23.0830 C.3     1  UNL1        0.0949
     15 C          -9.9082  -19.5298   23.4410 C.3     1  UNL1        0.0375
     16 N         -12.0651  -18.1236   23.7882 N.3     1  UNL1       -0.2715
     17 C         -12.5849  -18.8621   24.9858 C.3     1  UNL1        0.0896
     18 C         -12.9997  -17.3042   22.9485 C.3     1  UNL1        0.0896
     19 C         -13.2232  -17.6613   21.5089 C.3     1  UNL1        0.0897
     20 C         -11.2883  -18.3761   19.9292 C.3     1  UNL1        0.0897
     21 N         -12.1893  -17.3109   20.4801 N.3     1  UNL1       -0.2691
     22 C         -12.0565  -15.8953   20.0022 C.3     1  UNL1        0.0897
     23 C          -6.2170  -20.8942   21.2808 C.3     1  UNL1        0.1354
     24 C          -7.0705  -20.9372   20.0482 C.ar    1  UNL1        0.0006
     25 C          -7.1452  -22.1929   19.2310 C.ar    1  UNL1       -0.0001
     26 C          -7.9987  -22.2360   17.9983 C.ar    1  UNL1        0.0294
     27 C          -8.7776  -21.0233   17.5826 C.ar    1  UNL1        0.1401
     28 F          -9.6311  -21.0663   16.3499 F       1  UNL1       -0.2042
     29 C          -8.7029  -19.7676   18.3997 C.ar    1  UNL1        0.0294
     30 C          -7.8494  -19.7246   19.6325 C.ar    1  UNL1       -0.0001
@<TRIPOS>BOND
     1    20    21    1
     2    21    22    1
     3    21    19    1
     4    19    18    1
     5    18    16    1
     6    16    17    1
     7    16    10    1
     8    10    11    1
     9    11    12    1
    10    12    13    1
    11    13     1    1
    12     1     2   ar
    13     2     3   ar
    14     3     4   ar
    15     4     5   ar
    16     5     6   ar
    17     6     7   ar
    18     7     8   ar
    19     8     9   ar
    20     9    23    1
    21    23    24    1
    22    24    25   ar
    23    25    26   ar
    24    26    27   ar
    25    27    28    1
    26    27    29   ar
    27    29    30   ar
    28    13    14    1
    29    14    15    1
    30    15    10    1
    31     9     1   ar
    32    30    24   ar
    33     8     3   ar
@<TRIPOS>MOLECULE
*****
 30 33 0 0 0
SMALL
GASTEIGER

@<TRIPOS>ATOM
      1 C           1.6750    4.3999   34.4330 C.ar    1  UNL1        0.2014
      2 N           0.6609    5.0388   33.5311 N.ar    1  UNL1       -0.2136
      3 C          -0.1979    5.9421   34.3657 C.ar    1  UNL1        0.0999
      4 C          -1.3576    6.8276   34.0179 C.ar    1  UNL1        0.0207
      5 C          -2.0340    7.6324   35.0877 C.ar    1  UNL1        0.0016
      6 C          -1.5506    7.5518   36.5055 C.ar    1  UNL1        0.0016
      7 C          -0.3910    6.6663   36.8533 C.ar    1  UNL1        0.0188
      8 C           0.2854    5.8615   35.7834 C.ar    1  UNL1        0.0801
      9 N           1.4429    4.9084   35.8250 N.ar    1  UNL1       -0.2954
     10 C           4.8552    1.4721   33.1823 C.3     1  UNL1        0.0610
     11 C           5.1864    2.9293   33.3117 C.3     1  UNL1        0.0375
     12 C           4.1264    3.9053   33.7286 C.3     1  UNL1        0.0949
     13 N           2.7351    3.4240   34.0161 N.pl3   1  UNL1       -0.2794
     14 C           2.4039    1.9668   33.8867 C.3     1  UNL1        0.0949
     15 C           3.4639    0.9908   33.4698 C.3     1  UNL1        0.0375
     16 N           5.9153    0.4962   32.7654 N.3     1  UNL1       -0.2715
     17 C           6.2239    0.3000   31.3107 C.3     1  UNL1        0.0896
     18 C           6.6668   -0.2837   33.8032 C.3     1  UNL1        0.0896
     19 C           7.4768    0.4354   34.8410 C.3     1  UNL1        0.0897
     20 C           7.6457    1.4889   37.2098 C.3     1  UNL1        0.0897
     21 N           6.9402    0.5961   36.2325 N.3     1  UNL1       -0.2691
     22 C           5.6983   -0.1360   36.6467 C.3     1  UNL1        0.0897
     23 C           2.2302    4.5301   37.0445 C.3     1  UNL1        0.1354
     24 C           1.9282    3.2496   37.7648 C.ar    1  UNL1        0.0006
     25 C           0.7058    3.1449   38.6279 C.ar    1  UNL1       -0.0001
     26 C           0.4038    1.8643   39.3483 C.ar    1  UNL1        0.0294
     27 C           1.3242    0.6884   39.2056 C.ar    1  UNL1        0.1401
     28 F           1.0221   -0.5921   39.9260 F       1  UNL1       -0.2042
     29 C           2.5464    0.7932   38.3425 C.ar    1  UNL1        0.0294
     30 C           2.8485    2.0737   37.6221 C.ar    1  UNL1       -0.0001
@<TRIPOS>BOND
     1    20    21    1
     2    21    22    1
     3    21    19    1
     4    19    18    1
     5    18    16    1
     6    16    17    1
     7    16    10    1
     8    10    11    1
     9    11    12    1
    10    12    13    1
    11    13     1    1
    12     1     2   ar
    13     2     3   ar
    14     3     4   ar
    15     4     5   ar
    16     5     6   ar
    17     6     7   ar
    18     7     8   ar
    19     8     9   ar
    20     9    23    1
    21    23    24    1
    22    24    25   ar
    23    25    26   ar
    24    26    27   ar
    25    27    28    1
    26    27    29   ar
    27    29    30   ar
    28    13    14    1
    29    14    15    1
    30    15    10    1
    31     9     1   ar
    32    30    24   ar
    33     8     3   ar
@<TRIPOS>MOLECULE
*****
 30 33 0 0 0
SMALL
GASTEIGER

@<TRIPOS>ATOM
      1 C           6.6016   -3.6929   23.5293 C.ar    1  UNL1        0.2014
      2 N           6.5763   -4.4327   24.8339 N.ar    1  UNL1       -0.2136
      3 C           7.5066   -5.6040   24.7207 C.ar    1  UNL1        0.0999
      4 C           7.8846   -6.6829   25.6917 C.ar    1  UNL1        0.0207
      5 C           8.8629   -7.7460   25.2880 C.ar    1  UNL1        0.0016
      6 C           9.4630   -7.7300   23.9134 C.ar    1  UNL1        0.0016
      7 C           9.0850   -6.6511   22.9425 C.ar    1  UNL1        0.0188
      8 C           8.1067   -5.5880   23.3461 C.ar    1  UNL1        0.0801
      9 N           7.5474   -4.4069   22.6098 N.ar    1  UNL1       -0.2954
     10 C           4.2524    0.0173   22.5466 C.3     1  UNL1        0.0610
     11 C           5.7068    0.1217   22.8981 C.3     1  UNL1        0.0375
     12 C           6.4899   -1.1150   23.2256 C.3     1  UNL1        0.0949
     13 N           5.8185   -2.4561   23.2017 N.pl3   1  UNL1       -0.2794
     14 C           4.3641   -2.5605   22.8502 C.3     1  UNL1        0.0949
     15 C           3.5810   -1.3238   22.5226 C.3     1  UNL1        0.0375
     16 N           3.4693    1.2540   22.2190 N.3     1  UNL1       -0.2715
     17 C           2.6375    1.9172   23.2765 C.3     1  UNL1        0.0896
     18 C           3.5179    1.8276   20.8339 C.3     1  UNL1        0.0896
     19 C           3.1472    0.9760   19.6560 C.3     1  UNL1        0.0897
     20 C           0.9154    1.5000   18.4334 C.3     1  UNL1        0.0897
     21 N           1.7070    0.6545   19.3866 N.3     1  UNL1       -0.2691
     22 C           1.0585   -0.5125   20.0704 C.3     1  UNL1        0.0897
     23 C           7.8763   -4.0096   21.2012 C.3     1  UNL1        0.1354
     24 C           6.8106   -3.4350   20.3158 C.ar    1  UNL1        0.0006
     25 C           5.6157   -4.2630   19.9461 C.ar    1  UNL1       -0.0001
     26 C           4.5499   -3.6885   19.0606 C.ar    1  UNL1        0.0294
     27 C           4.6791   -2.2859   18.5447 C.ar    1  UNL1        0.1401
     28 F           3.6134   -1.7114   17.6592 F       1  UNL1       -0.2042
     29 C           5.8740   -1.4580   18.9143 C.ar    1  UNL1        0.0294
     30 C           6.9398   -2.0325   19.7998 C.ar    1  UNL1       -0.0001
@<TRIPOS>BOND
     1    20    21    1
     2    21    22    1
     3    21    19    1
     4    19    18    1
     5    18    16    1
     6    16    17    1
     7    16    10    1
     8    10    11    1
     9    11    12    1
    10    12    13    1
    11    13     1    1
    12     1     2   ar
    13     2     3   ar
    14     3     4   ar
    15     4     5   ar
    16     5     6   ar
    17     6     7   ar
    18     7     8   ar
    19     8     9   ar
    20     9    23    1
    21    23    24    1
    22    24    25   ar
    23    25    26   ar
    24    26    27   ar
    25    27    28    1
    26    27    29   ar
    27    29    30   ar
    28    13    14    1
    29    14    15    1
    30    15    10    1
    31     9     1   ar
    32    30    24   ar
    33     8     3   ar
@<TRIPOS>MOLECULE
*****
 30 33 0 0 0
SMALL
GASTEIGER

@<TRIPOS>ATOM
      1 C          -1.9196    3.0498   20.9980 C.ar    1  UNL1        0.2014
      2 N          -3.2992    2.9816   20.4131 N.ar    1  UNL1       -0.2136
      3 C          -4.2579    3.5456   21.4196 C.ar    1  UNL1        0.0999
      4 C          -5.7458    3.7335   21.3930 C.ar    1  UNL1        0.0207
      5 C          -6.4466    4.3382   22.5733 C.ar    1  UNL1        0.0016
      6 C          -5.6594    4.7550   23.7802 C.ar    1  UNL1        0.0016
      7 C          -4.1715    4.5671   23.8068 C.ar    1  UNL1        0.0188
      8 C          -3.4707    3.9624   22.6265 C.ar    1  UNL1        0.0801
      9 N          -2.0257    3.6560   22.3660 N.ar    1  UNL1       -0.2954
     10 C           1.8714    1.6770   18.9997 C.3     1  UNL1        0.0610
     11 C           1.1353    0.7547   19.9257 C.3     1  UNL1        0.0375
     12 C          -0.1284    1.2123   20.5918 C.3     1  UNL1        0.0949
     13 N          -0.6560    2.5922   20.3319 N.pl3   1  UNL1       -0.2794
     14 C           0.0802    3.5145   19.4060 C.3     1  UNL1        0.0949
     15 C           1.3439    3.0569   18.7399 C.3     1  UNL1        0.0375
     16 N           3.1351    1.2194   18.3336 N.3     1  UNL1       -0.2715
     17 C           4.3582    2.0870   18.3690 C.3     1  UNL1        0.0896
     18 C           3.1757   -0.1058   17.6322 C.3     1  UNL1        0.0896
     19 C           4.3759   -0.9941   17.7760 C.3     1  UNL1        0.0897
     20 C           3.3331   -2.2344   19.8068 C.3     1  UNL1        0.0897
     21 N           4.3186   -2.1922   18.6768 N.3     1  UNL1       -0.2691
     22 C           5.2468   -3.3479   18.4475 C.3     1  UNL1        0.0897
     23 C          -0.8866    3.9111   23.3080 C.3     1  UNL1        0.1354
     24 C          -0.6966    3.0341   24.5099 C.ar    1  UNL1        0.0006
     25 C          -1.4219    3.3432   25.7861 C.ar    1  UNL1       -0.0001
     26 C          -1.2319    2.4663   26.9882 C.ar    1  UNL1        0.0294
     27 C          -0.3166    1.2802   26.9140 C.ar    1  UNL1        0.1401
     28 F          -0.1266    0.4033   28.1161 F       1  UNL1       -0.2042
     29 C           0.4086    0.9711   25.6380 C.ar    1  UNL1        0.0294
     30 C           0.2187    1.8480   24.4359 C.ar    1  UNL1       -0.0001
@<TRIPOS>BOND
     1    20    21    1
     2    21    22    1
     3    21    19    1
     4    19    18    1
     5    18    16    1
     6    16    17    1
     7    16    10    1
     8    10    11    1
     9    11    12    1
    10    12    13    1
    11    13     1    1
    12     1     2   ar
    13     2     3   ar
    14     3     4   ar
    15     4     5   ar
    16     5     6   ar
    17     6     7   ar
    18     7     8   ar
    19     8     9   ar
    20     9    23    1
    21    23    24    1
    22    24    25   ar
    23    25    26   ar
    24    26    27   ar
    25    27    28    1
    26    27    29   ar
    27    29    30   ar
    28    13    14    1
    29    14    15    1
    30    15    10    1
    31     9     1   ar
    32    30    24   ar
    33     8     3   ar
@<TRIPOS>MOLECULE
*****
 30 33 0 0 0
SMALL
GASTEIGER

@<TRIPOS>ATOM
      1 C           4.5835    0.1020   34.8692 C.ar    1  UNL1        0.2014
      2 N           4.2911   -0.0009   36.3368 N.ar    1  UNL1       -0.2136
      3 C           3.5030    1.2105   36.7385 C.ar    1  UNL1        0.0999
      4 C           2.9375    1.6481   38.0571 C.ar    1  UNL1        0.0207
      5 C           2.1772    2.9373   38.1563 C.ar    1  UNL1        0.0016
      6 C           1.9825    3.7889   36.9369 C.ar    1  UNL1        0.0016
      7 C           2.5480    3.3513   35.6183 C.ar    1  UNL1        0.0188
      8 C           3.3083    2.0621   35.5192 C.ar    1  UNL1        0.0801
      9 N           3.9761    1.3770   34.3639 N.ar    1  UNL1       -0.2954
     10 C           6.8799   -2.8891   32.4135 C.3     1  UNL1        0.0610
     11 C           5.4539   -3.1639   32.7891 C.3     1  UNL1        0.0375
     12 C           4.6885   -2.1668   33.6077 C.3     1  UNL1        0.0949
     13 N           5.3490   -0.8951   34.0506 N.pl3   1  UNL1       -0.2794
     14 C           6.7749   -0.6203   33.6750 C.3     1  UNL1        0.0949
     15 C           7.5404   -1.6173   32.8565 C.3     1  UNL1        0.0375
     16 N           7.6453   -3.8861   31.5950 N.3     1  UNL1       -0.2715
     17 C           9.1437   -3.8307   31.5542 C.3     1  UNL1        0.0896
     18 C           6.9124   -4.9386   30.8171 C.3     1  UNL1        0.0896
     19 C           7.4226   -5.3705   29.4743 C.3     1  UNL1        0.0897
     20 C           6.5362   -5.9080   27.0920 C.3     1  UNL1        0.0897
     21 N           6.7073   -4.9425   28.2271 N.3     1  UNL1       -0.2691
     22 C           6.1632   -3.5492   28.1152 C.3     1  UNL1        0.0897
     23 C           4.0274    1.8788   32.9512 C.3     1  UNL1        0.1354
     24 C           3.0976    1.3121   31.9197 C.ar    1  UNL1        0.0006
     25 C           3.4413    0.0279   31.2248 C.ar    1  UNL1       -0.0001
     26 C           2.5115   -0.5389   30.1932 C.ar    1  UNL1        0.0294
     27 C           1.2379    0.1785   29.8564 C.ar    1  UNL1        0.1401
     28 F           0.3082   -0.3883   28.8248 F       1  UNL1       -0.2042
     29 C           0.8942    1.4627   30.5513 C.ar    1  UNL1        0.0294
     30 C           1.8240    2.0295   31.5829 C.ar    1  UNL1       -0.0001
@<TRIPOS>BOND
     1    20    21    1
     2    21    22    1
     3    21    19    1
     4    19    18    1
     5    18    16    1
     6    16    17    1
     7    16    10    1
     8    10    11    1
     9    11    12    1
    10    12    13    1
    11    13     1    1
    12     1     2   ar
    13     2     3   ar
    14     3     4   ar
    15     4     5   ar
    16     5     6   ar
    17     6     7   ar
    18     7     8   ar
    19     8     9   ar
    20     9    23    1
    21    23    24    1
    22    24    25   ar
    23    25    26   ar
    24    26    27   ar
    25    27    28    1
    26    27    29   ar
    27    29    30   ar
    28    13    14    1
    29    14    15    1
    30    15    10    1
    31     9     1   ar
    32    30    24   ar
    33     8     3   ar
@<TRIPOS>MOLECULE
*****
 30 33 0 0 0
SMALL
GASTEIGER

@<TRIPOS>ATOM
      1 C          -3.5933  -16.7956   22.8685 C.ar    1  UNL1        0.2014
      2 N          -2.4824  -15.9585   22.3072 N.ar    1  UNL1       -0.2136
      3 C          -1.7839  -16.7629   21.2511 C.ar    1  UNL1        0.0999
      4 C          -0.6172  -16.4528   20.3609 C.ar    1  UNL1        0.0207
      5 C          -0.1297  -17.4769   19.3794 C.ar    1  UNL1        0.0016
      6 C          -0.8090  -18.8112   19.2881 C.ar    1  UNL1        0.0016
      7 C          -1.9758  -19.1213   20.1783 C.ar    1  UNL1        0.0188
      8 C          -2.4632  -18.0972   21.1598 C.ar    1  UNL1        0.0801
      9 N          -3.5814  -18.1174   22.1594 N.ar    1  UNL1       -0.2954
     10 C          -6.4585  -15.5588   26.1106 C.3     1  UNL1        0.0610
     11 C          -5.3039  -16.4601   26.4338 C.3     1  UNL1        0.0375
     12 C          -4.3488  -16.8724   25.3531 C.3     1  UNL1        0.0949
     13 N          -4.5484  -16.3834   23.9492 N.pl3   1  UNL1       -0.2794
     14 C          -5.7030  -15.4821   23.6260 C.3     1  UNL1        0.0949
     15 C          -6.6581  -15.0698   24.7067 C.3     1  UNL1        0.0375
     16 N          -7.4136  -15.1466   27.1913 N.3     1  UNL1       -0.2715
     17 C          -7.0301  -14.0668   28.1592 C.3     1  UNL1        0.0896
     18 C          -8.7521  -15.8141   27.3040 C.3     1  UNL1        0.0896
     19 C          -8.9206  -17.2366   26.8589 C.3     1  UNL1        0.0897
     20 C          -9.5588  -16.4505   24.4662 C.3     1  UNL1        0.0897
     21 N          -9.4769  -17.5359   25.4983 N.3     1  UNL1       -0.2691
     22 C          -9.9512  -18.9205   25.1699 C.3     1  UNL1        0.0897
     23 C          -4.5226  -19.2589   22.4065 C.3     1  UNL1        0.1354
     24 C          -5.8638  -19.2840   21.7354 C.ar    1  UNL1        0.0006
     25 C          -6.0282  -19.9733   20.4132 C.ar    1  UNL1       -0.0001
     26 C          -7.3694  -19.9984   19.7420 C.ar    1  UNL1        0.0294
     27 C          -8.5463  -19.3342   20.3930 C.ar    1  UNL1        0.1401
     28 F          -9.8875  -19.3593   19.7218 F       1  UNL1       -0.2042
     29 C          -8.3819  -18.6449   21.7150 C.ar    1  UNL1        0.0294
     30 C          -7.0407  -18.6198   22.3862 C.ar    1  UNL1       -0.0001
@<TRIPOS>BOND
     1    20    21    1
     2    21    22    1
     3    21    19    1
     4    19    18    1
     5    18    16    1
     6    16    17    1
     7    16    10    1
     8    10    11    1
     9    11    12    1
    10    12    13    1
    11    13     1    1
    12     1     2   ar
    13     2     3   ar
    14     3     4   ar
    15     4     5   ar
    16     5     6   ar
    17     6     7   ar
    18     7     8   ar
    19     8     9   ar
    20     9    23    1
    21    23    24    1
    22    24    25   ar
    23    25    26   ar
    24    26    27   ar
    25    27    28    1
    26    27    29   ar
    27    29    30   ar
    28    13    14    1
    29    14    15    1
    30    15    10    1
    31     9     1   ar
    32    30    24   ar
    33     8     3   ar
