@<TRIPOS>MOLECULE
*****
 21 22 0 0 0
SMALL
GASTEIGER

@<TRIPOS>ATOM
      1 N          -9.2052  -17.1032   22.7011 N.am    1  UNL1       -0.2763
      2 C          -8.1279  -16.0600   22.6667 C.2     1  UNL1        0.2499
      3 O          -8.0550  -15.0947   21.5208 O.2     1  UNL1       -0.2699
      4 C          -7.1236  -15.9820   23.7781 C.ar    1  UNL1        0.0650
      5 C          -5.6981  -16.3778   23.5299 C.ar    1  UNL1        0.0054
      6 C          -4.6938  -16.2998   24.6413 C.ar    1  UNL1        0.0011
      7 C          -5.1149  -15.8261   26.0009 C.ar    1  UNL1        0.0123
      8 C          -6.5403  -15.4304   26.2490 C.ar    1  UNL1        0.0683
      9 CL         -6.9614  -14.9567   27.6085 Cl      1  UNL1       -0.0814
     10 C          -7.5446  -15.5084   25.1376 C.ar    1  UNL1        0.0725
     11 CL         -8.9701  -15.1126   25.3857 Cl      1  UNL1       -0.0812
     12 C         -10.2095  -17.1812   21.5897 C.3     1  UNL1        0.0927
     13 C         -10.1951  -18.1628   20.4556 C.3     1  UNL1        0.0383
     14 C         -11.3813  -17.8795   19.5822 C.3     1  UNL1        0.0704
     15 N         -12.1288  -16.7228   20.1766 N.3     1  UNL1       -0.2960
     16 C         -11.4046  -16.2912   21.4173 C.3     1  UNL1        0.0887
     17 H         -13.0790  -17.0091   20.4124 H       1  UNL1        0.1233
     18 C          -9.2781  -18.0685   23.8470 C.3     1  UNL1        0.0936
     19 C         -11.7391  -18.6183   24.4722 C.3     1  UNL1        0.0018
     20 C         -10.4091  -19.0503   23.9297 C.3     1  UNL1        0.0199
     21 C         -10.2100  -20.4642   23.4699 C.3     1  UNL1        0.0018
@<TRIPOS>BOND
     1    19    20    1
     2    20    21    1
     3    20    18    1
     4    18     1    1
     5     1     2   am
     6     2     3    2
     7     2     4    1
     8     4     5   ar
     9     5     6   ar
    10     6     7   ar
    11     7     8   ar
    12     8     9    1
    13     8    10   ar
    14    10    11    1
    15    12     1    1
    16    12    13    1
    17    13    14    1
    18    14    15    1
    19    15    16    1
    20    10     4   ar
    21    16    12    1
    22    15    17    1
@<TRIPOS>MOLECULE
*****
 21 22 0 0 0
SMALL
GASTEIGER

@<TRIPOS>ATOM
      1 N          -9.3548  -16.8739   22.8931 N.am    1  UNL1       -0.2763
      2 C          -8.1542  -16.0231   22.6022 C.2     1  UNL1        0.2499
      3 O          -8.1163  -15.1776   21.3638 O.2     1  UNL1       -0.2699
      4 C          -6.9913  -16.0179   23.5497 C.ar    1  UNL1        0.0650
      5 C          -6.9609  -15.0488   24.6943 C.ar    1  UNL1        0.0054
      6 C          -5.7980  -15.0436   25.6418 C.ar    1  UNL1        0.0011
      7 C          -4.6656  -16.0074   25.4447 C.ar    1  UNL1        0.0123
      8 C          -4.6961  -16.9764   24.3002 C.ar    1  UNL1        0.0683
      9 CL         -3.5637  -17.9403   24.1031 Cl      1  UNL1       -0.0814
     10 C          -5.8590  -16.9817   23.3527 C.ar    1  UNL1        0.0725
     11 CL         -5.8894  -17.9508   22.2081 Cl      1  UNL1       -0.0812
     12 C         -10.5177  -16.8791   21.9456 C.3     1  UNL1        0.0927
     13 C         -11.7870  -16.0955   22.1033 C.3     1  UNL1        0.0383
     14 C         -12.6692  -16.4010   20.9292 C.3     1  UNL1        0.0704
     15 N         -11.9451  -17.3734   20.0459 N.3     1  UNL1       -0.2960
     16 C         -10.6154  -17.6689   20.6741 C.3     1  UNL1        0.0887
     17 H         -11.8080  -16.9653   19.1212 H       1  UNL1        0.1233
     18 C          -9.3926  -17.7194   24.1316 C.3     1  UNL1        0.0936
     19 C          -9.4858  -20.2890   23.7596 C.3     1  UNL1        0.0018
     20 C         -10.1641  -19.0058   24.1382 C.3     1  UNL1        0.0199
     21 C         -11.6138  -19.0090   24.5233 C.3     1  UNL1        0.0018
@<TRIPOS>BOND
     1    19    20    1
     2    20    21    1
     3    20    18    1
     4    18     1    1
     5     1     2   am
     6     2     3    2
     7     2     4    1
     8     4     5   ar
     9     5     6   ar
    10     6     7   ar
    11     7     8   ar
    12     8     9    1
    13     8    10   ar
    14    10    11    1
    15    12     1    1
    16    12    13    1
    17    13    14    1
    18    14    15    1
    19    15    16    1
    20    10     4   ar
    21    16    12    1
    22    15    17    1
@<TRIPOS>MOLECULE
*****
 21 22 0 0 0
SMALL
GASTEIGER

@<TRIPOS>ATOM
      1 N          -7.5053  -18.6535   21.6930 N.am    1  UNL1       -0.2763
      2 C          -8.0642  -17.3819   22.2593 C.2     1  UNL1        0.2499
      3 O          -7.1393  -16.2803   22.6851 O.2     1  UNL1       -0.2699
      4 C          -9.5478  -17.2117   22.3997 C.ar    1  UNL1        0.0650
      5 C         -10.2850  -16.2757   21.4883 C.ar    1  UNL1        0.0054
      6 C         -11.7687  -16.1055   21.6287 C.ar    1  UNL1        0.0011
      7 C         -12.5152  -16.8714   22.6805 C.ar    1  UNL1        0.0123
      8 C         -11.7781  -17.8074   23.5918 C.ar    1  UNL1        0.0683
      9 CL        -12.5246  -18.5733   24.6436 Cl      1  UNL1       -0.0814
     10 C         -10.2944  -17.9775   23.4514 C.ar    1  UNL1        0.0725
     11 CL         -9.5572  -18.9136   24.3628 Cl      1  UNL1       -0.0812
     12 C          -6.0216  -18.8237   21.5526 C.3     1  UNL1        0.0927
     13 C          -5.2966  -19.2486   20.3102 C.3     1  UNL1        0.0383
     14 C          -3.8293  -19.2863   20.6197 C.3     1  UNL1        0.0704
     15 N          -3.6476  -18.8847   22.0534 N.3     1  UNL1       -0.2960
     16 C          -5.0025  -18.5988   22.6300 C.3     1  UNL1        0.0887
     17 H          -3.0650  -18.0492   22.1077 H       1  UNL1        0.1233
     18 C          -8.4302  -19.7550   21.2672 C.3     1  UNL1        0.0936
     19 C         -10.7013  -19.5509   20.0221 C.3     1  UNL1        0.0018
     20 C          -9.2039  -19.6322   19.9880 C.3     1  UNL1        0.0199
     21 C          -8.4802  -19.5908   18.6748 C.3     1  UNL1        0.0018
@<TRIPOS>BOND
     1    19    20    1
     2    20    21    1
     3    20    18    1
     4    18     1    1
     5     1     2   am
     6     2     3    2
     7     2     4    1
     8     4     5   ar
     9     5     6   ar
    10     6     7   ar
    11     7     8   ar
    12     8     9    1
    13     8    10   ar
    14    10    11    1
    15    12     1    1
    16    12    13    1
    17    13    14    1
    18    14    15    1
    19    15    16    1
    20    10     4   ar
    21    16    12    1
    22    15    17    1
@<TRIPOS>MOLECULE
*****
 21 22 0 0 0
SMALL
GASTEIGER

@<TRIPOS>ATOM
      1 N          -7.0014  -18.2642   22.3901 N.am    1  UNL1       -0.2763
      2 C          -7.9832  -19.3663   22.6572 C.2     1  UNL1        0.2499
      3 O          -7.5469  -20.7985   22.5636 O.2     1  UNL1       -0.2699
      4 C          -9.4014  -19.0364   23.0177 C.ar    1  UNL1        0.0650
      5 C          -9.8597  -19.1524   24.4414 C.ar    1  UNL1        0.0054
      6 C         -11.2778  -18.8225   24.8019 C.ar    1  UNL1        0.0011
      7 C         -12.2376  -18.3766   23.7389 C.ar    1  UNL1        0.0123
      8 C         -11.7793  -18.2606   22.3154 C.ar    1  UNL1        0.0683
      9 CL        -12.7392  -17.8147   21.2524 Cl      1  UNL1       -0.0814
     10 C         -10.3612  -18.5905   21.9548 C.ar    1  UNL1        0.0725
     11 CL         -9.9029  -18.4745   20.5312 Cl      1  UNL1       -0.0812
     12 C          -5.5833  -18.5941   22.0296 C.3     1  UNL1        0.0927
     13 C          -4.3870  -18.4345   22.9204 C.3     1  UNL1        0.0383
     14 C          -3.1768  -18.8833   22.1562 C.3     1  UNL1        0.0704
     15 N          -3.6251  -19.3204   20.7931 N.3     1  UNL1       -0.2960
     16 C          -5.1123  -19.1416   20.7148 C.3     1  UNL1        0.0887
     17 H          -3.3862  -20.3013   20.6482 H       1  UNL1        0.1233
     18 C          -7.4377  -16.8321   22.4837 C.3     1  UNL1        0.0936
     19 C          -8.4365  -15.8781   24.6842 C.3     1  UNL1        0.0018
     20 C          -7.2652  -16.0779   23.7687 C.3     1  UNL1        0.0199
     21 C          -5.9213  -15.5235   24.1384 C.3     1  UNL1        0.0018
@<TRIPOS>BOND
     1    19    20    1
     2    20    21    1
     3    20    18    1
     4    18     1    1
     5     1     2   am
     6     2     3    2
     7     2     4    1
     8     4     5   ar
     9     5     6   ar
    10     6     7   ar
    11     7     8   ar
    12     8     9    1
    13     8    10   ar
    14    10    11    1
    15    12     1    1
    16    12    13    1
    17    13    14    1
    18    14    15    1
    19    15    16    1
    20    10     4   ar
    21    16    12    1
    22    15    17    1
@<TRIPOS>MOLECULE
*****
 21 22 0 0 0
SMALL
GASTEIGER

@<TRIPOS>ATOM
      1 N          -7.3627  -18.5201   22.3356 N.am    1  UNL1       -0.2763
      2 C          -6.1878  -19.4358   22.1598 C.2     1  UNL1        0.2499
      3 O          -6.3906  -20.9221   22.1469 O.2     1  UNL1       -0.2699
      4 C          -4.8101  -18.8655   21.9968 C.ar    1  UNL1        0.0650
      5 C          -4.0600  -18.3625   23.1946 C.ar    1  UNL1        0.0054
      6 C          -2.6823  -17.7922   23.0316 C.ar    1  UNL1        0.0011
      7 C          -2.0546  -17.7248   21.6709 C.ar    1  UNL1        0.0123
      8 C          -2.8046  -18.2277   20.4732 C.ar    1  UNL1        0.0683
      9 CL         -2.1769  -18.1603   19.1125 Cl      1  UNL1       -0.0814
     10 C          -4.1823  -18.7981   20.6362 C.ar    1  UNL1        0.0725
     11 CL         -4.9324  -19.3010   19.4384 Cl      1  UNL1       -0.0812
     12 C          -8.7404  -19.0904   22.4985 C.3     1  UNL1        0.0927
     13 C          -9.2639  -19.7975   23.7134 C.3     1  UNL1        0.0383
     14 C         -10.6836  -20.1979   23.4409 C.3     1  UNL1        0.0704
     15 N         -11.0375  -19.7382   22.0577 N.3     1  UNL1       -0.2960
     16 C          -9.8365  -19.0538   21.4752 C.3     1  UNL1        0.0887
     17 H         -11.8211  -19.0865   22.0993 H       1  UNL1        0.1233
     18 C          -7.1598  -17.0338   22.3485 C.3     1  UNL1        0.0936
     19 C          -8.4794  -16.2326   24.4380 C.3     1  UNL1        0.0018
     20 C          -7.2070  -16.2817   23.6454 C.3     1  UNL1        0.0199
     21 C          -5.9816  -15.5786   24.1496 C.3     1  UNL1        0.0018
@<TRIPOS>BOND
     1    19    20    1
     2    20    21    1
     3    20    18    1
     4    18     1    1
     5     1     2   am
     6     2     3    2
     7     2     4    1
     8     4     5   ar
     9     5     6   ar
    10     6     7   ar
    11     7     8   ar
    12     8     9    1
    13     8    10   ar
    14    10    11    1
    15    12     1    1
    16    12    13    1
    17    13    14    1
    18    14    15    1
    19    15    16    1
    20    10     4   ar
    21    16    12    1
    22    15    17    1
@<TRIPOS>MOLECULE
*****
 21 22 0 0 0
SMALL
GASTEIGER

@<TRIPOS>ATOM
      1 N          -9.3320  -17.4231   23.6660 N.am    1  UNL1       -0.2763
      2 C          -8.3561  -17.3241   22.5313 C.2     1  UNL1        0.2499
      3 O          -8.8541  -17.1583   21.1261 O.2     1  UNL1       -0.2699
      4 C          -6.8822  -17.3907   22.8017 C.ar    1  UNL1        0.0650
      5 C          -6.2001  -16.2654   23.5219 C.ar    1  UNL1        0.0054
      6 C          -4.7262  -16.3321   23.7923 C.ar    1  UNL1        0.0011
      7 C          -3.9343  -17.5241   23.3425 C.ar    1  UNL1        0.0123
      8 C          -4.6164  -18.6493   22.6224 C.ar    1  UNL1        0.0683
      9 CL         -3.8245  -19.8412   22.1726 Cl      1  UNL1       -0.0814
     10 C          -6.0903  -18.5826   22.3520 C.ar    1  UNL1        0.0725
     11 CL         -6.7723  -19.7079   21.6318 Cl      1  UNL1       -0.0812
     12 C         -10.8059  -17.3565   23.3956 C.3     1  UNL1        0.0927
     13 C         -11.8226  -18.3854   23.7927 C.3     1  UNL1        0.0383
     14 C         -13.1670  -17.9140   23.3232 C.3     1  UNL1        0.0704
     15 N         -12.9812  -16.5938   22.6359 N.3     1  UNL1       -0.2960
     16 C         -11.5220  -16.2492   22.6807 C.3     1  UNL1        0.0887
     17 H         -13.5216  -15.8744   23.1163 H       1  UNL1        0.1233
     18 C          -8.8340  -17.5889   25.0713 C.3     1  UNL1        0.0936
     19 C          -8.3378  -16.5679   27.4082 C.3     1  UNL1        0.0018
     20 C          -8.6793  -16.3894   25.9585 C.3     1  UNL1        0.0199
     21 C          -8.8660  -15.0114   25.3961 C.3     1  UNL1        0.0018
@<TRIPOS>BOND
     1    19    20    1
     2    20    21    1
     3    20    18    1
     4    18     1    1
     5     1     2   am
     6     2     3    2
     7     2     4    1
     8     4     5   ar
     9     5     6   ar
    10     6     7   ar
    11     7     8   ar
    12     8     9    1
    13     8    10   ar
    14    10    11    1
    15    12     1    1
    16    12    13    1
    17    13    14    1
    18    14    15    1
    19    15    16    1
    20    10     4   ar
    21    16    12    1
    22    15    17    1
@<TRIPOS>MOLECULE
*****
 21 22 0 0 0
SMALL
GASTEIGER

@<TRIPOS>ATOM
      1 N          -7.3366  -18.9819   21.8325 N.am    1  UNL1       -0.2763
      2 C          -7.8892  -17.9443   22.7640 C.2     1  UNL1        0.2499
      3 O          -6.9942  -16.8686   23.3046 O.2     1  UNL1       -0.2699
      4 C          -9.3369  -17.9821   23.1551 C.ar    1  UNL1        0.0650
      5 C          -9.8188  -18.9962   24.1499 C.ar    1  UNL1        0.0054
      6 C         -11.2664  -19.0340   24.5409 C.ar    1  UNL1        0.0011
      7 C         -12.2321  -18.0578   23.9371 C.ar    1  UNL1        0.0123
      8 C         -11.7502  -17.0439   22.9424 C.ar    1  UNL1        0.0683
      9 CL        -12.7160  -16.0677   22.3386 Cl      1  UNL1       -0.0814
     10 C         -10.3026  -17.0060   22.5514 C.ar    1  UNL1        0.0725
     11 CL         -9.8207  -15.9920   21.5565 Cl      1  UNL1       -0.0812
     12 C          -5.8889  -18.9441   21.4415 C.3     1  UNL1        0.0927
     13 C          -4.7202  -19.0564   22.3751 C.3     1  UNL1        0.0383
     14 C          -3.4648  -18.9690   21.5588 C.3     1  UNL1        0.0704
     15 N          -3.8576  -18.8027   20.1207 N.3     1  UNL1       -0.2960
     16 C          -5.3558  -18.7873   20.0483 C.3     1  UNL1        0.0887
     17 H          -3.4924  -19.5797   19.5701 H       1  UNL1        0.1233
     18 C          -8.2316  -20.0576   21.2920 C.3     1  UNL1        0.0936
     19 C          -8.5481  -19.5615   18.7615 C.3     1  UNL1        0.0018
     20 C          -9.1320  -19.7691   20.1275 C.3     1  UNL1        0.0199
     21 C         -10.6162  -19.6883   20.3291 C.3     1  UNL1        0.0018
@<TRIPOS>BOND
     1    19    20    1
     2    20    21    1
     3    20    18    1
     4    18     1    1
     5     1     2   am
     6     2     3    2
     7     2     4    1
     8     4     5   ar
     9     5     6   ar
    10     6     7   ar
    11     7     8   ar
    12     8     9    1
    13     8    10   ar
    14    10    11    1
    15    12     1    1
    16    12    13    1
    17    13    14    1
    18    14    15    1
    19    15    16    1
    20    10     4   ar
    21    16    12    1
    22    15    17    1
@<TRIPOS>MOLECULE
*****
 21 22 0 0 0
SMALL
GASTEIGER

@<TRIPOS>ATOM
      1 N          -5.9811  -18.6563   22.4175 N.am    1  UNL1       -0.2763
      2 C          -6.8995  -17.5549   22.8571 C.2     1  UNL1        0.2499
      3 O          -6.3358  -16.2253   23.2629 O.2     1  UNL1       -0.2699
      4 C          -8.3817  -17.7828   22.8908 C.ar    1  UNL1        0.0650
      5 C          -8.9376  -19.0039   23.5616 C.ar    1  UNL1        0.0054
      6 C         -10.4198  -19.2319   23.5954 C.ar    1  UNL1        0.0011
      7 C         -11.3461  -18.2388   22.9583 C.ar    1  UNL1        0.0123
      8 C         -10.7902  -17.0177   22.2876 C.ar    1  UNL1        0.0683
      9 CL        -11.7164  -16.0246   21.6505 Cl      1  UNL1       -0.0814
     10 C          -9.3080  -16.7898   22.2538 C.ar    1  UNL1        0.0725
     11 CL         -8.7520  -15.5686   21.5830 Cl      1  UNL1       -0.0812
     12 C          -4.4989  -18.4283   22.3838 C.3     1  UNL1        0.0927
     13 C          -3.5907  -18.7038   21.2222 C.3     1  UNL1        0.0383
     14 C          -2.1952  -18.3306   21.6262 C.3     1  UNL1        0.0704
     15 N          -2.2409  -17.8245   23.0375 N.3     1  UNL1       -0.2960
     16 C          -3.6647  -17.8849   23.5057 C.3     1  UNL1        0.0887
     17 H          -1.9061  -16.8616   23.0709 H       1  UNL1        0.1233
     18 C          -6.5449  -19.9858   22.0117 C.3     1  UNL1        0.0936
     19 C          -5.8589  -21.3823   19.9311 C.3     1  UNL1        0.0018
     20 C          -6.7100  -20.3184   20.5584 C.3     1  UNL1        0.0199
     21 C          -7.7263  -19.5870   19.7324 C.3     1  UNL1        0.0018
@<TRIPOS>BOND
     1    19    20    1
     2    20    21    1
     3    20    18    1
     4    18     1    1
     5     1     2   am
     6     2     3    2
     7     2     4    1
     8     4     5   ar
     9     5     6   ar
    10     6     7   ar
    11     7     8   ar
    12     8     9    1
    13     8    10   ar
    14    10    11    1
    15    12     1    1
    16    12    13    1
    17    13    14    1
    18    14    15    1
    19    15    16    1
    20    10     4   ar
    21    16    12    1
    22    15    17    1
@<TRIPOS>MOLECULE
*****
 21 22 0 0 0
SMALL
GASTEIGER

@<TRIPOS>ATOM
      1 N         -11.6547   -5.0002   17.5463 N.am    1  UNL1       -0.2763
      2 C         -12.7208   -4.5029   18.4769 C.2     1  UNL1        0.2499
      3 O         -12.9885   -5.2243   19.7645 O.2     1  UNL1       -0.2699
      4 C         -13.5192   -3.2842   18.1200 C.ar    1  UNL1        0.0650
      5 C         -14.8178   -3.4277   17.3831 C.ar    1  UNL1        0.0054
      6 C         -15.6162   -2.2090   17.0261 C.ar    1  UNL1        0.0011
      7 C         -15.1159   -0.8468   17.4061 C.ar    1  UNL1        0.0123
      8 C         -13.8173   -0.7034   18.1430 C.ar    1  UNL1        0.0683
      9 CL        -13.3170    0.6588   18.5230 Cl      1  UNL1       -0.0814
     10 C         -13.0189   -1.9221   18.4999 C.ar    1  UNL1        0.0725
     11 CL        -11.7203   -1.7786   19.2368 Cl      1  UNL1       -0.0812
     12 C         -10.8563   -6.2188   17.9032 C.3     1  UNL1        0.0927
     13 C          -9.7698   -6.2901   18.9349 C.3     1  UNL1        0.0383
     14 C          -9.2463   -7.6956   18.9604 C.3     1  UNL1        0.0704
     15 N         -10.0092   -8.4929   17.9444 N.3     1  UNL1       -0.2960
     16 C         -11.0042   -7.5802   17.2911 C.3     1  UNL1        0.0887
     17 H         -10.4953   -9.2634   18.4031 H       1  UNL1        0.1233
     18 C         -11.3869   -4.2787   16.2586 C.3     1  UNL1        0.0936
     19 C          -8.8186   -3.8905   16.2092 C.3     1  UNL1        0.0018
     20 C         -10.2157   -3.3480   16.1499 C.3     1  UNL1        0.0199
     21 C         -10.4416   -1.8746   15.9820 C.3     1  UNL1        0.0018
@<TRIPOS>BOND
     1    19    20    1
     2    20    21    1
     3    20    18    1
     4    18     1    1
     5     1     2   am
     6     2     3    2
     7     2     4    1
     8     4     5   ar
     9     5     6   ar
    10     6     7   ar
    11     7     8   ar
    12     8     9    1
    13     8    10   ar
    14    10    11    1
    15    12     1    1
    16    12    13    1
    17    13    14    1
    18    14    15    1
    19    15    16    1
    20    10     4   ar
    21    16    12    1
    22    15    17    1
