@<TRIPOS>MOLECULE
*****
 30 33 0 0 0
SMALL
GASTEIGER

@<TRIPOS>ATOM
      1 C          -4.6954  -19.0402   21.2855 C.ar    1  UNL1        0.2245
      2 S          -5.9764  -19.3046   20.5513 S.2     1  UNL1       -0.0156
      3 C          -7.0612  -18.5039   21.2087 C.ar    1  UNL1        0.1160
      4 N          -8.5261  -18.3681   20.9162 N.ar    1  UNL1       -0.2366
      5 C          -9.3803  -17.4730   21.7642 C.ar    1  UNL1        0.1056
      6 C          -8.7697  -16.7138   22.9046 C.ar    1  UNL1        0.0228
      7 C          -7.3048  -16.8496   23.1972 C.ar    1  UNL1        0.0222
      8 C          -6.4506  -17.7447   22.3492 C.ar    1  UNL1        0.0431
      9 C          -4.9884  -18.0761   22.3966 C.ar    1  UNL1        0.0986
     10 N          -3.9939  -17.5380   23.3822 N.pl3   1  UNL1       -0.3531
     11 H          -4.2842  -16.9063   24.0793 H       1  UNL1        0.1425
     12 H          -3.0510  -17.8165   23.3320 H       1  UNL1        0.1425
     13 C          -6.6942  -16.0904   24.3376 C.ar    1  UNL1        0.0803
     14 C          -5.4079  -15.3198   24.2956 C.ar    1  UNL1        0.1173
     15 N          -5.1814  -14.7216   25.6524 N.ar    1  UNL1       -0.2294
     16 C          -6.3276  -15.1224   26.5330 C.ar    1  UNL1        0.1208
     17 C          -6.5074  -14.7438   27.9732 C.3     1  UNL1        0.0718
     18 N          -7.2626  -15.9684   25.7204 N.ar    1  UNL1       -0.3128
     19 C          -8.5414  -16.5842   26.2055 C.3     1  UNL1        0.1316
     20 C         -10.8453  -17.3371   21.4717 C.ar    1  UNL1        0.1284
     21 N         -11.9423  -18.1787   22.0534 N.ar    1  UNL1       -0.2352
     22 C         -13.2454  -17.6975   21.4873 C.ar    1  UNL1        0.1065
     23 C         -12.9538  -16.5585   20.5557 C.ar    1  UNL1        0.0576
     24 S         -11.4704  -16.3358   20.5461 S.2     1  UNL1       -0.0644
     25 S          -3.3564  -19.6354   20.9648 S.O     1  UNL1        0.0603
     26 O          -2.5127  -20.2176   22.0599 O.co2   1  UNL1       -0.6771
     27 C          -2.8611  -19.6485   19.5490 C.3     1  UNL1        0.2614
     28 C          -2.3542  -18.3845   18.9201 C.3     1  UNL1        0.0649
     29 C          -0.0569  -17.7774   19.9708 C.3     1  UNL1        0.0002
     30 C          -1.4965  -17.4437   19.7134 C.3     1  UNL1        0.0054
@<TRIPOS>UNITY_ATOM_ATTR
25 1
charge 1
26 1
charge -1
@<TRIPOS>BOND
     1    29    30    1
     2    30    28    1
     3    28    27    1
     4    27    25    1
     5    25    26    2
     6    25     1    1
     7     1     2   ar
     8     2     3   ar
     9     3     4   ar
    10     4     5   ar
    11     5    20    1
    12    20    21   ar
    13    21    22   ar
    14    22    23   ar
    15    23    24   ar
    16     5     6   ar
    17     6     7   ar
    18     7    13    1
    19    13    14   ar
    20    14    15   ar
    21    15    16   ar
    22    16    17    1
    23    16    18   ar
    24    18    19    1
    25     7     8   ar
    26     8     9   ar
    27     9    10    1
    28     9     1   ar
    29     8     3   ar
    30    24    20   ar
    31    18    13   ar
    32    10    11    1
    33    10    12    1
@<TRIPOS>MOLECULE
*****
 30 33 0 0 0
SMALL
GASTEIGER

@<TRIPOS>ATOM
      1 C           3.5011    1.9267   35.4847 C.ar    1  UNL1        0.2245
      2 S           2.4020    2.4660   34.6180 S.2     1  UNL1       -0.0156
      3 C           2.4001    1.6892   33.3347 C.ar    1  UNL1        0.1160
      4 N           1.5404    1.7785   32.1088 N.ar    1  UNL1       -0.2366
      5 C           1.7787    0.8483   30.9565 C.ar    1  UNL1        0.1056
      6 C           2.8765   -0.1712   31.0301 C.ar    1  UNL1        0.0228
      7 C           3.7361   -0.2604   32.2561 C.ar    1  UNL1        0.0222
      8 C           3.4979    0.6698   33.4084 C.ar    1  UNL1        0.0431
      9 C           4.1784    0.8165   34.7371 C.ar    1  UNL1        0.0986
     10 N           5.3333   -0.0030   35.2314 N.pl3   1  UNL1       -0.3531
     11 H           5.7112   -0.7135   34.6643 H       1  UNL1        0.1425
     12 H           5.7135    0.1696   36.1230 H       1  UNL1        0.1425
     13 C           4.8340   -1.2799   32.3297 C.ar    1  UNL1        0.0803
     14 C           4.6884   -2.7009   32.7875 C.ar    1  UNL1        0.1173
     15 N           6.0346   -3.3566   32.6992 N.ar    1  UNL1       -0.2294
     16 C           7.0122   -2.3409   32.1868 C.ar    1  UNL1        0.1208
     17 C           8.4750   -2.5686   31.9452 C.3     1  UNL1        0.0718
     18 N           6.2702   -1.0574   31.9584 N.ar    1  UNL1       -0.3128
     19 C           6.8607    0.2236   31.4483 C.3     1  UNL1        0.1316
     20 C           0.9190    0.9375   29.7304 C.ar    1  UNL1        0.1284
     21 N          -0.1392   -0.0441   29.3222 N.ar    1  UNL1       -0.2352
     22 C          -0.7455    0.4357   28.0368 C.ar    1  UNL1        0.1065
     23 C          -0.0620    1.7140   27.6506 C.ar    1  UNL1        0.0576
     24 S           0.9667    2.0240   28.6973 S.2     1  UNL1       -0.0644
     25 S           3.8599    2.4122   36.8578 S.O     1  UNL1        0.0603
     26 O           5.2351    2.1673   37.4044 O.co2   1  UNL1       -0.6771
     27 C           2.8434    3.1427   37.6844 C.3     1  UNL1        0.2614
     28 C           1.9635    2.3844   38.6334 C.3     1  UNL1        0.0649
     29 C           1.1993    0.1339   39.6830 C.3     1  UNL1        0.0002
     30 C           2.0752    0.8916   38.7297 C.3     1  UNL1        0.0054
@<TRIPOS>UNITY_ATOM_ATTR
25 1
charge 1
26 1
charge -1
@<TRIPOS>BOND
     1    29    30    1
     2    30    28    1
     3    28    27    1
     4    27    25    1
     5    25    26    2
     6    25     1    1
     7     1     2   ar
     8     2     3   ar
     9     3     4   ar
    10     4     5   ar
    11     5    20    1
    12    20    21   ar
    13    21    22   ar
    14    22    23   ar
    15    23    24   ar
    16     5     6   ar
    17     6     7   ar
    18     7    13    1
    19    13    14   ar
    20    14    15   ar
    21    15    16   ar
    22    16    17    1
    23    16    18   ar
    24    18    19    1
    25     7     8   ar
    26     8     9   ar
    27     9    10    1
    28     9     1   ar
    29     8     3   ar
    30    24    20   ar
    31    18    13   ar
    32    10    11    1
    33    10    12    1
@<TRIPOS>MOLECULE
*****
 30 33 0 0 0
SMALL
GASTEIGER

@<TRIPOS>ATOM
      1 C           0.9213    1.7301   23.3591 C.ar    1  UNL1        0.2245
      2 S          -0.2220    2.6285   22.9909 S.2     1  UNL1       -0.0156
      3 C          -1.0427    2.8635   24.2243 C.ar    1  UNL1        0.1160
      4 N          -2.2871    3.6660   24.4641 N.ar    1  UNL1       -0.2366
      5 C          -2.8953    3.7153   25.8343 C.ar    1  UNL1        0.1056
      6 C          -2.2592    2.9621   26.9648 C.ar    1  UNL1        0.0228
      7 C          -1.0149    2.1595   26.7250 C.ar    1  UNL1        0.0222
      8 C          -0.4066    2.1103   25.3548 C.ar    1  UNL1        0.0431
      9 C           0.8072    1.4098   24.8201 C.ar    1  UNL1        0.0986
     10 N           1.7427    0.5414   25.6080 N.pl3   1  UNL1       -0.3531
     11 H           1.5832    0.3900   26.5676 H       1  UNL1        0.1425
     12 H           2.5162    0.1229   25.1656 H       1  UNL1        0.1425
     13 C          -0.3788    1.4063   27.8555 C.ar    1  UNL1        0.0803
     14 C          -0.8067    0.0648   28.3724 C.ar    1  UNL1        0.1173
     15 N           0.1045   -0.3083   29.5039 N.ar    1  UNL1       -0.2294
     16 C           1.0957    0.8027   29.6865 C.ar    1  UNL1        0.1208
     17 C           2.1929    0.8463   30.7083 C.3     1  UNL1        0.0718
     18 N           0.7970    1.8623   28.6677 N.ar    1  UNL1       -0.3128
     19 C           1.5431    3.1517   28.4920 C.3     1  UNL1        0.1316
     20 C          -4.1397    4.5179   26.0741 C.ar    1  UNL1        0.1284
     21 N          -4.5737    5.1009   27.3862 N.ar    1  UNL1       -0.2352
     22 C          -5.8708    5.8216   27.1669 C.ar    1  UNL1        0.1065
     23 C          -6.2385    5.6840   25.7191 C.ar    1  UNL1        0.0576
     24 S          -5.1686    4.8783   25.0438 S.2     1  UNL1       -0.0644
     25 S           1.9909    1.2383   22.4296 S.O     1  UNL1        0.0603
     26 O           3.3892    1.0379   22.9343 O.co2   1  UNL1       -0.6771
     27 C           1.6623    0.9468   20.9954 C.3     1  UNL1        0.2614
     28 C           1.3613   -0.4584   20.5655 C.3     1  UNL1        0.0649
     29 C           3.5501   -1.8365   20.8111 C.3     1  UNL1        0.0002
     30 C           2.4400   -1.3032   19.9548 C.3     1  UNL1        0.0054
@<TRIPOS>UNITY_ATOM_ATTR
25 1
charge 1
26 1
charge -1
@<TRIPOS>BOND
     1    29    30    1
     2    30    28    1
     3    28    27    1
     4    27    25    1
     5    25    26    2
     6    25     1    1
     7     1     2   ar
     8     2     3   ar
     9     3     4   ar
    10     4     5   ar
    11     5    20    1
    12    20    21   ar
    13    21    22   ar
    14    22    23   ar
    15    23    24   ar
    16     5     6   ar
    17     6     7   ar
    18     7    13    1
    19    13    14   ar
    20    14    15   ar
    21    15    16   ar
    22    16    17    1
    23    16    18   ar
    24    18    19    1
    25     7     8   ar
    26     8     9   ar
    27     9    10    1
    28     9     1   ar
    29     8     3   ar
    30    24    20   ar
    31    18    13   ar
    32    10    11    1
    33    10    12    1
@<TRIPOS>MOLECULE
*****
 30 33 0 0 0
SMALL
GASTEIGER

@<TRIPOS>ATOM
      1 C           2.1206    1.5676   30.2684 C.ar    1  UNL1        0.2245
      2 S           1.6277    2.4655   31.3643 S.2     1  UNL1       -0.0156
      3 C           2.2876    2.0417   32.6429 C.ar    1  UNL1        0.1160
      4 N           2.1847    2.5621   34.0459 N.ar    1  UNL1       -0.2366
      5 C           2.9825    1.9226   35.1434 C.ar    1  UNL1        0.1056
      6 C           3.8833    0.7628   34.8379 C.ar    1  UNL1        0.0228
      7 C           3.9862    0.2424   33.4348 C.ar    1  UNL1        0.0222
      8 C           3.1884    0.8819   32.3373 C.ar    1  UNL1        0.0431
      9 C           3.0852    0.5889   30.8699 C.ar    1  UNL1        0.0986
     10 N           3.8179   -0.4930   30.1332 N.pl3   1  UNL1       -0.3531
     11 H           4.4334   -1.0889   30.6182 H       1  UNL1        0.1425
     12 H           3.6832   -0.6071   29.1646 H       1  UNL1        0.1425
     13 C           4.8870   -0.9175   33.1293 C.ar    1  UNL1        0.0803
     14 C           4.5011   -2.3666   33.1642 C.ar    1  UNL1        0.1173
     15 N           5.7074   -3.1766   32.7917 N.ar    1  UNL1       -0.2294
     16 C           6.8388   -2.2281   32.5265 C.ar    1  UNL1        0.1208
     17 C           8.2325   -2.6089   32.1234 C.3     1  UNL1        0.0718
     18 N           6.3317   -0.8319   32.7351 N.ar    1  UNL1       -0.3128
     19 C           7.1294    0.4286   32.5774 C.3     1  UNL1        0.1316
     20 C           2.8796    2.4430   36.5465 C.ar    1  UNL1        0.1284
     21 N           2.0111    1.8823   37.6334 N.ar    1  UNL1       -0.2352
     22 C           2.2219    2.7082   38.8677 C.ar    1  UNL1        0.1065
     23 C           3.2207    3.7794   38.5436 C.ar    1  UNL1        0.0576
     24 S           3.6272    3.6155   37.1091 S.2     1  UNL1       -0.0644
     25 S           1.7194    1.6364   28.8247 S.O     1  UNL1        0.0603
     26 O           2.5249    0.9121   27.7872 O.co2   1  UNL1       -0.6771
     27 C           0.5128    2.4294   28.4186 C.3     1  UNL1        0.2614
     28 C          -0.6474    1.7448   27.7588 C.3     1  UNL1        0.0649
     29 C          -1.7619   -0.0308   29.2935 C.3     1  UNL1        0.0002
     30 C          -0.9525    0.3112   28.0777 C.3     1  UNL1        0.0054
@<TRIPOS>UNITY_ATOM_ATTR
25 1
charge 1
26 1
charge -1
@<TRIPOS>BOND
     1    29    30    1
     2    30    28    1
     3    28    27    1
     4    27    25    1
     5    25    26    2
     6    25     1    1
     7     1     2   ar
     8     2     3   ar
     9     3     4   ar
    10     4     5   ar
    11     5    20    1
    12    20    21   ar
    13    21    22   ar
    14    22    23   ar
    15    23    24   ar
    16     5     6   ar
    17     6     7   ar
    18     7    13    1
    19    13    14   ar
    20    14    15   ar
    21    15    16   ar
    22    16    17    1
    23    16    18   ar
    24    18    19    1
    25     7     8   ar
    26     8     9   ar
    27     9    10    1
    28     9     1   ar
    29     8     3   ar
    30    24    20   ar
    31    18    13   ar
    32    10    11    1
    33    10    12    1
@<TRIPOS>MOLECULE
*****
 30 33 0 0 0
SMALL
GASTEIGER

@<TRIPOS>ATOM
      1 C           6.9601   -4.3131   23.3122 C.ar    1  UNL1        0.2245
      2 S           6.4094   -3.7455   24.5868 S.2     1  UNL1       -0.0156
      3 C           5.4075   -2.6882   24.2286 C.ar    1  UNL1        0.1160
      4 N           4.5488   -1.7926   25.0714 N.ar    1  UNL1       -0.2366
      5 C           3.6216   -0.8110   24.4182 C.ar    1  UNL1        0.1056
      6 C           3.5531   -0.7250   22.9223 C.ar    1  UNL1        0.0228
      7 C           4.4119   -1.6206   22.0795 C.ar    1  UNL1        0.0222
      8 C           5.3391   -2.6022   22.7327 C.ar    1  UNL1        0.0431
      9 C           6.2987   -3.6064   22.1663 C.ar    1  UNL1        0.0986
     10 N           6.5522   -3.8595   20.7097 N.pl3   1  UNL1       -0.3531
     11 H           6.0660   -3.3416   20.0281 H       1  UNL1        0.1425
     12 H           7.2049   -4.5436   20.4353 H       1  UNL1        0.1425
     13 C           4.3435   -1.5346   20.5835 C.ar    1  UNL1        0.0803
     14 C           3.4557   -2.3525   19.6930 C.ar    1  UNL1        0.1173
     15 N           3.7143   -1.9390   18.2745 N.ar    1  UNL1       -0.2294
     16 C           4.7620   -0.8655   18.2883 C.ar    1  UNL1        0.1208
     17 C           5.3224   -0.1650   17.0862 C.3     1  UNL1        0.0718
     18 N           5.1508   -0.6156   19.7153 N.ar    1  UNL1       -0.3128
     19 C           6.1683    0.3787   20.1907 C.3     1  UNL1        0.1316
     20 C           2.7627    0.0847   25.2610 C.ar    1  UNL1        0.1284
     21 N           1.5988    0.8989   24.7790 N.ar    1  UNL1       -0.2352
     22 C           1.0338    1.6408   25.9539 C.ar    1  UNL1        0.1065
     23 C           1.8486    1.2852   27.1621 C.ar    1  UNL1        0.0576
     24 S           2.9171    0.3235   26.7339 S.2     1  UNL1       -0.0644
     25 S           7.9913   -5.3969   23.2027 S.O     1  UNL1        0.0603
     26 O           8.4864   -5.8276   21.8539 O.co2   1  UNL1       -0.6771
     27 C           8.5274   -6.0500   24.4421 C.3     1  UNL1        0.2614
     28 C           8.1558   -7.4673   24.7636 C.3     1  UNL1        0.0649
     29 C           8.0749   -8.5962   27.1022 C.3     1  UNL1        0.0002
     30 C           7.4157   -7.7796   26.0304 C.3     1  UNL1        0.0054
@<TRIPOS>UNITY_ATOM_ATTR
25 1
charge 1
26 1
charge -1
@<TRIPOS>BOND
     1    29    30    1
     2    30    28    1
     3    28    27    1
     4    27    25    1
     5    25    26    2
     6    25     1    1
     7     1     2   ar
     8     2     3   ar
     9     3     4   ar
    10     4     5   ar
    11     5    20    1
    12    20    21   ar
    13    21    22   ar
    14    22    23   ar
    15    23    24   ar
    16     5     6   ar
    17     6     7   ar
    18     7    13    1
    19    13    14   ar
    20    14    15   ar
    21    15    16   ar
    22    16    17    1
    23    16    18   ar
    24    18    19    1
    25     7     8   ar
    26     8     9   ar
    27     9    10    1
    28     9     1   ar
    29     8     3   ar
    30    24    20   ar
    31    18    13   ar
    32    10    11    1
    33    10    12    1
@<TRIPOS>MOLECULE
*****
 30 33 0 0 0
SMALL
GASTEIGER

@<TRIPOS>ATOM
      1 C           3.6274   -0.4083   32.4516 C.ar    1  UNL1        0.2245
      2 S           3.5105    0.6723   33.4853 S.2     1  UNL1       -0.0156
      3 C           2.5244    1.6865   32.9862 C.ar    1  UNL1        0.1160
      4 N           2.0113    2.9646   33.5805 N.ar    1  UNL1       -0.2366
      5 C           1.0058    3.7888   32.8325 C.ar    1  UNL1        0.1056
      6 C           0.5133    3.3350   31.4904 C.ar    1  UNL1        0.0228
      7 C           1.0263    2.0569   30.8961 C.ar    1  UNL1        0.0222
      8 C           2.0319    1.2327   31.6440 C.ar    1  UNL1        0.0431
      9 C           2.7136   -0.0620   31.3136 C.ar    1  UNL1        0.0986
     10 N           2.5161   -0.8687   30.0645 N.pl3   1  UNL1       -0.3531
     11 H           1.8909   -0.5570   29.3709 H       1  UNL1        0.1425
     12 H           3.0118   -1.7099   29.9383 H       1  UNL1        0.1425
     13 C           0.5338    1.6030   29.5539 C.ar    1  UNL1        0.0803
     14 C          -0.6826    0.7632   29.2989 C.ar    1  UNL1        0.1173
     15 N          -0.7969    0.5504   27.8184 N.ar    1  UNL1       -0.2294
     16 C           0.3488    1.2588   27.1585 C.ar    1  UNL1        0.1208
     17 C           0.6238    1.3080   25.6847 C.3     1  UNL1        0.0718
     18 N           1.1712    1.9093   28.2311 N.ar    1  UNL1       -0.3128
     19 C           2.4131    2.7233   28.0182 C.3     1  UNL1        0.1316
     20 C           0.4926    5.0670   33.4268 C.ar    1  UNL1        0.1284
     21 N           1.2512    5.9798   34.3441 N.ar    1  UNL1       -0.2352
     22 C           0.3582    7.1337   34.6923 C.ar    1  UNL1        0.1065
     23 C          -0.9523    6.9340   33.9902 C.ar    1  UNL1        0.0576
     24 S          -0.8692    5.6567   33.2081 S.2     1  UNL1       -0.0644
     25 S           4.5042   -1.6221   32.5403 S.O     1  UNL1        0.0603
     26 O           4.0584   -2.8129   33.3361 O.co2   1  UNL1       -0.6771
     27 C           5.8269   -1.6452   31.8333 C.3     1  UNL1        0.2614
     28 C           6.9129   -2.5668   32.3037 C.3     1  UNL1        0.0649
     29 C           6.9949   -5.0552   31.5614 C.3     1  UNL1        0.0002
     30 C           7.4399   -3.6331   31.3897 C.3     1  UNL1        0.0054
@<TRIPOS>UNITY_ATOM_ATTR
25 1
charge 1
26 1
charge -1
@<TRIPOS>BOND
     1    29    30    1
     2    30    28    1
     3    28    27    1
     4    27    25    1
     5    25    26    2
     6    25     1    1
     7     1     2   ar
     8     2     3   ar
     9     3     4   ar
    10     4     5   ar
    11     5    20    1
    12    20    21   ar
    13    21    22   ar
    14    22    23   ar
    15    23    24   ar
    16     5     6   ar
    17     6     7   ar
    18     7    13    1
    19    13    14   ar
    20    14    15   ar
    21    15    16   ar
    22    16    17    1
    23    16    18   ar
    24    18    19    1
    25     7     8   ar
    26     8     9   ar
    27     9    10    1
    28     9     1   ar
    29     8     3   ar
    30    24    20   ar
    31    18    13   ar
    32    10    11    1
    33    10    12    1
@<TRIPOS>MOLECULE
*****
 30 33 0 0 0
SMALL
GASTEIGER

@<TRIPOS>ATOM
      1 C           5.1198   -1.5164   28.6406 C.ar    1  UNL1        0.2245
      2 S           5.6255   -1.2222   30.0218 S.2     1  UNL1       -0.0156
      3 C           4.5786   -0.4216   30.7380 C.ar    1  UNL1        0.1160
      4 N           4.5260    0.1507   32.1235 N.ar    1  UNL1       -0.2366
      5 C           3.3206    0.9236   32.5705 C.ar    1  UNL1        0.1056
      6 C           2.1679    1.1242   31.6319 C.ar    1  UNL1        0.0228
      7 C           2.2205    0.5519   30.2464 C.ar    1  UNL1        0.0222
      8 C           3.4258   -0.2210   29.7994 C.ar    1  UNL1        0.0431
      9 C           3.7604   -0.8976   28.5032 C.ar    1  UNL1        0.0986
     10 N           2.8885   -0.9468   27.2836 N.pl3   1  UNL1       -0.3531
     11 H           2.0073   -0.5079   27.2905 H       1  UNL1        0.1425
     12 H           3.1974   -1.4180   26.4763 H       1  UNL1        0.1425
     13 C           1.0678    0.7525   29.3078 C.ar    1  UNL1        0.0803
     14 C          -0.0795   -0.1924   29.1057 C.ar    1  UNL1        0.1173
     15 N          -0.9964    0.4043   28.0795 N.ar    1  UNL1       -0.2294
     16 C          -0.4158    1.7182   27.6473 C.ar    1  UNL1        0.1208
     17 C          -1.0071    2.6527   26.6339 C.3     1  UNL1        0.0718
     18 N           0.8599    1.9333   28.4064 N.ar    1  UNL1       -0.3128
     19 C           1.7682    3.1209   28.2853 C.3     1  UNL1        0.1316
     20 C           3.2680    1.4959   33.9560 C.ar    1  UNL1        0.1284
     21 N           2.1529    2.3203   34.5277 N.ar    1  UNL1       -0.2352
     22 C           2.5170    2.6782   35.9381 C.ar    1  UNL1        0.1065
     23 C           3.8572    2.0749   36.2382 C.ar    1  UNL1        0.0576
     24 S           4.3213    1.3443   35.0132 S.2     1  UNL1       -0.0644
     25 S           5.8461   -2.2931   27.5827 S.O     1  UNL1        0.0603
     26 O           5.5399   -2.0543   26.1338 O.co2   1  UNL1       -0.6771
     27 C           6.8786   -3.3085   27.9735 C.3     1  UNL1        0.2614
     28 C           6.5049   -4.7577   28.0741 C.3     1  UNL1        0.0649
     29 C           7.1081   -4.7452   30.6012 C.3     1  UNL1        0.0002
     30 C           6.6885   -5.4915   29.3695 C.3     1  UNL1        0.0054
@<TRIPOS>UNITY_ATOM_ATTR
25 1
charge 1
26 1
charge -1
@<TRIPOS>BOND
     1    29    30    1
     2    30    28    1
     3    28    27    1
     4    27    25    1
     5    25    26    2
     6    25     1    1
     7     1     2   ar
     8     2     3   ar
     9     3     4   ar
    10     4     5   ar
    11     5    20    1
    12    20    21   ar
    13    21    22   ar
    14    22    23   ar
    15    23    24   ar
    16     5     6   ar
    17     6     7   ar
    18     7    13    1
    19    13    14   ar
    20    14    15   ar
    21    15    16   ar
    22    16    17    1
    23    16    18   ar
    24    18    19    1
    25     7     8   ar
    26     8     9   ar
    27     9    10    1
    28     9     1   ar
    29     8     3   ar
    30    24    20   ar
    31    18    13   ar
    32    10    11    1
    33    10    12    1
@<TRIPOS>MOLECULE
*****
 30 33 0 0 0
SMALL
GASTEIGER

@<TRIPOS>ATOM
      1 C           2.8323    2.2413   35.2074 C.ar    1  UNL1        0.2245
      2 S           3.8705    1.1627   35.3013 S.2     1  UNL1       -0.0156
      3 C           4.0026    0.5275   33.9488 C.ar    1  UNL1        0.1160
      4 N           4.8704   -0.5869   33.4439 N.ar    1  UNL1       -0.2366
      5 C           4.7816   -1.0153   32.0091 C.ar    1  UNL1        0.1056
      6 C           3.8251   -0.3293   31.0794 C.ar    1  UNL1        0.0228
      7 C           2.9573    0.7851   31.5843 C.ar    1  UNL1        0.0222
      8 C           3.0461    1.2135   33.0191 C.ar    1  UNL1        0.0431
      9 C           2.3228    2.2727   33.7969 C.ar    1  UNL1        0.0986
     10 N           1.2741    3.2003   33.2587 N.pl3   1  UNL1       -0.3531
     11 H           1.0051    3.1437   32.3133 H       1  UNL1        0.1425
     12 H           0.8548    3.8658   33.8507 H       1  UNL1        0.1425
     13 C           2.0008    1.4711   30.6545 C.ar    1  UNL1        0.0803
     14 C           0.6948    0.9173   30.1671 C.ar    1  UNL1        0.1173
     15 N           0.0692    1.9352   29.2603 N.ar    1  UNL1       -0.2294
     16 C           0.9885    3.1182   29.1872 C.ar    1  UNL1        0.1208
     17 C           0.7551    4.3685   28.3921 C.3     1  UNL1        0.0718
     18 N           2.1824    2.8313   30.0489 N.ar    1  UNL1       -0.3128
     19 C           3.3523    3.7444   30.2667 C.3     1  UNL1        0.1316
     20 C           5.6494   -2.1298   31.5041 C.ar    1  UNL1        0.1284
     21 N           6.1265   -2.3055   30.0929 N.ar    1  UNL1       -0.2352
     22 C           6.9644   -3.5485   30.0383 C.ar    1  UNL1        0.1065
     23 C           7.0051   -4.1410   31.4157 C.ar    1  UNL1        0.0576
     24 S           6.1924   -3.2642   32.3216 S.2     1  UNL1       -0.0644
     25 S           2.3825    3.1321   36.3273 S.O     1  UNL1        0.0603
     26 O           1.8828    4.5150   36.0312 O.co2   1  UNL1       -0.6771
     27 C           2.4324    2.6399   37.7433 C.3     1  UNL1        0.2614
     28 C           1.2132    2.7309   38.6124 C.3     1  UNL1        0.0649
     29 C           1.1402    0.2268   39.3011 C.3     1  UNL1        0.0002
     30 C           0.9464    1.6743   39.6433 C.3     1  UNL1        0.0054
@<TRIPOS>UNITY_ATOM_ATTR
25 1
charge 1
26 1
charge -1
@<TRIPOS>BOND
     1    29    30    1
     2    30    28    1
     3    28    27    1
     4    27    25    1
     5    25    26    2
     6    25     1    1
     7     1     2   ar
     8     2     3   ar
     9     3     4   ar
    10     4     5   ar
    11     5    20    1
    12    20    21   ar
    13    21    22   ar
    14    22    23   ar
    15    23    24   ar
    16     5     6   ar
    17     6     7   ar
    18     7    13    1
    19    13    14   ar
    20    14    15   ar
    21    15    16   ar
    22    16    17    1
    23    16    18   ar
    24    18    19    1
    25     7     8   ar
    26     8     9   ar
    27     9    10    1
    28     9     1   ar
    29     8     3   ar
    30    24    20   ar
    31    18    13   ar
    32    10    11    1
    33    10    12    1
@<TRIPOS>MOLECULE
*****
 30 33 0 0 0
SMALL
GASTEIGER

@<TRIPOS>ATOM
      1 C           6.9273   -2.1269   28.7736 C.ar    1  UNL1        0.2245
      2 S           5.7770   -1.8943   27.8394 S.2     1  UNL1       -0.0156
      3 C           4.6392   -1.3290   28.6368 C.ar    1  UNL1        0.1160
      4 N           3.2538   -0.9056   28.2479 N.ar    1  UNL1       -0.2366
      5 C           2.3155   -0.3653   29.2860 C.ar    1  UNL1        0.1056
      6 C           2.7626   -0.2485   30.7130 C.ar    1  UNL1        0.0228
      7 C           4.1480   -0.6720   31.1020 C.ar    1  UNL1        0.0222
      8 C           5.0862   -1.2122   30.0639 C.ar    1  UNL1        0.0431
      9 C           6.5004   -1.7054   30.1484 C.ar    1  UNL1        0.0986
     10 N           7.3401   -1.7662   31.3898 N.pl3   1  UNL1       -0.3531
     11 H           6.9690   -1.4649   32.2504 H       1  UNL1        0.1425
     12 H           8.2624   -2.1075   31.3440 H       1  UNL1        0.1425
     13 C           4.5950   -0.5552   32.5290 C.ar    1  UNL1        0.0803
     14 C           4.3305   -1.5499   33.6201 C.ar    1  UNL1        0.1173
     15 N           4.9571   -1.0327   34.8810 N.ar    1  UNL1       -0.2294
     16 C           5.6090    0.2818   34.5692 C.ar    1  UNL1        0.1208
     17 C           6.3538    1.1490   35.5404 C.3     1  UNL1        0.0718
     18 N           5.3852    0.5769   33.1156 N.ar    1  UNL1       -0.3128
     19 C           5.8670    1.7910   32.3781 C.3     1  UNL1        0.1316
     20 C           0.9300    0.0582   28.8970 C.ar    1  UNL1        0.1284
     21 N          -0.3471   -0.4317   29.5125 N.ar    1  UNL1       -0.2352
     22 C          -1.4879    0.2533   28.8202 C.ar    1  UNL1        0.1065
     23 C          -0.9158    1.1666   27.7768 C.ar    1  UNL1        0.0576
     24 S           0.5785    1.0460   27.8243 S.2     1  UNL1       -0.0644
     25 S           8.2689   -2.6833   28.3988 S.O     1  UNL1        0.0603
     26 O           9.2121   -1.8688   27.5642 O.co2   1  UNL1       -0.6771
     27 C           8.6673   -4.0544   28.8587 C.3     1  UNL1        0.2614
     28 C           7.6982   -5.1939   28.7472 C.3     1  UNL1        0.0649
     29 C           7.0300   -5.3677   31.2519 C.3     1  UNL1        0.0002
     30 C           7.3809   -6.0292   29.9521 C.3     1  UNL1        0.0054
@<TRIPOS>UNITY_ATOM_ATTR
25 1
charge 1
26 1
charge -1
@<TRIPOS>BOND
     1    29    30    1
     2    30    28    1
     3    28    27    1
     4    27    25    1
     5    25    26    2
     6    25     1    1
     7     1     2   ar
     8     2     3   ar
     9     3     4   ar
    10     4     5   ar
    11     5    20    1
    12    20    21   ar
    13    21    22   ar
    14    22    23   ar
    15    23    24   ar
    16     5     6   ar
    17     6     7   ar
    18     7    13    1
    19    13    14   ar
    20    14    15   ar
    21    15    16   ar
    22    16    17    1
    23    16    18   ar
    24    18    19    1
    25     7     8   ar
    26     8     9   ar
    27     9    10    1
    28     9     1   ar
    29     8     3   ar
    30    24    20   ar
    31    18    13   ar
    32    10    11    1
    33    10    12    1
