@<TRIPOS>MOLECULE
*****
 24 27 0 0 0
SMALL
GASTEIGER

@<TRIPOS>ATOM
      1 C          -9.5837  -17.6450   22.0444 C.3     1  UNL1        0.0991
      2 C          -6.1444  -20.4317   21.2351 C.ar    1  UNL1       -0.0000
      3 C          -6.9899  -20.6198   22.4597 C.ar    1  UNL1       -0.0003
      4 C          -8.1363  -19.6909   22.7295 C.ar    1  UNL1       -0.0029
      5 C          -8.4373  -18.5739   21.7746 C.ar    1  UNL1       -0.0061
      6 C          -7.5918  -18.3859   20.5500 C.ar    1  UNL1       -0.0029
      7 C          -6.4454  -19.3148   20.2802 C.ar    1  UNL1       -0.0003
      8 N         -10.2573  -16.9351   20.9077 N.3     1  UNL1       -0.2690
      9 C         -10.1106  -15.4822   20.5646 C.3     1  UNL1        0.0724
     10 C         -10.9585  -15.2025   19.3593 C.3     1  UNL1        0.0188
     11 C         -11.6293  -16.4826   18.9573 C.3     1  UNL1        0.0188
     12 C         -11.1959  -17.5534   19.9143 C.3     1  UNL1        0.0724
     13 C         -10.0566  -17.4260   23.4509 C.3     1  UNL1        0.0991
     14 C          -9.1269  -16.8405   24.4722 C.ar    1  UNL1       -0.0061
     15 C          -9.2442  -17.2444   25.9121 C.ar    1  UNL1       -0.0029
     16 C          -8.3145  -16.6589   26.9333 C.ar    1  UNL1       -0.0003
     17 C          -7.2675  -15.6696   26.5146 C.ar    1  UNL1       -0.0000
     18 C          -7.1503  -15.2658   25.0748 C.ar    1  UNL1       -0.0003
     19 C          -8.0800  -15.8512   24.0536 C.ar    1  UNL1       -0.0029
     20 N         -11.4592  -17.7925   23.8363 N.3     1  UNL1       -0.2690
     21 C         -11.8536  -18.8151   24.8604 C.3     1  UNL1        0.0724
     22 C         -13.3518  -18.8552   24.9222 C.3     1  UNL1        0.0188
     23 C         -13.8834  -17.8574   23.9364 C.3     1  UNL1        0.0188
     24 C         -12.7137  -17.2006   23.2653 C.3     1  UNL1        0.0724
@<TRIPOS>BOND
     1     2     3   ar
     2     3     4   ar
     3     4     5   ar
     4     5     1    1
     5     1    13    1
     6    13    14    1
     7    14    15   ar
     8    15    16   ar
     9    16    17   ar
    10    17    18   ar
    11    18    19   ar
    12    13    20    1
    13    20    21    1
    14    21    22    1
    15    22    23    1
    16    23    24    1
    17     1     8    1
    18     8     9    1
    19     9    10    1
    20    10    11    1
    21    11    12    1
    22     5     6   ar
    23     6     7   ar
    24     7     2   ar
    25    19    14   ar
    26    24    20    1
    27    12     8    1
@<TRIPOS>MOLECULE
*****
 24 27 0 0 0
SMALL
GASTEIGER

@<TRIPOS>ATOM
      1 C          -7.9848  -16.7254   22.7894 C.3     1  UNL1        0.0991
      2 C          -6.5625  -15.1404   26.7536 C.ar    1  UNL1       -0.0000
      3 C          -5.6336  -15.1582   25.5760 C.ar    1  UNL1       -0.0003
      4 C          -6.1077  -15.6865   24.2546 C.ar    1  UNL1       -0.0029
      5 C          -7.5107  -16.1971   24.1108 C.ar    1  UNL1       -0.0061
      6 C          -8.4397  -16.1793   25.2883 C.ar    1  UNL1       -0.0029
      7 C          -7.9656  -15.6510   26.6097 C.ar    1  UNL1       -0.0003
      8 N          -8.5938  -15.7937   21.7840 N.3     1  UNL1       -0.2690
      9 C          -7.9465  -14.5665   21.2137 C.3     1  UNL1        0.0724
     10 C          -8.9097  -13.9398   20.2495 C.3     1  UNL1        0.0188
     11 C         -10.1523  -14.7796   20.2239 C.3     1  UNL1        0.0188
     12 C          -9.9571  -15.9254   21.1722 C.3     1  UNL1        0.0724
     13 C          -7.8499  -18.1855   22.4734 C.3     1  UNL1        0.0991
     14 C          -6.5538  -18.7211   21.9411 C.ar    1  UNL1       -0.0061
     15 C          -6.5319  -19.4866   20.6513 C.ar    1  UNL1       -0.0029
     16 C          -5.2358  -20.0221   20.1190 C.ar    1  UNL1       -0.0003
     17 C          -3.9616  -19.7922   20.8766 C.ar    1  UNL1       -0.0000
     18 C          -3.9837  -19.0267   22.1663 C.ar    1  UNL1       -0.0003
     19 C          -5.2798  -18.4912   22.6986 C.ar    1  UNL1       -0.0029
     20 N          -9.0112  -19.1101   22.6897 N.3     1  UNL1       -0.2690
     21 C         -10.0584  -19.4626   21.6752 C.3     1  UNL1        0.0724
     22 C         -11.0235  -20.4149   22.3170 C.3     1  UNL1        0.0188
     23 C         -10.5726  -20.6510   23.7281 C.3     1  UNL1        0.0188
     24 C          -9.3290  -19.8446   23.9584 C.3     1  UNL1        0.0724
@<TRIPOS>BOND
     1     2     3   ar
     2     3     4   ar
     3     4     5   ar
     4     5     1    1
     5     1    13    1
     6    13    14    1
     7    14    15   ar
     8    15    16   ar
     9    16    17   ar
    10    17    18   ar
    11    18    19   ar
    12    13    20    1
    13    20    21    1
    14    21    22    1
    15    22    23    1
    16    23    24    1
    17     1     8    1
    18     8     9    1
    19     9    10    1
    20    10    11    1
    21    11    12    1
    22     5     6   ar
    23     6     7   ar
    24     7     2   ar
    25    19    14   ar
    26    24    20    1
    27    12     8    1
@<TRIPOS>MOLECULE
*****
 24 27 0 0 0
SMALL
GASTEIGER

@<TRIPOS>ATOM
      1 C          -7.8559  -18.1813   22.4711 C.3     1  UNL1        0.0991
      2 C          -3.9565  -19.7706   20.8839 C.ar    1  UNL1       -0.0000
      3 C          -5.2262  -19.9975   20.1181 C.ar    1  UNL1       -0.0003
      4 C          -6.5260  -19.4677   20.6472 C.ar    1  UNL1       -0.0029
      5 C          -6.5561  -18.7110   21.9420 C.ar    1  UNL1       -0.0061
      6 C          -5.2864  -18.4842   22.7077 C.ar    1  UNL1       -0.0029
      7 C          -3.9866  -19.0139   22.1786 C.ar    1  UNL1       -0.0003
      8 N          -9.0139  -19.1107   22.6833 N.3     1  UNL1       -0.2690
      9 C          -9.3015  -19.8902   23.9322 C.3     1  UNL1        0.0724
     10 C         -10.5530  -20.6852   23.7047 C.3     1  UNL1        0.0188
     11 C         -11.0389  -20.3971   22.3151 C.3     1  UNL1        0.0188
     12 C         -10.0877  -19.4240   21.6838 C.3     1  UNL1        0.0724
     13 C          -7.9976  -16.7220   22.7879 C.3     1  UNL1        0.0991
     14 C          -7.5305  -16.1931   24.1116 C.ar    1  UNL1       -0.0061
     15 C          -6.1309  -15.6741   24.2601 C.ar    1  UNL1       -0.0029
     16 C          -5.6638  -15.1452   25.5838 C.ar    1  UNL1       -0.0003
     17 C          -6.5961  -15.1353   26.7588 C.ar    1  UNL1       -0.0000
     18 C          -7.9956  -15.6543   26.6102 C.ar    1  UNL1       -0.0003
     19 C          -8.4627  -16.1832   25.2866 C.ar    1  UNL1       -0.0029
     20 N          -8.6066  -15.7916   21.7812 N.3     1  UNL1       -0.2690
     21 C          -7.9580  -14.5671   21.2068 C.3     1  UNL1        0.0724
     22 C          -8.9216  -13.9411   20.2427 C.3     1  UNL1        0.0188
     23 C         -10.1658  -14.7787   20.2212 C.3     1  UNL1        0.0188
     24 C          -9.9711  -15.9224   21.1720 C.3     1  UNL1        0.0724
@<TRIPOS>BOND
     1     2     3   ar
     2     3     4   ar
     3     4     5   ar
     4     5     1    1
     5     1    13    1
     6    13    14    1
     7    14    15   ar
     8    15    16   ar
     9    16    17   ar
    10    17    18   ar
    11    18    19   ar
    12    13    20    1
    13    20    21    1
    14    21    22    1
    15    22    23    1
    16    23    24    1
    17     1     8    1
    18     8     9    1
    19     9    10    1
    20    10    11    1
    21    11    12    1
    22     5     6   ar
    23     6     7   ar
    24     7     2   ar
    25    19    14   ar
    26    24    20    1
    27    12     8    1
@<TRIPOS>MOLECULE
*****
 24 27 0 0 0
SMALL
GASTEIGER

@<TRIPOS>ATOM
      1 C          -9.1294  -17.0189   23.9616 C.3     1  UNL1        0.0991
      2 C         -13.4479  -17.4838   22.7852 C.ar    1  UNL1       -0.0000
      3 C         -12.7752  -18.5453   23.6040 C.ar    1  UNL1       -0.0003
      4 C         -11.3357  -18.3904   23.9961 C.ar    1  UNL1       -0.0029
      5 C         -10.5689  -17.1738   23.5695 C.ar    1  UNL1       -0.0061
      6 C         -11.2417  -16.1123   22.7507 C.ar    1  UNL1       -0.0029
      7 C         -12.6812  -16.2672   22.3586 C.ar    1  UNL1       -0.0003
      8 N          -8.7735  -16.5833   25.3521 N.3     1  UNL1       -0.2690
      9 C          -8.4418  -15.1844   25.7801 C.3     1  UNL1        0.0724
     10 C          -8.1501  -15.2067   27.2513 C.3     1  UNL1        0.0188
     11 C          -8.3016  -16.6193   27.7326 C.3     1  UNL1        0.0188
     12 C          -8.6868  -17.4701   26.5588 C.3     1  UNL1        0.0724
     13 C          -8.0457  -17.2995   22.9631 C.3     1  UNL1        0.0991
     14 C          -8.3492  -18.1014   21.7324 C.ar    1  UNL1       -0.0061
     15 C          -7.3168  -19.0339   21.1713 C.ar    1  UNL1       -0.0029
     16 C          -7.6202  -19.8358   19.9406 C.ar    1  UNL1       -0.0003
     17 C          -8.9561  -19.7053   19.2708 C.ar    1  UNL1       -0.0000
     18 C          -9.9884  -18.7728   19.8318 C.ar    1  UNL1       -0.0003
     19 C          -9.6849  -17.9709   21.0626 C.ar    1  UNL1       -0.0029
     20 N          -6.6585  -16.7781   23.1955 N.3     1  UNL1       -0.2690
     21 C          -5.4075  -17.6026   23.2689 C.3     1  UNL1        0.0724
     22 C          -4.2547  -16.6748   23.5140 C.3     1  UNL1        0.0188
     23 C          -4.7931  -15.2769   23.5920 C.3     1  UNL1        0.0188
     24 C          -6.2787  -15.3408   23.3952 C.3     1  UNL1        0.0724
@<TRIPOS>BOND
     1     2     3   ar
     2     3     4   ar
     3     4     5   ar
     4     5     1    1
     5     1    13    1
     6    13    14    1
     7    14    15   ar
     8    15    16   ar
     9    16    17   ar
    10    17    18   ar
    11    18    19   ar
    12    13    20    1
    13    20    21    1
    14    21    22    1
    15    22    23    1
    16    23    24    1
    17     1     8    1
    18     8     9    1
    19     9    10    1
    20    10    11    1
    21    11    12    1
    22     5     6   ar
    23     6     7   ar
    24     7     2   ar
    25    19    14   ar
    26    24    20    1
    27    12     8    1
@<TRIPOS>MOLECULE
*****
 24 27 0 0 0
SMALL
GASTEIGER

@<TRIPOS>ATOM
      1 C          -7.0579  -18.8845   21.2450 C.3     1  UNL1        0.0991
      2 C          -2.6531  -19.5559   20.6152 C.ar    1  UNL1       -0.0000
      3 C          -3.2939  -19.9505   21.9127 C.ar    1  UNL1       -0.0003
      4 C          -4.7622  -19.7267   22.1226 C.ar    1  UNL1       -0.0029
      5 C          -5.5896  -19.1083   21.0350 C.ar    1  UNL1       -0.0061
      6 C          -4.9488  -18.7138   19.7375 C.ar    1  UNL1       -0.0029
      7 C          -3.4805  -18.9376   19.5276 C.ar    1  UNL1       -0.0003
      8 N          -8.0441  -19.3702   20.2244 N.3     1  UNL1       -0.2690
      9 C          -9.4391  -18.8538   20.0307 C.3     1  UNL1        0.0724
     10 C         -10.0656  -19.6220   18.9049 C.3     1  UNL1        0.0188
     11 C          -9.0578  -20.6132   18.4028 C.3     1  UNL1        0.0188
     12 C          -7.8085  -20.4575   19.2183 C.3     1  UNL1        0.0724
     13 C          -7.5400  -18.1751   22.4755 C.3     1  UNL1        0.0991
     14 C          -8.8028  -18.6203   23.1516 C.ar    1  UNL1       -0.0061
     15 C          -8.9640  -20.0510   23.5724 C.ar    1  UNL1       -0.0029
     16 C         -10.2268  -20.4962   24.2485 C.ar    1  UNL1       -0.0003
     17 C         -11.3284  -19.5106   24.5039 C.ar    1  UNL1       -0.0000
     18 C         -11.1672  -18.0799   24.0831 C.ar    1  UNL1       -0.0003
     19 C          -9.9044  -17.6347   23.4070 C.ar    1  UNL1       -0.0029
     20 N          -6.7594  -17.0204   23.0299 N.3     1  UNL1       -0.2690
     21 C          -7.2585  -15.6152   23.1916 C.3     1  UNL1        0.0724
     22 C          -6.1501  -14.7946   23.7816 C.3     1  UNL1        0.0188
     23 C          -4.9659  -15.6927   23.9845 C.3     1  UNL1        0.0188
     24 C          -5.3425  -17.0683   23.5200 C.3     1  UNL1        0.0724
@<TRIPOS>BOND
     1     2     3   ar
     2     3     4   ar
     3     4     5   ar
     4     5     1    1
     5     1    13    1
     6    13    14    1
     7    14    15   ar
     8    15    16   ar
     9    16    17   ar
    10    17    18   ar
    11    18    19   ar
    12    13    20    1
    13    20    21    1
    14    21    22    1
    15    22    23    1
    16    23    24    1
    17     1     8    1
    18     8     9    1
    19     9    10    1
    20    10    11    1
    21    11    12    1
    22     5     6   ar
    23     6     7   ar
    24     7     2   ar
    25    19    14   ar
    26    24    20    1
    27    12     8    1
@<TRIPOS>MOLECULE
*****
 24 27 0 0 0
SMALL
GASTEIGER

@<TRIPOS>ATOM
      1 C          -7.2122  -17.7719   22.6808 C.3     1  UNL1        0.0991
      2 C          -4.2510  -19.9910   20.1201 C.ar    1  UNL1       -0.0000
      3 C          -3.8983  -19.6293   21.5324 C.ar    1  UNL1       -0.0003
      4 C          -4.8854  -18.8896   22.3860 C.ar    1  UNL1       -0.0029
      5 C          -6.2251  -18.5116   21.8273 C.ar    1  UNL1       -0.0061
      6 C          -6.5778  -18.8733   20.4149 C.ar    1  UNL1       -0.0029
      7 C          -5.5907  -19.6130   19.5613 C.ar    1  UNL1       -0.0003
      8 N          -6.7408  -16.6888   23.6053 N.3     1  UNL1       -0.2690
      9 C          -7.5935  -15.9223   24.5726 C.3     1  UNL1        0.0724
     10 C          -6.7137  -14.9418   25.2899 C.3     1  UNL1        0.0188
     11 C          -5.3173  -15.1023   24.7661 C.3     1  UNL1        0.0188
     12 C          -5.3341  -16.1821   23.7249 C.3     1  UNL1        0.0724
     13 C          -8.6706  -18.1154   22.6100 C.3     1  UNL1        0.0991
     14 C          -9.5515  -17.4417   21.5999 C.ar    1  UNL1       -0.0061
     15 C         -10.3428  -18.2650   20.6272 C.ar    1  UNL1       -0.0029
     16 C         -11.2237  -17.5914   19.6171 C.ar    1  UNL1       -0.0003
     17 C         -11.3134  -16.0945   19.5798 C.ar    1  UNL1       -0.0000
     18 C         -10.5221  -15.2713   20.5526 C.ar    1  UNL1       -0.0003
     19 C          -9.6412  -15.9449   21.5626 C.ar    1  UNL1       -0.0029
     20 N          -9.2481  -19.1325   23.5492 N.3     1  UNL1       -0.2690
     21 C          -8.9071  -20.5927   23.5857 C.3     1  UNL1        0.0724
     22 C          -9.7163  -21.2305   24.6758 C.3     1  UNL1        0.0188
     23 C         -10.5575  -20.1645   25.3130 C.3     1  UNL1        0.0188
     24 C         -10.2681  -18.8678   24.6167 C.3     1  UNL1        0.0724
@<TRIPOS>BOND
     1     2     3   ar
     2     3     4   ar
     3     4     5   ar
     4     5     1    1
     5     1    13    1
     6    13    14    1
     7    14    15   ar
     8    15    16   ar
     9    16    17   ar
    10    17    18   ar
    11    18    19   ar
    12    13    20    1
    13    20    21    1
    14    21    22    1
    15    22    23    1
    16    23    24    1
    17     1     8    1
    18     8     9    1
    19     9    10    1
    20    10    11    1
    21    11    12    1
    22     5     6   ar
    23     6     7   ar
    24     7     2   ar
    25    19    14   ar
    26    24    20    1
    27    12     8    1
@<TRIPOS>MOLECULE
*****
 24 27 0 0 0
SMALL
GASTEIGER

@<TRIPOS>ATOM
      1 C          -7.5477  -18.1580   22.4733 C.3     1  UNL1        0.0991
      2 C         -11.3451  -19.4788   24.4944 C.ar    1  UNL1       -0.0000
      3 C         -10.2380  -20.4636   24.2612 C.ar    1  UNL1       -0.0003
      4 C          -8.9722  -20.0233   23.5875 C.ar    1  UNL1       -0.0029
      5 C          -8.8135  -18.5983   23.1470 C.ar    1  UNL1       -0.0061
      6 C          -9.9206  -17.6135   23.3802 C.ar    1  UNL1       -0.0029
      7 C         -11.1865  -18.0538   24.0539 C.ar    1  UNL1       -0.0003
      8 N          -6.7569  -17.0146   23.0365 N.3     1  UNL1       -0.2690
      9 C          -7.2447  -15.6070   23.2120 C.3     1  UNL1        0.0724
     10 C          -6.1288  -14.8004   23.8070 C.3     1  UNL1        0.0188
     11 C          -4.9512  -15.7095   23.9993 C.3     1  UNL1        0.0188
     12 C          -5.3394  -17.0779   23.5231 C.3     1  UNL1        0.0724
     13 C          -7.0726  -18.8612   21.2365 C.3     1  UNL1        0.0991
     14 C          -5.6063  -19.0931   21.0220 C.ar    1  UNL1       -0.0061
     15 C          -4.7800  -19.7213   22.1050 C.ar    1  UNL1       -0.0029
     16 C          -3.3137  -19.9533   21.8905 C.ar    1  UNL1       -0.0003
     17 C          -2.6736  -19.5571   20.5930 C.ar    1  UNL1       -0.0000
     18 C          -3.4998  -18.9289   19.5101 C.ar    1  UNL1       -0.0003
     19 C          -4.9662  -18.6970   19.7246 C.ar    1  UNL1       -0.0029
     20 N          -8.0639  -19.3324   20.2140 N.3     1  UNL1       -0.2690
     21 C          -7.8445  -20.4269   19.2122 C.3     1  UNL1        0.0724
     22 C          -9.0937  -20.5628   18.3930 C.3     1  UNL1        0.0188
     23 C         -10.0852  -19.5521   18.8885 C.3     1  UNL1        0.0188
     24 C          -9.4488  -18.7917   20.0140 C.3     1  UNL1        0.0724
@<TRIPOS>BOND
     1     2     3   ar
     2     3     4   ar
     3     4     5   ar
     4     5     1    1
     5     1    13    1
     6    13    14    1
     7    14    15   ar
     8    15    16   ar
     9    16    17   ar
    10    17    18   ar
    11    18    19   ar
    12    13    20    1
    13    20    21    1
    14    21    22    1
    15    22    23    1
    16    23    24    1
    17     1     8    1
    18     8     9    1
    19     9    10    1
    20    10    11    1
    21    11    12    1
    22     5     6   ar
    23     6     7   ar
    24     7     2   ar
    25    19    14   ar
    26    24    20    1
    27    12     8    1
@<TRIPOS>MOLECULE
*****
 24 27 0 0 0
SMALL
GASTEIGER

@<TRIPOS>ATOM
      1 C          -7.8176  -16.6163   22.5733 C.3     1  UNL1        0.0991
      2 C          -6.2563  -15.1484   26.5303 C.ar    1  UNL1       -0.0000
      3 C          -5.3395  -15.2301   25.3459 C.ar    1  UNL1       -0.0003
      4 C          -5.8600  -15.7194   24.0269 C.ar    1  UNL1       -0.0029
      5 C          -7.2972  -16.1270   23.8923 C.ar    1  UNL1       -0.0061
      6 C          -8.2140  -16.0453   25.0767 C.ar    1  UNL1       -0.0029
      7 C          -7.6935  -15.5560   26.3956 C.ar    1  UNL1       -0.0003
      8 N          -8.4492  -15.6533   21.6123 N.3     1  UNL1       -0.2690
      9 C          -7.8059  -14.4213   21.0479 C.3     1  UNL1        0.0724
     10 C          -8.7941  -13.7597   20.1337 C.3     1  UNL1        0.0188
     11 C         -10.0482  -14.5827   20.1331 C.3     1  UNL1        0.0188
     12 C          -9.8350  -15.7530   21.0469 C.3     1  UNL1        0.0724
     13 C          -7.7065  -18.0687   22.2154 C.3     1  UNL1        0.0991
     14 C          -8.8742  -18.9855   22.4297 C.ar    1  UNL1       -0.0061
     15 C          -9.7835  -19.3221   21.2852 C.ar    1  UNL1       -0.0029
     16 C         -10.9512  -20.2389   21.4995 C.ar    1  UNL1       -0.0003
     17 C         -11.2096  -20.8190   22.8585 C.ar    1  UNL1       -0.0000
     18 C         -10.3004  -20.4825   24.0030 C.ar    1  UNL1       -0.0003
     19 C          -9.1327  -19.5657   23.7886 C.ar    1  UNL1       -0.0029
     20 N          -6.4276  -18.6044   21.6430 N.3     1  UNL1       -0.2690
     21 C          -6.2061  -19.0241   20.2200 C.3     1  UNL1        0.0724
     22 C          -4.7873  -19.4935   20.0907 C.3     1  UNL1        0.0188
     23 C          -4.1319  -19.3639   21.4338 C.3     1  UNL1        0.0188
     24 C          -5.1457  -18.8144   22.3931 C.3     1  UNL1        0.0724
@<TRIPOS>BOND
     1     2     3   ar
     2     3     4   ar
     3     4     5   ar
     4     5     1    1
     5     1    13    1
     6    13    14    1
     7    14    15   ar
     8    15    16   ar
     9    16    17   ar
    10    17    18   ar
    11    18    19   ar
    12    13    20    1
    13    20    21    1
    14    21    22    1
    15    22    23    1
    16    23    24    1
    17     1     8    1
    18     8     9    1
    19     9    10    1
    20    10    11    1
    21    11    12    1
    22     5     6   ar
    23     6     7   ar
    24     7     2   ar
    25    19    14   ar
    26    24    20    1
    27    12     8    1
@<TRIPOS>MOLECULE
*****
 24 27 0 0 0
SMALL
GASTEIGER

@<TRIPOS>ATOM
      1 C          -8.1251  -17.1214   23.0953 C.3     1  UNL1        0.0991
      2 C          -6.5646  -15.0989   26.7999 C.ar    1  UNL1       -0.0000
      3 C          -5.7219  -15.1465   25.5599 C.ar    1  UNL1       -0.0003
      4 C          -6.2421  -15.8207   24.3250 C.ar    1  UNL1       -0.0029
      5 C          -7.6050  -16.4473   24.3301 C.ar    1  UNL1       -0.0061
      6 C          -8.4476  -16.3997   25.5701 C.ar    1  UNL1       -0.0029
      7 C          -7.9274  -15.7255   26.8050 C.ar    1  UNL1       -0.0003
      8 N          -7.3076  -18.1814   22.4185 N.3     1  UNL1       -0.2690
      9 C          -5.8169  -18.3293   22.4967 C.3     1  UNL1        0.0724
     10 C          -5.4251  -19.5189   21.6713 C.3     1  UNL1        0.0188
     11 C          -6.6736  -20.1063   21.0829 C.3     1  UNL1        0.0188
     12 C          -7.8371  -19.2796   21.5447 C.3     1  UNL1        0.0724
     13 C          -9.4629  -16.7356   22.5371 C.3     1  UNL1        0.0991
     14 C         -10.7160  -17.3117   23.1268 C.ar    1  UNL1       -0.0061
     15 C         -12.0477  -16.7046   22.7978 C.ar    1  UNL1       -0.0029
     16 C         -13.3008  -17.2807   23.3875 C.ar    1  UNL1       -0.0003
     17 C         -13.2223  -18.4638   24.3063 C.ar    1  UNL1       -0.0000
     18 C         -11.8907  -19.0708   24.6353 C.ar    1  UNL1       -0.0003
     19 C         -10.6376  -18.4948   24.0456 C.ar    1  UNL1       -0.0029
     20 N          -9.5475  -15.7737   21.3892 N.3     1  UNL1       -0.2690
     21 C          -8.6428  -14.6008   21.1532 C.3     1  UNL1        0.0724
     22 C          -9.0879  -13.9181   19.8940 C.3     1  UNL1        0.0188
     23 C         -10.2677  -14.6691   19.3516 C.3     1  UNL1        0.0188
     24 C         -10.5517  -15.8159   20.2757 C.3     1  UNL1        0.0724
@<TRIPOS>BOND
     1     2     3   ar
     2     3     4   ar
     3     4     5   ar
     4     5     1    1
     5     1    13    1
     6    13    14    1
     7    14    15   ar
     8    15    16   ar
     9    16    17   ar
    10    17    18   ar
    11    18    19   ar
    12    13    20    1
    13    20    21    1
    14    21    22    1
    15    22    23    1
    16    23    24    1
    17     1     8    1
    18     8     9    1
    19     9    10    1
    20    10    11    1
    21    11    12    1
    22     5     6   ar
    23     6     7   ar
    24     7     2   ar
    25    19    14   ar
    26    24    20    1
    27    12     8    1
