@<TRIPOS>MOLECULE
*****
 26 28 0 0 0
SMALL
GASTEIGER

@<TRIPOS>ATOM
      1 N          -8.1338  -18.3561   21.2532 N.2     1  UNL1       -0.0851
      2 C          -8.7944  -17.3017   22.0910 C.2     1  UNL1        0.1206
      3 C         -10.1713  -17.5331   22.6393 C.ar    1  UNL1        0.0292
      4 C         -10.3611  -18.4008   23.8481 C.ar    1  UNL1        0.0030
      5 C         -11.7380  -18.6322   24.3965 C.ar    1  UNL1        0.0115
      6 C         -12.9250  -17.9960   23.7361 C.ar    1  UNL1        0.0585
      7 CL        -14.3019  -18.2275   24.2844 Cl      1  UNL1       -0.0822
      8 C         -12.7352  -17.1283   22.5272 C.ar    1  UNL1        0.0228
      9 C         -11.3584  -16.8969   21.9789 C.ar    1  UNL1        0.0598
     10 CL        -11.1685  -16.0293   20.7701 Cl      1  UNL1       -0.0822
     11 O          -6.7569  -18.1247   20.7049 O.2     1  UNL1       -0.3726
     12 C          -5.7076  -19.1881   20.8391 C.3     1  UNL1        0.2659
     13 CL          0.0766  -17.8146   20.0292 Cl      1  UNL1       -0.0822
     14 C          -1.3694  -18.1580   20.2317 C.ar    1  UNL1        0.0585
     15 C          -2.2378  -18.4743   19.0502 C.ar    1  UNL1        0.0112
     16 C          -3.6838  -18.8177   19.2527 C.ar    1  UNL1        0.0011
     17 C          -4.2616  -18.8448   20.6366 C.ar    1  UNL1        0.0346
     18 C          -3.3933  -18.5285   21.8181 C.ar    1  UNL1        0.0581
     19 CL         -3.9710  -18.5555   23.2022 Cl      1  UNL1       -0.0824
     20 C          -1.9472  -18.1851   21.6156 C.ar    1  UNL1        0.0226
     21 C          -8.0782  -16.0159   22.3804 C.3     1  UNL1        0.1567
     22 N          -7.4096  -15.8121   23.7076 N.ar    1  UNL1       -0.3019
     23 C          -8.0938  -15.7653   25.0416 C.ar    1  UNL1        0.0983
     24 C          -7.0465  -15.5436   26.0922 C.ar    1  UNL1        0.1193
     25 N          -5.7149  -15.4533   25.4076 N.ar    1  UNL1       -0.2223
     26 C          -5.9394  -15.6193   23.9338 C.ar    1  UNL1        0.1789
@<TRIPOS>BOND
     1    13    14    1
     2    14    15   ar
     3    15    16   ar
     4    16    17   ar
     5    17    12    1
     6    12    11    1
     7    11     1    1
     8     1     2    2
     9     2    21    1
    10    21    22    1
    11    22    23   ar
    12    23    24   ar
    13    24    25   ar
    14    25    26   ar
    15     2     3    1
    16     3     4   ar
    17     4     5   ar
    18     5     6   ar
    19     6     7    1
    20     6     8   ar
    21     8     9   ar
    22     9    10    1
    23    17    18   ar
    24    18    19    1
    25    18    20   ar
    26    20    14   ar
    27    26    22   ar
    28     9     3   ar
@<TRIPOS>MOLECULE
*****
 26 28 0 0 0
SMALL
GASTEIGER

@<TRIPOS>ATOM
      1 N          -8.1173  -20.1094   22.9493 N.2     1  UNL1       -0.0851
      2 C          -7.4744  -18.8342   22.4901 C.2     1  UNL1        0.1206
      3 C          -6.1218  -18.8670   21.8426 C.ar    1  UNL1        0.0292
      4 C          -4.8918  -18.6090   22.6615 C.ar    1  UNL1        0.0030
      5 C          -3.5392  -18.6418   22.0139 C.ar    1  UNL1        0.0115
      6 C          -3.4165  -18.9327   20.5476 C.ar    1  UNL1        0.0585
      7 CL         -2.0639  -18.9655   19.9001 Cl      1  UNL1       -0.0822
      8 C          -4.6465  -19.1907   19.7286 C.ar    1  UNL1        0.0228
      9 C          -5.9992  -19.1579   20.3762 C.ar    1  UNL1        0.0598
     10 CL         -7.2291  -19.4160   19.5573 Cl      1  UNL1       -0.0822
     11 O          -9.4699  -20.0765   23.5968 O.2     1  UNL1       -0.3726
     12 C         -10.7073  -20.1679   22.7540 C.3     1  UNL1        0.2659
     13 CL        -12.2435  -15.6033   19.1756 Cl      1  UNL1       -0.0822
     14 C         -11.8595  -16.7444   20.0702 C.ar    1  UNL1        0.0585
     15 C         -11.0137  -17.8630   19.5378 C.ar    1  UNL1        0.0112
     16 C         -10.6297  -19.0041   20.4324 C.ar    1  UNL1        0.0011
     17 C         -11.0914  -19.0267   21.8594 C.ar    1  UNL1        0.0346
     18 C         -11.9371  -17.9081   22.3917 C.ar    1  UNL1        0.0581
     19 CL        -12.3989  -17.9307   23.8188 Cl      1  UNL1       -0.0824
     20 C         -12.3212  -16.7670   21.4972 C.ar    1  UNL1        0.0226
     21 C          -8.1842  -17.5263   22.6785 C.3     1  UNL1        0.1567
     22 N          -7.9595  -16.7238   23.9257 N.ar    1  UNL1       -0.3019
     23 C          -8.8606  -16.6860   25.1242 C.ar    1  UNL1        0.0983
     24 C          -8.2522  -15.7570   26.1326 C.ar    1  UNL1        0.1193
     25 N          -6.9749  -15.2206   25.5572 N.ar    1  UNL1       -0.2223
     26 C          -6.7940  -15.8182   24.1933 C.ar    1  UNL1        0.1789
@<TRIPOS>BOND
     1    13    14    1
     2    14    15   ar
     3    15    16   ar
     4    16    17   ar
     5    17    12    1
     6    12    11    1
     7    11     1    1
     8     1     2    2
     9     2    21    1
    10    21    22    1
    11    22    23   ar
    12    23    24   ar
    13    24    25   ar
    14    25    26   ar
    15     2     3    1
    16     3     4   ar
    17     4     5   ar
    18     5     6   ar
    19     6     7    1
    20     6     8   ar
    21     8     9   ar
    22     9    10    1
    23    17    18   ar
    24    18    19    1
    25    18    20   ar
    26    20    14   ar
    27    26    22   ar
    28     9     3   ar
@<TRIPOS>MOLECULE
*****
 26 28 0 0 0
SMALL
GASTEIGER

@<TRIPOS>ATOM
      1 N          -7.4868  -20.0316   22.7348 N.2     1  UNL1       -0.0851
      2 C          -6.8933  -18.7773   22.1651 C.2     1  UNL1        0.1206
      3 C          -5.5190  -18.8035   21.5645 C.ar    1  UNL1        0.0292
      4 C          -5.3305  -19.2401   20.1419 C.ar    1  UNL1        0.0030
      5 C          -3.9562  -19.2664   19.5413 C.ar    1  UNL1        0.0115
      6 C          -2.7705  -18.8559   20.3632 C.ar    1  UNL1        0.0585
      7 CL         -1.3963  -18.8821   19.7626 Cl      1  UNL1       -0.0822
      8 C          -2.9591  -18.4192   21.7859 C.ar    1  UNL1        0.0228
      9 C          -4.3333  -18.3930   22.3865 C.ar    1  UNL1        0.0598
     10 CL         -4.5219  -17.9563   23.8091 Cl      1  UNL1       -0.0822
     11 O          -8.8611  -20.0054   23.3354 O.2     1  UNL1       -0.3726
     12 C         -10.0623  -20.2480   22.4706 C.3     1  UNL1        0.2659
     13 CL        -12.6743  -15.6658   19.6102 Cl      1  UNL1       -0.0822
     14 C         -12.0213  -16.8114   20.3253 C.ar    1  UNL1        0.0585
     15 C         -12.3258  -17.0638   21.7722 C.ar    1  UNL1        0.0112
     16 C         -11.6728  -18.2093   22.4873 C.ar    1  UNL1        0.0011
     17 C         -10.7153  -19.1024   21.7555 C.ar    1  UNL1        0.0346
     18 C         -10.4109  -18.8500   20.3086 C.ar    1  UNL1        0.0581
     19 CL         -9.4533  -19.7431   19.5767 Cl      1  UNL1       -0.0824
     20 C         -11.0639  -17.7044   19.5935 C.ar    1  UNL1        0.0226
     21 C          -7.6740  -17.4969   22.1960 C.3     1  UNL1        0.1567
     22 N          -7.7702  -16.7076   23.4680 N.ar    1  UNL1       -0.3019
     23 C          -6.8294  -15.6251   23.9072 C.ar    1  UNL1        0.0983
     24 C          -7.3018  -15.1107   25.2347 C.ar    1  UNL1        0.1193
     25 N          -8.5347  -15.8754   25.6159 N.ar    1  UNL1       -0.2223
     26 C          -8.8241  -16.8623   24.5240 C.ar    1  UNL1        0.1789
@<TRIPOS>BOND
     1    13    14    1
     2    14    15   ar
     3    15    16   ar
     4    16    17   ar
     5    17    12    1
     6    12    11    1
     7    11     1    1
     8     1     2    2
     9     2    21    1
    10    21    22    1
    11    22    23   ar
    12    23    24   ar
    13    24    25   ar
    14    25    26   ar
    15     2     3    1
    16     3     4   ar
    17     4     5   ar
    18     5     6   ar
    19     6     7    1
    20     6     8   ar
    21     8     9   ar
    22     9    10    1
    23    17    18   ar
    24    18    19    1
    25    18    20   ar
    26    20    14   ar
    27    26    22   ar
    28     9     3   ar
@<TRIPOS>MOLECULE
*****
 26 28 0 0 0
SMALL
GASTEIGER

@<TRIPOS>ATOM
      1 N          -6.1729  -17.3912   22.8381 N.2     1  UNL1       -0.0851
      2 C          -5.6933  -18.5644   22.0358 C.2     1  UNL1        0.1206
      3 C          -4.3302  -18.5382   21.4102 C.ar    1  UNL1        0.0292
      4 C          -4.1712  -18.8250   19.9465 C.ar    1  UNL1        0.0030
      5 C          -2.8082  -18.7988   19.3208 C.ar    1  UNL1        0.0115
      6 C          -1.6042  -18.4859   20.1589 C.ar    1  UNL1        0.0585
      7 CL         -0.2411  -18.4597   19.5332 Cl      1  UNL1       -0.0822
      8 C          -1.7631  -18.1991   21.6227 C.ar    1  UNL1        0.0228
      9 C          -3.1262  -18.2253   22.2483 C.ar    1  UNL1        0.0598
     10 CL         -3.2852  -17.9386   23.7120 Cl      1  UNL1       -0.0822
     11 O          -7.5359  -17.4174   23.4638 O.2     1  UNL1       -0.3726
     12 C          -8.6646  -16.6553   22.8350 C.3     1  UNL1        0.2659
     13 CL        -14.3407  -18.2977   23.8759 Cl      1  UNL1       -0.0822
     14 C         -12.9217  -17.8871   23.6157 C.ar    1  UNL1        0.0585
     15 C         -11.8222  -18.3810   24.5086 C.ar    1  UNL1        0.0112
     16 C         -10.4032  -17.9704   24.2483 C.ar    1  UNL1        0.0011
     17 C         -10.0836  -17.0659   23.0952 C.ar    1  UNL1        0.0346
     18 C         -11.1830  -16.5720   22.2024 C.ar    1  UNL1        0.0581
     19 CL        -10.8635  -15.6674   21.0492 Cl      1  UNL1       -0.0824
     20 C         -12.6021  -16.9826   22.4626 C.ar    1  UNL1        0.0226
     21 C          -6.5766  -19.7637   21.8592 C.3     1  UNL1        0.1567
     22 N          -7.8011  -19.6730   20.9975 N.ar    1  UNL1       -0.3019
     23 C          -9.2157  -19.8813   21.4508 C.ar    1  UNL1        0.0983
     24 C         -10.1148  -19.6951   20.2646 C.ar    1  UNL1        0.1193
     25 N          -9.2558  -19.3717   19.0782 N.ar    1  UNL1       -0.2223
     26 C          -7.8259  -19.3581   19.5312 C.ar    1  UNL1        0.1789
@<TRIPOS>BOND
     1    13    14    1
     2    14    15   ar
     3    15    16   ar
     4    16    17   ar
     5    17    12    1
     6    12    11    1
     7    11     1    1
     8     1     2    2
     9     2    21    1
    10    21    22    1
    11    22    23   ar
    12    23    24   ar
    13    24    25   ar
    14    25    26   ar
    15     2     3    1
    16     3     4   ar
    17     4     5   ar
    18     5     6   ar
    19     6     7    1
    20     6     8   ar
    21     8     9   ar
    22     9    10    1
    23    17    18   ar
    24    18    19    1
    25    18    20   ar
    26    20    14   ar
    27    26    22   ar
    28     9     3   ar
@<TRIPOS>MOLECULE
*****
 26 28 0 0 0
SMALL
GASTEIGER

@<TRIPOS>ATOM
      1 N          -6.8239  -19.7311   19.8994 N.2     1  UNL1       -0.0851
      2 C          -5.9178  -19.1737   20.9570 C.2     1  UNL1        0.1206
      3 C          -4.4764  -18.9022   20.6429 C.ar    1  UNL1        0.0292
      4 C          -4.0846  -18.4173   19.2787 C.ar    1  UNL1        0.0030
      5 C          -2.6432  -18.1458   18.9645 C.ar    1  UNL1        0.0115
      6 C          -1.5937  -18.3593   20.0147 C.ar    1  UNL1        0.0585
      7 CL         -0.1523  -18.0878   19.7005 Cl      1  UNL1       -0.0822
      8 C          -1.9855  -18.8442   21.3790 C.ar    1  UNL1        0.0228
      9 C          -3.4269  -19.1157   21.6932 C.ar    1  UNL1        0.0598
     10 CL         -3.8187  -19.6006   23.0574 Cl      1  UNL1       -0.0822
     11 O          -8.2653  -20.0026   20.2135 O.2     1  UNL1       -0.3726
     12 C          -9.3014  -18.9506   19.9497 C.3     1  UNL1        0.2659
     13 CL        -13.6307  -17.9274   23.9758 Cl      1  UNL1       -0.0822
     14 C         -12.5484  -18.1832   22.9693 C.ar    1  UNL1        0.0585
     15 C         -11.5093  -19.2316   23.2354 C.ar    1  UNL1        0.0112
     16 C         -10.4269  -19.4874   22.2289 C.ar    1  UNL1        0.0011
     17 C         -10.3837  -18.6948   20.9562 C.ar    1  UNL1        0.0346
     18 C         -11.4229  -17.6463   20.6901 C.ar    1  UNL1        0.0581
     19 CL        -11.3797  -16.8536   19.4173 Cl      1  UNL1       -0.0824
     20 C         -12.5052  -17.3905   21.6966 C.ar    1  UNL1        0.0226
     21 C          -6.4532  -18.8879   22.3288 C.3     1  UNL1        0.1567
     22 N          -6.6691  -17.4704   22.7693 N.ar    1  UNL1       -0.3019
     23 C          -7.8845  -16.6363   22.4919 C.ar    1  UNL1        0.0983
     24 C          -7.6740  -15.2885   23.1158 C.ar    1  UNL1        0.1193
     25 N          -6.3284  -15.2897   23.7788 N.ar    1  UNL1       -0.2223
     26 C          -5.7074  -16.6382   23.5646 C.ar    1  UNL1        0.1789
@<TRIPOS>BOND
     1    13    14    1
     2    14    15   ar
     3    15    16   ar
     4    16    17   ar
     5    17    12    1
     6    12    11    1
     7    11     1    1
     8     1     2    2
     9     2    21    1
    10    21    22    1
    11    22    23   ar
    12    23    24   ar
    13    24    25   ar
    14    25    26   ar
    15     2     3    1
    16     3     4   ar
    17     4     5   ar
    18     5     6   ar
    19     6     7    1
    20     6     8   ar
    21     8     9   ar
    22     9    10    1
    23    17    18   ar
    24    18    19    1
    25    18    20   ar
    26    20    14   ar
    27    26    22   ar
    28     9     3   ar
