@<TRIPOS>MOLECULE
*****
 31 33 0 0 0
SMALL
GASTEIGER

@<TRIPOS>ATOM
      1 C           7.4539   -3.8384   21.1454 C.ar    1  UNL1        0.1334
      2 N           8.0647   -5.1851   20.8934 N.ar    1  UNL1       -0.1408
      3 N           8.1623   -5.9030   22.2068 N.ar    1  UNL1       -0.1408
      4 C           7.6118   -5.0000   23.2706 C.ar    1  UNL1        0.1337
      5 S           7.1740   -3.7240   22.6146 S.2     1  UNL1       -0.0455
      6 C           5.8489   -2.7691   19.4046 C.ar    1  UNL1       -0.0241
      7 C           5.5675   -1.7209   18.3692 C.ar    1  UNL1       -0.0261
      8 C           6.6096   -0.6937   18.0394 C.ar    1  UNL1       -0.0046
      9 C           7.9332   -0.7147   18.7448 C.ar    1  UNL1       -0.0003
     10 C           8.2146   -1.7630   19.7801 C.ar    1  UNL1        0.0017
     11 C           7.1725   -2.7902   20.1100 C.ar    1  UNL1        0.0214
     12 C           4.6594   -5.0177   18.8763 C.3     1  UNL1        0.0050
     13 C           4.8068   -3.7963   19.7345 C.3     1  UNL1        0.0261
     14 C           4.2439   -1.6998   17.6637 C.3     1  UNL1        0.0264
     15 C           3.5673   -0.3920   17.3775 C.3     1  UNL1        0.0106
     16 C           3.0088    0.4258   18.5042 C.3     1  UNL1        0.0421
     17 C           1.5618    0.2982   18.8781 C.2     1  UNL1        0.0503
     18 O           1.1379   -0.7135   19.9012 O.co2   1  UNL1       -0.5492
     19 O           0.5386    1.1823   18.2288 O.co2   1  UNL1       -0.5492
     20 C           7.5160   -5.3172   24.7336 C.ar    1  UNL1        0.0265
     21 C           7.1784   -4.2345   25.7152 C.ar    1  UNL1        0.0052
     22 C           7.0826   -4.5518   27.1781 C.ar    1  UNL1        0.0377
     23 C           7.3243   -5.9518   27.6594 C.ar    1  UNL1        0.1479
     24 C           7.6618   -7.0345   26.6777 C.ar    1  UNL1        0.1023
     25 C           7.7577   -6.7173   25.2148 C.ar    1  UNL1        0.0154
     26 C           7.9036   -8.4346   27.1589 C.1     1  UNL1        0.1035
     27 N           8.1453   -9.8345   27.6401 N.1     1  UNL1       -0.1907
     28 O           7.2284   -6.2691   29.1223 O.3     1  UNL1       -0.4785
     29 C           7.8445   -5.3463   30.1317 C.3     1  UNL1        0.1662
     30 C           9.3336   -5.1713   30.1774 C.3     1  UNL1        0.0472
     31 C           6.9716   -4.5986   31.0955 C.3     1  UNL1        0.0472
@<TRIPOS>UNITY_ATOM_ATTR
18 1
charge -1
@<TRIPOS>BOND
     1    12    13    1
     2    13     6    1
     3     6     7   ar
     4     7    14    1
     5    14    15    1
     6    15    16    1
     7    16    17    1
     8    17    18   ar
     9    17    19   ar
    10     7     8   ar
    11     8     9   ar
    12     9    10   ar
    13    10    11   ar
    14    11     1    1
    15     1     2   ar
    16     2     3   ar
    17     3     4   ar
    18     4    20    1
    19    20    21   ar
    20    21    22   ar
    21    22    23   ar
    22    23    28    1
    23    28    29    1
    24    29    30    1
    25    29    31    1
    26    23    24   ar
    27    24    26    1
    28    26    27    3
    29    24    25   ar
    30     4     5   ar
    31    11     6   ar
    32     5     1   ar
    33    25    20   ar
@<TRIPOS>MOLECULE
*****
 31 33 0 0 0
SMALL
GASTEIGER

@<TRIPOS>ATOM
      1 C           7.2930   -3.7024   21.3667 C.ar    1  UNL1        0.1334
      2 N           7.9159   -5.0613   21.2431 N.ar    1  UNL1       -0.1408
      3 N           7.9303   -5.6902   22.6048 N.ar    1  UNL1       -0.1408
      4 C           7.3163   -4.7199   23.5700 C.ar    1  UNL1        0.1337
      5 S           6.9225   -3.4914   22.8048 S.2     1  UNL1       -0.0455
      6 C           5.7921   -2.7398   19.4770 C.ar    1  UNL1       -0.0241
      7 C           5.5775   -1.7633   18.3589 C.ar    1  UNL1       -0.0261
      8 C           6.6492   -0.7727   18.0122 C.ar    1  UNL1       -0.0046
      9 C           7.9355   -0.7587   18.7836 C.ar    1  UNL1       -0.0003
     10 C           8.1501   -1.7353   19.9017 C.ar    1  UNL1        0.0017
     11 C           7.0784   -2.7258   20.2484 C.ar    1  UNL1        0.0214
     12 C           4.5699   -4.9858   19.0168 C.3     1  UNL1        0.0050
     13 C           4.7203   -3.7303   19.8238 C.3     1  UNL1        0.0261
     14 C           4.2911   -1.7772   17.5874 C.3     1  UNL1        0.0264
     15 C           3.6196   -0.4857   17.2255 C.3     1  UNL1        0.0106
     16 C           3.1012    0.4183   18.3046 C.3     1  UNL1        0.0421
     17 C           1.7012    0.2497   18.8159 C.2     1  UNL1        0.0503
     18 O           0.5866    1.0674   18.2337 O.co2   1  UNL1       -0.5492
     19 O           1.4159   -0.7365   19.9094 O.co2   1  UNL1       -0.5492
     20 C           7.1291   -4.9396   25.0420 C.ar    1  UNL1        0.0265
     21 C           7.3564   -6.2998   25.6321 C.ar    1  UNL1        0.0052
     22 C           7.1692   -6.5195   27.1041 C.ar    1  UNL1        0.0377
     23 C           6.7546   -5.3790   27.9859 C.ar    1  UNL1        0.1479
     24 C           6.5273   -4.0188   27.3957 C.ar    1  UNL1        0.1023
     25 C           6.7145   -3.7991   25.9238 C.ar    1  UNL1        0.0154
     26 C           6.1127   -2.8784   28.2775 C.1     1  UNL1        0.1035
     27 N           5.6982   -1.7380   29.1592 N.1     1  UNL1       -0.1907
     28 O           6.5674   -5.5987   29.4578 O.3     1  UNL1       -0.4785
     29 C           7.7258   -5.4267   30.3951 C.3     1  UNL1        0.1662
     30 C           8.8712   -6.3946   30.3574 C.3     1  UNL1        0.0472
     31 C           7.7389   -4.2868   31.3701 C.3     1  UNL1        0.0472
@<TRIPOS>UNITY_ATOM_ATTR
18 1
charge -1
@<TRIPOS>BOND
     1    12    13    1
     2    13     6    1
     3     6     7   ar
     4     7    14    1
     5    14    15    1
     6    15    16    1
     7    16    17    1
     8    17    18   ar
     9    17    19   ar
    10     7     8   ar
    11     8     9   ar
    12     9    10   ar
    13    10    11   ar
    14    11     1    1
    15     1     2   ar
    16     2     3   ar
    17     3     4   ar
    18     4    20    1
    19    20    21   ar
    20    21    22   ar
    21    22    23   ar
    22    23    28    1
    23    28    29    1
    24    29    30    1
    25    29    31    1
    26    23    24   ar
    27    24    26    1
    28    26    27    3
    29    24    25   ar
    30     4     5   ar
    31    11     6   ar
    32     5     1   ar
    33    25    20   ar
@<TRIPOS>MOLECULE
*****
 31 33 0 0 0
SMALL
GASTEIGER

@<TRIPOS>ATOM
      1 C          -8.0823  -19.0526   21.3834 C.ar    1  UNL1        0.1334
      2 N          -7.7531  -20.1476   22.3543 N.ar    1  UNL1       -0.1408
      3 N          -6.2680  -20.3565   22.3312 N.ar    1  UNL1       -0.1408
      4 C          -5.6792  -19.3907   21.3460 C.ar    1  UNL1        0.1337
      5 S          -6.8006  -18.5848   20.7602 S.2     1  UNL1       -0.0455
      6 C         -10.1399  -17.6263   22.0778 C.ar    1  UNL1       -0.0241
      7 C         -11.5102  -17.0928   21.7818 C.ar    1  UNL1       -0.0261
      8 C         -12.1933  -17.4521   20.4957 C.ar    1  UNL1       -0.0046
      9 C         -11.5062  -18.3449   19.5054 C.ar    1  UNL1       -0.0003
     10 C         -10.1359  -18.8784   19.8013 C.ar    1  UNL1        0.0017
     11 C          -9.4527  -18.5191   21.0875 C.ar    1  UNL1        0.0214
     12 C          -9.6877  -18.0956   24.5927 C.3     1  UNL1        0.0050
     13 C          -9.4568  -17.2670   23.3639 C.3     1  UNL1        0.0261
     14 C         -12.1974  -16.1999   22.7721 C.3     1  UNL1        0.0264
     15 C         -13.4086  -16.6896   23.5092 C.3     1  UNL1        0.0106
     16 C         -13.4910  -18.1214   23.9488 C.3     1  UNL1        0.0421
     17 C         -14.6122  -18.5693   24.8390 C.2     1  UNL1        0.0503
     18 O         -15.9601  -18.8701   24.2538 O.co2   1  UNL1       -0.5492
     19 O         -14.3853  -18.7162   26.3144 O.co2   1  UNL1       -0.5492
     20 C          -4.2246  -19.2546   21.0063 C.ar    1  UNL1        0.0265
     21 C          -3.1806  -19.6008   22.0262 C.ar    1  UNL1        0.0052
     22 C          -1.7260  -19.4648   21.6865 C.ar    1  UNL1        0.0377
     23 C          -1.3152  -18.9824   20.3268 C.ar    1  UNL1        0.1479
     24 C          -2.3592  -18.6361   19.3069 C.ar    1  UNL1        0.1023
     25 C          -3.8138  -18.7722   19.6466 C.ar    1  UNL1        0.0154
     26 C          -1.9485  -18.1538   17.9472 C.1     1  UNL1        0.1035
     27 N          -1.5378  -17.6715   16.5877 N.1     1  UNL1       -0.1907
     28 O           0.1394  -18.8463   19.9871 O.3     1  UNL1       -0.4785
     29 C           0.8724  -17.5811   20.3214 C.3     1  UNL1        0.1662
     30 C           2.2708  -17.6445   20.8606 C.3     1  UNL1        0.0472
     31 C           0.2073  -16.2523   20.1165 C.3     1  UNL1        0.0472
@<TRIPOS>UNITY_ATOM_ATTR
18 1
charge -1
@<TRIPOS>BOND
     1    12    13    1
     2    13     6    1
     3     6     7   ar
     4     7    14    1
     5    14    15    1
     6    15    16    1
     7    16    17    1
     8    17    18   ar
     9    17    19   ar
    10     7     8   ar
    11     8     9   ar
    12     9    10   ar
    13    10    11   ar
    14    11     1    1
    15     1     2   ar
    16     2     3   ar
    17     3     4   ar
    18     4    20    1
    19    20    21   ar
    20    21    22   ar
    21    22    23   ar
    22    23    28    1
    23    28    29    1
    24    29    30    1
    25    29    31    1
    26    23    24   ar
    27    24    26    1
    28    26    27    3
    29    24    25   ar
    30     4     5   ar
    31    11     6   ar
    32     5     1   ar
    33    25    20   ar
@<TRIPOS>MOLECULE
*****
 31 33 0 0 0
SMALL
GASTEIGER

@<TRIPOS>ATOM
      1 C          -7.9365  -19.5202   21.8170 C.ar    1  UNL1        0.1334
      2 N          -7.9982  -20.3820   20.5909 N.ar    1  UNL1       -0.1408
      3 N          -6.6196  -20.4523   20.0038 N.ar    1  UNL1       -0.1408
      4 C          -5.7058  -19.6339   20.8672 C.ar    1  UNL1        0.1337
      5 S          -6.5197  -19.0579   21.9878 S.2     1  UNL1       -0.0455
      6 C          -9.7159  -17.8192   22.6480 C.ar    1  UNL1       -0.0241
      7 C         -10.8685  -17.4794   23.5458 C.ar    1  UNL1       -0.0261
      8 C         -11.3942  -18.5007   24.5104 C.ar    1  UNL1       -0.0046
      9 C         -10.7674  -19.8618   24.5773 C.ar    1  UNL1       -0.0003
     10 C          -9.6149  -20.2016   23.6795 C.ar    1  UNL1        0.0017
     11 C          -9.0891  -19.1803   22.7148 C.ar    1  UNL1        0.0214
     12 C          -8.2500  -15.7305   22.1596 C.3     1  UNL1        0.0050
     13 C          -9.1901  -16.7979   21.6834 C.3     1  UNL1        0.0261
     14 C         -11.4953  -16.1183   23.4790 C.3     1  UNL1        0.0264
     15 C         -12.5715  -15.8368   22.4727 C.3     1  UNL1        0.0106
     16 C         -12.8886  -16.8479   21.4110 C.3     1  UNL1        0.0421
     17 C         -12.2388  -16.7486   20.0627 C.2     1  UNL1        0.0503
     18 O         -11.4983  -17.9248   19.4986 O.co2   1  UNL1       -0.5492
     19 O         -12.3294  -15.4732   19.2786 O.co2   1  UNL1       -0.5492
     20 C          -4.2363  -19.4279   20.6484 C.ar    1  UNL1        0.0265
     21 C          -3.2639  -19.7358   21.7482 C.ar    1  UNL1        0.0052
     22 C          -1.7943  -19.5297   21.5293 C.ar    1  UNL1        0.0377
     23 C          -1.2972  -19.0157   20.2107 C.ar    1  UNL1        0.1479
     24 C          -2.2696  -18.7078   19.1109 C.ar    1  UNL1        0.1023
     25 C          -3.7392  -18.9139   19.3298 C.ar    1  UNL1        0.0154
     26 C          -1.7725  -18.1938   17.7923 C.1     1  UNL1        0.1035
     27 N          -1.2754  -17.6798   16.4738 N.1     1  UNL1       -0.1907
     28 O           0.1724  -18.8096   19.9919 O.3     1  UNL1       -0.4785
     29 C           0.8127  -17.5089   20.3766 C.3     1  UNL1        0.1662
     30 C           0.0246  -16.2346   20.3045 C.3     1  UNL1        0.0472
     31 C           2.2413  -17.4822   20.8333 C.3     1  UNL1        0.0472
@<TRIPOS>UNITY_ATOM_ATTR
18 1
charge -1
@<TRIPOS>BOND
     1    12    13    1
     2    13     6    1
     3     6     7   ar
     4     7    14    1
     5    14    15    1
     6    15    16    1
     7    16    17    1
     8    17    18   ar
     9    17    19   ar
    10     7     8   ar
    11     8     9   ar
    12     9    10   ar
    13    10    11   ar
    14    11     1    1
    15     1     2   ar
    16     2     3   ar
    17     3     4   ar
    18     4    20    1
    19    20    21   ar
    20    21    22   ar
    21    22    23   ar
    22    23    28    1
    23    28    29    1
    24    29    30    1
    25    29    31    1
    26    23    24   ar
    27    24    26    1
    28    26    27    3
    29    24    25   ar
    30     4     5   ar
    31    11     6   ar
    32     5     1   ar
    33    25    20   ar
@<TRIPOS>MOLECULE
*****
 31 33 0 0 0
SMALL
GASTEIGER

@<TRIPOS>ATOM
      1 C           6.5128   -3.4424   22.0633 C.ar    1  UNL1        0.1334
      2 N           7.7753   -2.6333   22.0270 N.ar    1  UNL1       -0.1408
      3 N           8.5755   -2.9677   23.2509 N.ar    1  UNL1       -0.1408
      4 C           7.8076   -3.9835   24.0436 C.ar    1  UNL1        0.1337
      5 S           6.5328   -4.2769   23.3096 S.2     1  UNL1       -0.0455
      6 C           4.4085   -2.3150   21.0382 C.ar    1  UNL1       -0.0241
      7 C           3.3176   -2.2935   20.0090 C.ar    1  UNL1       -0.0261
      8 C           3.2401   -3.3779   18.9754 C.ar    1  UNL1       -0.0046
      9 C           4.2535   -4.4837   18.9712 C.ar    1  UNL1       -0.0003
     10 C           5.3444   -4.5052   20.0004 C.ar    1  UNL1        0.0017
     11 C           5.4219   -3.4209   21.0340 C.ar    1  UNL1        0.0214
     12 C           3.7476   -1.3771   23.3692 C.3     1  UNL1        0.0050
     13 C           4.4859   -1.2307   22.0718 C.3     1  UNL1        0.0261
     14 C           2.3041   -1.1877   20.0132 C.3     1  UNL1        0.0264
     15 C           2.5438    0.0525   19.2041 C.3     1  UNL1        0.0106
     16 C           3.0955   -0.0544   17.8133 C.3     1  UNL1        0.0421
     17 C           4.5754    0.0322   17.5847 C.2     1  UNL1        0.0503
     18 O           5.3516   -1.1991   17.2223 O.co2   1  UNL1       -0.5492
     19 O           5.2790    1.3501   17.7185 O.co2   1  UNL1       -0.5492
     20 C           8.2387   -4.5981   25.3422 C.ar    1  UNL1        0.0265
     21 C           8.9518   -3.7652   26.3658 C.ar    1  UNL1        0.0052
     22 C           9.3829   -4.3797   27.6645 C.ar    1  UNL1        0.0377
     23 C           9.1010   -5.8271   27.9394 C.ar    1  UNL1        0.1479
     24 C           8.3880   -6.6600   26.9158 C.ar    1  UNL1        0.1023
     25 C           7.9568   -6.0455   25.6172 C.ar    1  UNL1        0.0154
     26 C           8.1061   -8.1074   27.1908 C.1     1  UNL1        0.1035
     27 N           7.8242   -9.5547   27.4658 N.1     1  UNL1       -0.1907
     28 O           9.5322   -6.4416   29.2381 O.3     1  UNL1       -0.4785
     29 C           8.6348   -6.3669   30.4377 C.3     1  UNL1        0.1662
     30 C           9.1151   -6.8712   31.7663 C.3     1  UNL1        0.0472
     31 C           7.2570   -5.7879   30.3088 C.3     1  UNL1        0.0472
@<TRIPOS>UNITY_ATOM_ATTR
18 1
charge -1
@<TRIPOS>BOND
     1    12    13    1
     2    13     6    1
     3     6     7   ar
     4     7    14    1
     5    14    15    1
     6    15    16    1
     7    16    17    1
     8    17    18   ar
     9    17    19   ar
    10     7     8   ar
    11     8     9   ar
    12     9    10   ar
    13    10    11   ar
    14    11     1    1
    15     1     2   ar
    16     2     3   ar
    17     3     4   ar
    18     4    20    1
    19    20    21   ar
    20    21    22   ar
    21    22    23   ar
    22    23    28    1
    23    28    29    1
    24    29    30    1
    25    29    31    1
    26    23    24   ar
    27    24    26    1
    28    26    27    3
    29    24    25   ar
    30     4     5   ar
    31    11     6   ar
    32     5     1   ar
    33    25    20   ar
@<TRIPOS>MOLECULE
*****
 31 33 0 0 0
SMALL
GASTEIGER

@<TRIPOS>ATOM
      1 C          -7.9222  -19.4356   22.5391 C.ar    1  UNL1        0.1334
      2 N          -7.3528  -20.8014   22.2931 N.ar    1  UNL1       -0.1408
      3 N          -5.9192  -20.6389   21.8830 N.ar    1  UNL1       -0.1408
      4 C          -5.6025  -19.1727   21.8755 C.ar    1  UNL1        0.1337
      5 S          -6.8405  -18.4291   22.2810 S.2     1  UNL1       -0.0455
      6 C         -10.3404  -18.6863   21.9551 C.ar    1  UNL1       -0.0241
      7 C         -11.7449  -18.3807   22.3839 C.ar    1  UNL1       -0.0261
      8 C         -12.1359  -18.5189   23.8255 C.ar    1  UNL1       -0.0046
      9 C         -11.1223  -18.9627   24.8382 C.ar    1  UNL1       -0.0003
     10 C          -9.7178  -19.2682   24.4094 C.ar    1  UNL1        0.0017
     11 C          -9.3268  -19.1300   22.9678 C.ar    1  UNL1        0.0214
     12 C         -10.0900  -19.7162   19.5831 C.3     1  UNL1        0.0050
     13 C          -9.9495  -18.5481   20.5135 C.3     1  UNL1        0.0261
     14 C         -12.7586  -17.9370   21.3711 C.3     1  UNL1        0.0264
     15 C         -12.8845  -16.4834   21.0232 C.3     1  UNL1        0.0106
     16 C         -12.3283  -15.9713   19.7277 C.3     1  UNL1        0.0421
     17 C         -10.9744  -15.3264   19.6954 C.2     1  UNL1        0.0503
     18 O         -10.0864  -15.3859   20.9029 O.co2   1  UNL1       -0.5492
     19 O         -10.5086  -14.6219   18.4558 O.co2   1  UNL1       -0.5492
     20 C          -4.2801  -18.5581   21.5242 C.ar    1  UNL1        0.0265
     21 C          -3.4172  -17.9690   22.6005 C.ar    1  UNL1        0.0052
     22 C          -2.0948  -17.3545   22.2493 C.ar    1  UNL1        0.0377
     23 C          -1.6352  -17.3289   20.8216 C.ar    1  UNL1        0.1479
     24 C          -2.4980  -17.9180   19.7453 C.ar    1  UNL1        0.1023
     25 C          -3.8204  -18.5326   20.0966 C.ar    1  UNL1        0.0154
     26 C          -2.0384  -17.8925   18.3176 C.1     1  UNL1        0.1035
     27 N          -1.5788  -17.8670   16.8901 N.1     1  UNL1       -0.1907
     28 O          -0.3128  -16.7143   20.4703 O.3     1  UNL1       -0.4785
     29 C           0.9037  -17.5809   20.3315 C.3     1  UNL1        0.1662
     30 C           2.2441  -17.0672   20.7671 C.3     1  UNL1        0.0472
     31 C           0.7800  -18.9610   19.7572 C.3     1  UNL1        0.0472
@<TRIPOS>UNITY_ATOM_ATTR
18 1
charge -1
@<TRIPOS>BOND
     1    12    13    1
     2    13     6    1
     3     6     7   ar
     4     7    14    1
     5    14    15    1
     6    15    16    1
     7    16    17    1
     8    17    18   ar
     9    17    19   ar
    10     7     8   ar
    11     8     9   ar
    12     9    10   ar
    13    10    11   ar
    14    11     1    1
    15     1     2   ar
    16     2     3   ar
    17     3     4   ar
    18     4    20    1
    19    20    21   ar
    20    21    22   ar
    21    22    23   ar
    22    23    28    1
    23    28    29    1
    24    29    30    1
    25    29    31    1
    26    23    24   ar
    27    24    26    1
    28    26    27    3
    29    24    25   ar
    30     4     5   ar
    31    11     6   ar
    32     5     1   ar
    33    25    20   ar
@<TRIPOS>MOLECULE
*****
 31 33 0 0 0
SMALL
GASTEIGER

@<TRIPOS>ATOM
      1 C           8.1372   -5.0141   23.0868 C.ar    1  UNL1        0.1334
      2 N           9.2225   -4.8626   22.0625 N.ar    1  UNL1       -0.1408
      3 N           8.6653   -4.0831   20.9085 N.ar    1  UNL1       -0.1408
      4 C           7.2355   -3.7528   21.2195 C.ar    1  UNL1        0.1337
      5 S           6.9091   -4.3282   22.5657 S.2     1  UNL1       -0.0455
      6 C           8.6331   -4.9624   25.6366 C.ar    1  UNL1       -0.0241
      7 C           8.7545   -5.6748   26.9510 C.ar    1  UNL1       -0.0261
      8 C           8.5012   -7.1511   27.0302 C.ar    1  UNL1       -0.0046
      9 C           8.1266   -7.9151   25.7949 C.ar    1  UNL1       -0.0003
     10 C           8.0053   -7.2028   24.4805 C.ar    1  UNL1        0.0017
     11 C           8.2585   -5.7265   24.4013 C.ar    1  UNL1        0.0214
     12 C           7.7712   -2.5186   25.8222 C.3     1  UNL1        0.0050
     13 C           8.8864   -3.4861   25.5574 C.3     1  UNL1        0.0261
     14 C           9.1291   -4.9108   28.1863 C.3     1  UNL1        0.0264
     15 C           8.0588   -4.3795   29.0931 C.3     1  UNL1        0.0106
     16 C           7.1399   -5.3279   29.8047 C.3     1  UNL1        0.0421
     17 C           6.9075   -5.1824   31.2794 C.2     1  UNL1        0.0503
     18 O           6.7297   -6.4018   32.1346 O.co2   1  UNL1       -0.5492
     19 O           6.8528   -3.8174   31.8989 O.co2   1  UNL1       -0.5492
     20 C           6.2969   -2.9824   20.3389 C.ar    1  UNL1        0.0265
     21 C           4.8149   -3.1661   20.4802 C.ar    1  UNL1        0.0052
     22 C           3.8763   -2.3957   19.5996 C.ar    1  UNL1        0.0377
     23 C           4.4197   -1.4416   18.5776 C.ar    1  UNL1        0.1479
     24 C           5.9017   -1.2579   18.4363 C.ar    1  UNL1        0.1023
     25 C           6.8403   -2.0283   19.3169 C.ar    1  UNL1        0.0154
     26 C           6.4451   -0.3038   17.4143 C.1     1  UNL1        0.1035
     27 N           6.9885    0.6503   16.3924 N.1     1  UNL1       -0.1907
     28 O           3.4812   -0.6712   17.6970 O.3     1  UNL1       -0.4785
     29 C           2.7940    0.5538   18.2236 C.3     1  UNL1        0.1662
     30 C           3.5851    1.7989   18.4960 C.3     1  UNL1        0.0472
     31 C           1.3159    0.5339   18.4778 C.3     1  UNL1        0.0472
@<TRIPOS>UNITY_ATOM_ATTR
18 1
charge -1
@<TRIPOS>BOND
     1    12    13    1
     2    13     6    1
     3     6     7   ar
     4     7    14    1
     5    14    15    1
     6    15    16    1
     7    16    17    1
     8    17    18   ar
     9    17    19   ar
    10     7     8   ar
    11     8     9   ar
    12     9    10   ar
    13    10    11   ar
    14    11     1    1
    15     1     2   ar
    16     2     3   ar
    17     3     4   ar
    18     4    20    1
    19    20    21   ar
    20    21    22   ar
    21    22    23   ar
    22    23    28    1
    23    28    29    1
    24    29    30    1
    25    29    31    1
    26    23    24   ar
    27    24    26    1
    28    26    27    3
    29    24    25   ar
    30     4     5   ar
    31    11     6   ar
    32     5     1   ar
    33    25    20   ar
@<TRIPOS>MOLECULE
*****
 31 33 0 0 0
SMALL
GASTEIGER

@<TRIPOS>ATOM
      1 C           5.9471   -3.8475   22.4689 C.ar    1  UNL1        0.1334
      2 N           7.1171   -4.7566   22.7025 N.ar    1  UNL1       -0.1408
      3 N           7.5154   -4.6385   24.1438 N.ar    1  UNL1       -0.1408
      4 C           6.5915   -3.6563   24.8011 C.ar    1  UNL1        0.1337
      5 S           5.6223   -3.1675   23.7659 S.2     1  UNL1       -0.0455
      6 C           5.5897   -2.5017   20.2755 C.ar    1  UNL1       -0.0241
      7 C           4.8707   -2.3068   18.9736 C.ar    1  UNL1       -0.0261
      8 C           3.7900   -3.2627   18.5632 C.ar    1  UNL1       -0.0046
      9 C           3.4284   -4.4135   19.4546 C.ar    1  UNL1       -0.0003
     10 C           4.1474   -4.6084   20.7565 C.ar    1  UNL1        0.0017
     11 C           5.2280   -3.6525   21.1670 C.ar    1  UNL1        0.0214
     12 C           6.3138   -0.2603   21.3718 C.3     1  UNL1        0.0050
     13 C           6.6703   -1.5457   20.6859 C.3     1  UNL1        0.0261
     14 C           5.2323   -1.1559   18.0820 C.3     1  UNL1        0.0264
     15 C           4.1644   -0.2255   17.5880 C.3     1  UNL1        0.0106
     16 C           3.3608    0.5803   18.5653 C.3     1  UNL1        0.0421
     17 C           1.9677    0.1542   18.9223 C.2     1  UNL1        0.0503
     18 O           1.7457   -0.8304   20.0320 O.co2   1  UNL1       -0.5492
     19 O           0.7965    0.7126   18.1697 O.co2   1  UNL1       -0.5492
     20 C           6.6302   -3.2368   26.2407 C.ar    1  UNL1        0.0265
     21 C           6.6018   -1.7803   26.5984 C.ar    1  UNL1        0.0052
     22 C           6.6405   -1.3608   28.0380 C.ar    1  UNL1        0.0377
     23 C           6.7074   -2.3977   29.1199 C.ar    1  UNL1        0.1479
     24 C           6.7358   -3.8541   28.7621 C.ar    1  UNL1        0.1023
     25 C           6.6971   -4.2737   27.3226 C.ar    1  UNL1        0.0154
     26 C           6.8027   -4.8910   29.8440 C.1     1  UNL1        0.1035
     27 N           6.8697   -5.9278   30.9258 N.1     1  UNL1       -0.1907
     28 O           6.7461   -1.9781   30.5595 O.3     1  UNL1       -0.4785
     29 C           5.4711   -1.8613   31.3411 C.3     1  UNL1        0.1662
     30 C           4.4016   -0.9094   30.8936 C.3     1  UNL1        0.0472
     31 C           5.2656   -2.6963   32.5701 C.3     1  UNL1        0.0472
@<TRIPOS>UNITY_ATOM_ATTR
18 1
charge -1
@<TRIPOS>BOND
     1    12    13    1
     2    13     6    1
     3     6     7   ar
     4     7    14    1
     5    14    15    1
     6    15    16    1
     7    16    17    1
     8    17    18   ar
     9    17    19   ar
    10     7     8   ar
    11     8     9   ar
    12     9    10   ar
    13    10    11   ar
    14    11     1    1
    15     1     2   ar
    16     2     3   ar
    17     3     4   ar
    18     4    20    1
    19    20    21   ar
    20    21    22   ar
    21    22    23   ar
    22    23    28    1
    23    28    29    1
    24    29    30    1
    25    29    31    1
    26    23    24   ar
    27    24    26    1
    28    26    27    3
    29    24    25   ar
    30     4     5   ar
    31    11     6   ar
    32     5     1   ar
    33    25    20   ar
@<TRIPOS>MOLECULE
*****
 31 33 0 0 0
SMALL
GASTEIGER

@<TRIPOS>ATOM
      1 C           7.2729   -4.0307   23.4946 C.ar    1  UNL1        0.1334
      2 N           8.0640   -2.9859   22.7649 N.ar    1  UNL1       -0.1408
      3 N           7.0971   -2.0733   22.0704 N.ar    1  UNL1       -0.1408
      4 C           5.7084   -2.5541   22.3709 C.ar    1  UNL1        0.1337
      5 S           5.8170   -3.7638   23.2511 S.2     1  UNL1       -0.0455
      6 C           8.1177   -4.9314   25.7804 C.ar    1  UNL1       -0.0241
      7 C           8.6832   -6.0472   26.6082 C.ar    1  UNL1       -0.0261
      8 C           8.9692   -7.3780   25.9781 C.ar    1  UNL1       -0.0046
      9 C           8.6898   -7.5931   24.5201 C.ar    1  UNL1       -0.0003
     10 C           8.1244   -6.4773   23.6923 C.ar    1  UNL1        0.0017
     11 C           7.8384   -5.1465   24.3225 C.ar    1  UNL1        0.0214
     12 C           6.4677   -3.3099   26.9628 C.3     1  UNL1        0.0050
     13 C           7.8317   -3.6006   26.4106 C.3     1  UNL1        0.0261
     14 C           8.9626   -5.8322   28.0662 C.3     1  UNL1        0.0264
     15 C           8.0577   -6.4342   29.1000 C.3     1  UNL1        0.0106
     16 C           6.9548   -5.6138   29.7006 C.3     1  UNL1        0.0421
     17 C           6.9195   -5.3734   31.1807 C.2     1  UNL1        0.0503
     18 O           6.7850   -6.5307   32.1255 O.co2   1  UNL1       -0.5492
     19 O           7.0186   -3.9758   31.7161 O.co2   1  UNL1       -0.5492
     20 C           4.4346   -1.9341   21.8778 C.ar    1  UNL1        0.0265
     21 C           3.8992   -2.2962   20.5242 C.ar    1  UNL1        0.0052
     22 C           2.6255   -1.6761   20.0311 C.ar    1  UNL1        0.0377
     23 C           1.8872   -0.6940   20.8916 C.ar    1  UNL1        0.1479
     24 C           2.4227   -0.3319   22.2452 C.ar    1  UNL1        0.1023
     25 C           3.6964   -0.9520   22.7383 C.ar    1  UNL1        0.0154
     26 C           1.6844    0.6502   23.1057 C.1     1  UNL1        0.1035
     27 N           0.9461    1.6323   23.9661 N.1     1  UNL1       -0.1907
     28 O           0.6135   -0.0740   20.3985 O.3     1  UNL1       -0.4785
     29 C           0.6508    1.2345   19.6661 C.3     1  UNL1        0.1662
     30 C           1.3941    1.3465   18.3679 C.3     1  UNL1        0.0472
     31 C          -0.0550    2.4312   20.2317 C.3     1  UNL1        0.0472
@<TRIPOS>UNITY_ATOM_ATTR
18 1
charge -1
@<TRIPOS>BOND
     1    12    13    1
     2    13     6    1
     3     6     7   ar
     4     7    14    1
     5    14    15    1
     6    15    16    1
     7    16    17    1
     8    17    18   ar
     9    17    19   ar
    10     7     8   ar
    11     8     9   ar
    12     9    10   ar
    13    10    11   ar
    14    11     1    1
    15     1     2   ar
    16     2     3   ar
    17     3     4   ar
    18     4    20    1
    19    20    21   ar
    20    21    22   ar
    21    22    23   ar
    22    23    28    1
    23    28    29    1
    24    29    30    1
    25    29    31    1
    26    23    24   ar
    27    24    26    1
    28    26    27    3
    29    24    25   ar
    30     4     5   ar
    31    11     6   ar
    32     5     1   ar
    33    25    20   ar
