@<TRIPOS>MOLECULE
*****
 32 37 0 0 0
SMALL
GASTEIGER

@<TRIPOS>ATOM
      1 C           5.4801   -1.5101   23.5345 C.2     1  UNL1        0.3694
      2 N           5.2900   -1.0428   22.1219 N.2     1  UNL1        0.0364
      3 C           5.7348   -1.9071   20.9797 C.cat   1  UNL1        0.5034
      4 N           6.3700   -3.2390   21.2500 N.2     1  UNL1        0.0427
      5 C           6.5601   -3.7063   22.6626 C.2     1  UNL1        0.4234
      6 N           7.1508   -4.9613   23.2337 N.2     1  UNL1        0.0122
      7 C           7.0709   -4.8724   24.7289 C.2     1  UNL1        0.3720
      8 N           6.4309   -3.5625   25.0819 N.2     1  UNL1       -0.0383
      9 C           6.1152   -2.8418   23.8049 C.3     1  UNL1        0.4276
     10 C           7.5474   -5.9111   25.7005 C.2     1  UNL1        0.0753
     11 C           8.2275   -7.1507   25.1998 C.2     1  UNL1        0.0041
     12 C           8.7040   -8.1894   26.1715 C.2     1  UNL1        0.0012
     13 C           8.5003   -7.9884   27.6440 C.2     1  UNL1        0.0153
     14 C           7.8201   -6.7489   28.1447 C.2     1  UNL1        0.0671
     15 N           7.4821   -6.2788   29.5285 N.2     1  UNL1       -0.2478
     16 C           6.7967   -4.9497   29.4120 C.2     1  UNL1        0.0946
     17 C           6.7111   -4.5982   27.9563 C.2     1  UNL1        0.0048
     18 C           7.3437   -5.7102   27.1730 C.3     1  UNL1        0.0934
     19 C           7.3322    0.5682   24.6528 C.3     1  UNL1        0.0534
     20 C           5.9613    0.3936   25.2360 C.3     1  UNL1        0.1896
     21 C           5.5164    1.2580   26.3782 C.3     1  UNL1        0.1886
     22 O           4.1454    1.0834   26.9614 O.3     1  UNL1       -0.3451
     23 C           3.2194    0.0442   26.4022 C.3     1  UNL1        0.1929
     24 C           3.6643   -0.8203   25.2599 C.3     1  UNL1        0.2343
     25 N           5.0352   -0.6456   24.6768 N.pl3   1  UNL1       -0.1888
     26 N           5.5447   -1.4398   19.5670 N.pl3   1  UNL1       -0.1760
     27 C           6.6647   -0.7471   18.8490 C.3     1  UNL1        0.2011
     28 C           6.4746   -0.2798   17.4364 C.3     1  UNL1        0.1827
     29 O           5.1643   -0.5052   16.7419 O.3     1  UNL1       -0.3469
     30 C           4.0443   -1.1979   17.4599 C.3     1  UNL1        0.1793
     31 C           4.2344   -1.6652   18.8725 C.3     1  UNL1        0.1651
     32 C           3.1144   -2.3580   19.5906 C.3     1  UNL1        0.0432
@<TRIPOS>BOND
     1    20    19    1
     2    20    21    1
     3    21    22    1
     4    22    23    1
     5    23    24    1
     6    24    25    1
     7    25     1    1
     8     1     2    2
     9     2     3    1
    10     3    26    1
    11    26    27    1
    12    27    28    1
    13    28    29    1
    14    29    30    1
    15    30    31    1
    16    31    32    1
    17     3     4    2
    18     4     5    1
    19     5     6    2
    20     6     7    1
    21     7    10    1
    22    10    11    2
    23    11    12    1
    24    12    13    2
    25    13    14    1
    26    14    15    2
    27    15    16    1
    28    16    17    2
    29    17    18    1
    30     7     8    2
    31     8     9    1
    32    25    20    1
    33     9     1    1
    34    31    26    1
    35     9     5    1
    36    18    10    1
    37    18    14    1
@<TRIPOS>MOLECULE
*****
 32 37 0 0 0
SMALL
GASTEIGER

@<TRIPOS>ATOM
      1 C           0.1903    2.9445   23.0704 C.2     1  UNL1        0.3694
      2 N          -1.1005    3.6477   22.7714 N.2     1  UNL1        0.0364
      3 C          -1.8841    3.2874   21.5442 C.cat   1  UNL1        0.5034
      4 N          -1.3770    2.2238   20.6159 N.2     1  UNL1        0.0427
      5 C          -0.0862    1.5206   20.9149 C.2     1  UNL1        0.4234
      6 N           0.6589    0.4392   20.1900 N.2     1  UNL1        0.0122
      7 C           1.9030    0.1312   20.9693 C.2     1  UNL1        0.3720
      8 N           1.9268    1.0222   22.1757 N.2     1  UNL1       -0.0383
      9 C           0.6975    1.8810   22.1421 C.3     1  UNL1        0.4276
     10 C           2.9410   -0.8889   20.6060 C.2     1  UNL1        0.0753
     11 C           3.4574   -1.8372   21.6472 C.2     1  UNL1        0.0041
     12 C           4.4955   -2.8572   21.2837 C.2     1  UNL1        0.0012
     13 C           5.0172   -2.9289   19.8792 C.2     1  UNL1        0.0153
     14 C           4.5008   -1.9806   18.8380 C.2     1  UNL1        0.0671
     15 N           4.8245   -1.8144   17.3828 N.2     1  UNL1       -0.2478
     16 C           3.9865   -0.6917   16.8469 C.2     1  UNL1        0.0946
     17 C           3.1449   -0.1640   17.9708 C.2     1  UNL1        0.0048
     18 C           3.4627   -0.9606   19.2015 C.3     1  UNL1        0.0934
     19 C          -0.1917    1.3861   25.6052 C.3     1  UNL1        0.0534
     20 C           0.7829    2.5256   25.5651 C.3     1  UNL1        0.1896
     21 C           1.5665    2.8859   26.7923 C.3     1  UNL1        0.1886
     22 O           2.5412    4.0254   26.7521 O.3     1  UNL1       -0.3451
     23 C           2.7322    4.8046   25.4847 C.3     1  UNL1        0.1929
     24 C           1.9486    4.4443   24.2574 C.3     1  UNL1        0.2343
     25 N           0.9739    3.3048   24.2976 N.pl3   1  UNL1       -0.1888
     26 N          -3.1749    3.9906   21.2453 N.pl3   1  UNL1       -0.1760
     27 C          -4.4649    3.4551   21.7923 C.3     1  UNL1        0.2011
     28 C          -5.7557    4.1583   21.4933 C.3     1  UNL1        0.1827
     29 O          -5.7565    5.3970   20.6474 O.3     1  UNL1       -0.3469
     30 C          -4.4665    5.9325   20.1004 C.3     1  UNL1        0.1793
     31 C          -3.1757    5.2293   20.3994 C.3     1  UNL1        0.1651
     32 C          -1.8857    5.7648   19.8524 C.3     1  UNL1        0.0432
@<TRIPOS>BOND
     1    20    19    1
     2    20    21    1
     3    21    22    1
     4    22    23    1
     5    23    24    1
     6    24    25    1
     7    25     1    1
     8     1     2    2
     9     2     3    1
    10     3    26    1
    11    26    27    1
    12    27    28    1
    13    28    29    1
    14    29    30    1
    15    30    31    1
    16    31    32    1
    17     3     4    2
    18     4     5    1
    19     5     6    2
    20     6     7    1
    21     7    10    1
    22    10    11    2
    23    11    12    1
    24    12    13    2
    25    13    14    1
    26    14    15    2
    27    15    16    1
    28    16    17    2
    29    17    18    1
    30     7     8    2
    31     8     9    1
    32    25    20    1
    33     9     1    1
    34    31    26    1
    35     9     5    1
    36    18    10    1
    37    18    14    1
@<TRIPOS>MOLECULE
*****
 32 37 0 0 0
SMALL
GASTEIGER

@<TRIPOS>ATOM
      1 C           1.8032    3.0802   20.6200 C.2     1  UNL1        0.3694
      2 N           0.4320    3.6621   20.7970 N.2     1  UNL1        0.0364
      3 C          -0.7655    2.7601   20.8411 C.cat   1  UNL1        0.5034
      4 N          -0.5921    1.2761   20.7083 N.2     1  UNL1        0.0427
      5 C           0.7790    0.6942   20.5313 C.2     1  UNL1        0.4234
      6 N           1.2571   -0.7190   20.3748 N.2     1  UNL1        0.0122
      7 C           2.7501   -0.6903   20.2339 C.2     1  UNL1        0.3720
      8 N           3.1949    0.7406   20.3034 N.2     1  UNL1       -0.0383
      9 C           1.9767    1.5962   20.4871 C.3     1  UNL1        0.4276
     10 C           3.6420   -1.8831   20.0551 C.2     1  UNL1        0.0753
     11 C           3.8979   -2.4289   18.6816 C.2     1  UNL1        0.0041
     12 C           4.7897   -3.6217   18.5028 C.2     1  UNL1        0.0012
     13 C           5.4256   -4.2686   19.6974 C.2     1  UNL1        0.0153
     14 C           5.1697   -3.7228   21.0709 C.2     1  UNL1        0.0671
     15 N           5.6539   -4.1468   22.4258 N.2     1  UNL1       -0.2478
     16 C           5.0613   -3.2161   23.4420 C.2     1  UNL1        0.0946
     17 C           4.2109   -2.2169   22.7152 C.2     1  UNL1        0.0048
     18 C           4.2778   -2.5300   21.2497 C.3     1  UNL1        0.0934
     19 C           2.7235    4.2245   18.0040 C.3     1  UNL1        0.0534
     20 C           3.4610    4.5545   19.2677 C.3     1  UNL1        0.1896
     21 C           4.6586    5.4565   19.2235 C.3     1  UNL1        0.1886
     22 O           5.3961    5.7865   20.4874 O.3     1  UNL1       -0.3451
     23 C           4.9359    5.2143   21.7954 C.3     1  UNL1        0.1929
     24 C           3.7383    4.3122   21.8396 C.3     1  UNL1        0.2343
     25 N           3.0008    3.9823   20.5758 N.pl3   1  UNL1       -0.1888
     26 N          -2.1367    3.3421   21.0181 N.pl3   1  UNL1       -0.1760
     27 C          -3.0235    3.5486   19.8260 C.3     1  UNL1        0.2011
     28 C          -4.3946    4.1305   20.0030 C.3     1  UNL1        0.1827
     29 O          -4.8790    4.5060   21.3721 O.3     1  UNL1       -0.3469
     30 C          -3.9923    4.2995   22.5642 C.3     1  UNL1        0.1793
     31 C          -2.6212    3.7175   22.3872 C.3     1  UNL1        0.1651
     32 C          -1.7344    3.5110   23.5793 C.3     1  UNL1        0.0432
@<TRIPOS>BOND
     1    20    19    1
     2    20    21    1
     3    21    22    1
     4    22    23    1
     5    23    24    1
     6    24    25    1
     7    25     1    1
     8     1     2    2
     9     2     3    1
    10     3    26    1
    11    26    27    1
    12    27    28    1
    13    28    29    1
    14    29    30    1
    15    30    31    1
    16    31    32    1
    17     3     4    2
    18     4     5    1
    19     5     6    2
    20     6     7    1
    21     7    10    1
    22    10    11    2
    23    11    12    1
    24    12    13    2
    25    13    14    1
    26    14    15    2
    27    15    16    1
    28    16    17    2
    29    17    18    1
    30     7     8    2
    31     8     9    1
    32    25    20    1
    33     9     1    1
    34    31    26    1
    35     9     5    1
    36    18    10    1
    37    18    14    1
@<TRIPOS>MOLECULE
*****
 32 37 0 0 0
SMALL
GASTEIGER

@<TRIPOS>ATOM
      1 C           1.5799    3.2799   20.4391 C.2     1  UNL1        0.3694
      2 N           0.2188    3.8008   20.7942 N.2     1  UNL1        0.0364
      3 C          -0.9457    2.8593   20.8798 C.cat   1  UNL1        0.5034
      4 N          -0.7492    1.3967   20.6103 N.2     1  UNL1        0.0427
      5 C           0.6119    0.8759   20.2552 C.2     1  UNL1        0.4234
      6 N           1.1073   -0.5041   19.9387 N.2     1  UNL1        0.0122
      7 C           2.5781   -0.4154   19.6575 C.2     1  UNL1        0.3720
      8 N           2.9916    1.0194   19.8002 N.2     1  UNL1       -0.0383
      9 C           1.7765    1.8175   20.1696 C.3     1  UNL1        0.4276
     10 C           3.4774   -1.5605   19.2968 C.2     1  UNL1        0.0753
     11 C           3.1051   -2.9592   19.6903 C.2     1  UNL1        0.0041
     12 C           4.0046   -4.1043   19.3296 C.2     1  UNL1        0.0012
     13 C           5.2761   -3.8505   18.5756 C.2     1  UNL1        0.0153
     14 C           5.6484   -2.4518   18.1821 C.2     1  UNL1        0.0671
     15 N           6.8289   -1.8982   17.4405 N.2     1  UNL1       -0.2478
     16 C           6.6592   -0.4110   17.3429 C.2     1  UNL1        0.0946
     17 C           5.3737   -0.0455   18.0240 C.2     1  UNL1        0.0048
     18 C           4.7490   -1.3067   18.5428 C.3     1  UNL1        0.0934
     19 C           2.2365    4.6207   17.8370 C.3     1  UNL1        0.0534
     20 C           3.0728    4.8919   19.0523 C.3     1  UNL1        0.1896
     21 C           4.2372    5.8335   18.9667 C.3     1  UNL1        0.1886
     22 O           5.0735    6.1047   20.1821 O.3     1  UNL1       -0.3451
     23 C           4.7451    5.4343   21.4832 C.3     1  UNL1        0.1929
     24 C           3.5806    4.4927   21.5689 C.3     1  UNL1        0.2343
     25 N           2.7444    4.2215   20.3535 N.pl3   1  UNL1       -0.1888
     26 N          -2.3068    3.3802   21.2349 N.pl3   1  UNL1       -0.1760
     27 C          -3.3476    3.5479   20.1678 C.3     1  UNL1        0.2011
     28 C          -4.7087    4.0688   20.5229 C.3     1  UNL1        0.1827
     29 O          -5.0290    4.4219   21.9451 O.3     1  UNL1       -0.3469
     30 C          -3.9883    4.2542   23.0122 C.3     1  UNL1        0.1793
     31 C          -2.6272    3.7333   22.6571 C.3     1  UNL1        0.1651
     32 C          -1.5863    3.5655   23.7242 C.3     1  UNL1        0.0432
@<TRIPOS>BOND
     1    20    19    1
     2    20    21    1
     3    21    22    1
     4    22    23    1
     5    23    24    1
     6    24    25    1
     7    25     1    1
     8     1     2    2
     9     2     3    1
    10     3    26    1
    11    26    27    1
    12    27    28    1
    13    28    29    1
    14    29    30    1
    15    30    31    1
    16    31    32    1
    17     3     4    2
    18     4     5    1
    19     5     6    2
    20     6     7    1
    21     7    10    1
    22    10    11    2
    23    11    12    1
    24    12    13    2
    25    13    14    1
    26    14    15    2
    27    15    16    1
    28    16    17    2
    29    17    18    1
    30     7     8    2
    31     8     9    1
    32    25    20    1
    33     9     1    1
    34    31    26    1
    35     9     5    1
    36    18    10    1
    37    18    14    1
@<TRIPOS>MOLECULE
*****
 32 37 0 0 0
SMALL
GASTEIGER

@<TRIPOS>ATOM
      1 C           4.3737    0.2017   33.1391 C.2     1  UNL1        0.3694
      2 N           4.6148    0.5505   34.5779 N.2     1  UNL1        0.0364
      3 C           3.6781    1.4795   35.2915 C.cat   1  UNL1        0.5034
      4 N           2.5002    2.0598   34.5664 N.2     1  UNL1        0.0427
      5 C           2.2590    1.7110   33.1276 C.2     1  UNL1        0.4234
      6 N           1.1903    2.1252   32.1599 N.2     1  UNL1        0.0122
      7 C           1.4666    1.4521   30.8482 C.2     1  UNL1        0.3720
      8 N           2.7060    0.6219   31.0052 N.2     1  UNL1       -0.0383
      9 C           3.1958    0.7819   32.4139 C.3     1  UNL1        0.4276
     10 C           0.6473    1.5857   29.5989 C.2     1  UNL1        0.0753
     11 C          -0.1445    0.4167   29.0927 C.2     1  UNL1        0.0041
     12 C          -0.9638    0.5504   27.8433 C.2     1  UNL1        0.0012
     13 C          -0.9912    1.8530   27.1001 C.2     1  UNL1        0.0153
     14 C          -0.1994    3.0221   27.6063 C.2     1  UNL1        0.0671
     15 N          -0.0328    4.4206   27.0901 N.2     1  UNL1       -0.2478
     16 C           0.8895    5.1512   28.0205 C.2     1  UNL1        0.0946
     17 C           1.2929    4.2044   29.1117 C.2     1  UNL1        0.0048
     18 C           0.6199    2.8884   28.8557 C.3     1  UNL1        0.0934
     19 C           4.1982   -2.7563   33.6071 C.3     1  UNL1        0.0534
     20 C           5.2227   -2.2065   32.6594 C.3     1  UNL1        0.1896
     21 C           6.1594   -3.1356   31.9458 C.3     1  UNL1        0.1886
     22 O           7.1840   -2.5857   30.9981 O.3     1  UNL1       -0.3451
     23 C           7.2717   -1.1066   30.7642 C.3     1  UNL1        0.1929
     24 C           6.3349   -0.1775   31.4778 C.3     1  UNL1        0.2343
     25 N           5.3104   -0.7274   32.4254 N.pl3   1  UNL1       -0.1888
     26 N           3.9193    1.8284   36.7304 N.pl3   1  UNL1       -0.1760
     27 C           3.3179    0.9872   37.8170 C.3     1  UNL1        0.2011
     28 C           3.5590    1.3360   39.2558 C.3     1  UNL1        0.1827
     29 O           4.4016    2.5260   39.6080 O.3     1  UNL1       -0.3469
     30 C           5.0030    3.3672   38.5214 C.3     1  UNL1        0.1793
     31 C           4.7619    3.0184   37.0826 C.3     1  UNL1        0.1651
     32 C           5.3633    3.8595   35.9958 C.3     1  UNL1        0.0432
@<TRIPOS>BOND
     1    20    19    1
     2    20    21    1
     3    21    22    1
     4    22    23    1
     5    23    24    1
     6    24    25    1
     7    25     1    1
     8     1     2    2
     9     2     3    1
    10     3    26    1
    11    26    27    1
    12    27    28    1
    13    28    29    1
    14    29    30    1
    15    30    31    1
    16    31    32    1
    17     3     4    2
    18     4     5    1
    19     5     6    2
    20     6     7    1
    21     7    10    1
    22    10    11    2
    23    11    12    1
    24    12    13    2
    25    13    14    1
    26    14    15    2
    27    15    16    1
    28    16    17    2
    29    17    18    1
    30     7     8    2
    31     8     9    1
    32    25    20    1
    33     9     1    1
    34    31    26    1
    35     9     5    1
    36    18    10    1
    37    18    14    1
@<TRIPOS>MOLECULE
*****
 32 37 0 0 0
SMALL
GASTEIGER

@<TRIPOS>ATOM
      1 C           4.0853   -0.8353   27.8806 C.2     1  UNL1        0.3694
      2 N           5.0538   -1.4505   28.8467 N.2     1  UNL1        0.0364
      3 C           6.1098   -2.3938   28.3519 C.cat   1  UNL1        0.5034
      4 N           6.1974   -2.7219   26.8908 N.2     1  UNL1        0.0427
      5 C           5.2289   -2.1067   25.9246 C.2     1  UNL1        0.4234
      6 N           5.0715   -2.2406   24.4389 N.2     1  UNL1        0.0122
      7 C           3.9182   -1.3800   24.0156 C.2     1  UNL1        0.3720
      8 N           3.3627   -0.7142   25.2397 N.2     1  UNL1       -0.0383
      9 C           4.1728   -1.1634   26.4195 C.3     1  UNL1        0.4276
     10 C           3.4095   -1.2142   22.6143 C.2     1  UNL1        0.0753
     11 C           2.5506   -0.0358   22.2626 C.2     1  UNL1        0.0041
     12 C           2.0420    0.1299   20.8612 C.2     1  UNL1        0.0012
     13 C           2.3923   -0.8827   19.8115 C.2     1  UNL1        0.0153
     14 C           3.2512   -2.0610   20.1631 C.2     1  UNL1        0.0671
     15 N           3.7581   -3.2129   19.3468 N.2     1  UNL1       -0.2478
     16 C           4.5799   -4.0905   20.2436 C.2     1  UNL1        0.0946
     17 C           4.5811   -3.4811   21.6143 C.2     1  UNL1        0.0048
     18 C           3.7598   -2.2267   21.5645 C.3     1  UNL1        0.0934
     19 C           4.6648    2.1024   28.0639 C.3     1  UNL1        0.0534
     20 C           3.3190    1.5770   28.4672 C.3     1  UNL1        0.1896
     21 C           2.2630    2.5203   28.9621 C.3     1  UNL1        0.1886
     22 O           0.9171    1.9947   29.3653 O.3     1  UNL1       -0.3451
     23 C           0.6274    0.5259   29.2736 C.3     1  UNL1        0.1929
     24 C           1.6834   -0.4175   28.7787 C.3     1  UNL1        0.2343
     25 N           3.0292    0.1080   28.3755 N.pl3   1  UNL1       -0.1888
     26 N           7.0783   -3.0090   29.3181 N.pl3   1  UNL1       -0.1760
     27 C           6.7672   -4.3326   29.9516 C.3     1  UNL1        0.2011
     28 C           7.7356   -4.9479   30.9178 C.3     1  UNL1        0.1827
     29 O           9.0153   -4.2395   31.2504 O.3     1  UNL1       -0.3469
     30 C           9.3265   -2.9159   30.6169 C.3     1  UNL1        0.1793
     31 C           8.3580   -2.3007   29.6508 C.3     1  UNL1        0.1651
     32 C           8.6691   -0.9771   29.0172 C.3     1  UNL1        0.0432
@<TRIPOS>BOND
     1    20    19    1
     2    20    21    1
     3    21    22    1
     4    22    23    1
     5    23    24    1
     6    24    25    1
     7    25     1    1
     8     1     2    2
     9     2     3    1
    10     3    26    1
    11    26    27    1
    12    27    28    1
    13    28    29    1
    14    29    30    1
    15    30    31    1
    16    31    32    1
    17     3     4    2
    18     4     5    1
    19     5     6    2
    20     6     7    1
    21     7    10    1
    22    10    11    2
    23    11    12    1
    24    12    13    2
    25    13    14    1
    26    14    15    2
    27    15    16    1
    28    16    17    2
    29    17    18    1
    30     7     8    2
    31     8     9    1
    32    25    20    1
    33     9     1    1
    34    31    26    1
    35     9     5    1
    36    18    10    1
    37    18    14    1
@<TRIPOS>MOLECULE
*****
 32 37 0 0 0
SMALL
GASTEIGER

@<TRIPOS>ATOM
      1 C           4.3389   -0.5033   31.6257 C.2     1  UNL1        0.3694
      2 N           3.3647   -0.3385   30.4971 N.2     1  UNL1        0.0364
      3 C           2.2423    0.6497   30.6135 C.cat   1  UNL1        0.5034
      4 N           2.0941    1.4732   31.8585 N.2     1  UNL1        0.0427
      5 C           3.0684    1.3084   32.9871 C.2     1  UNL1        0.4234
      6 N           3.1751    1.9755   34.3263 N.2     1  UNL1        0.0122
      7 C           4.3635    1.3995   35.0376 C.2     1  UNL1        0.3720
      8 N           4.9912    0.3764   34.1380 N.2     1  UNL1       -0.0383
      9 C           4.1908    0.3201   32.8706 C.3     1  UNL1        0.4276
     10 C           4.8404    1.7798   36.4080 C.2     1  UNL1        0.0753
     11 C           6.3076    1.7729   36.7202 C.2     1  UNL1        0.0041
     12 C           6.7844    2.1532   38.0906 C.2     1  UNL1        0.0012
     13 C           5.7943    2.5403   39.1488 C.2     1  UNL1        0.0153
     14 C           4.3272    2.5472   38.8365 C.2     1  UNL1        0.0671
     15 N           3.1253    2.8811   39.6696 N.2     1  UNL1       -0.2478
     16 C           1.9055    2.7072   38.8140 C.2     1  UNL1        0.0946
     17 C           2.3535    2.2658   37.4522 C.2     1  UNL1        0.0048
     18 C           3.8503    2.1669   37.4661 C.3     1  UNL1        0.0934
     19 C           4.3474   -2.9713   33.3312 C.3     1  UNL1        0.0534
     20 C           5.4656   -2.7257   32.3621 C.3     1  UNL1        0.1896
     21 C           6.5879   -3.7139   32.2457 C.3     1  UNL1        0.1886
     22 O           7.7062   -3.4681   31.2765 O.3     1  UNL1       -0.3451
     23 C           7.7019   -2.2341   30.4237 C.3     1  UNL1        0.1929
     24 C           6.5795   -1.2458   30.5401 C.3     1  UNL1        0.2343
     25 N           5.4614   -1.4916   31.5093 N.pl3   1  UNL1       -0.1888
     26 N           1.2680    0.8145   29.4849 N.pl3   1  UNL1       -0.1760
     27 C           0.0440   -0.0501   29.4184 C.3     1  UNL1        0.2011
     28 C          -0.9302    0.1147   28.2899 C.3     1  UNL1        0.1827
     29 O          -0.6805    1.1440   27.2278 O.3     1  UNL1       -0.3469
     30 C           0.5435    2.0086   27.2942 C.3     1  UNL1        0.1793
     31 C           1.5177    1.8438   28.4228 C.3     1  UNL1        0.1651
     32 C           2.7418    2.7083   28.4893 C.3     1  UNL1        0.0432
@<TRIPOS>BOND
     1    20    19    1
     2    20    21    1
     3    21    22    1
     4    22    23    1
     5    23    24    1
     6    24    25    1
     7    25     1    1
     8     1     2    2
     9     2     3    1
    10     3    26    1
    11    26    27    1
    12    27    28    1
    13    28    29    1
    14    29    30    1
    15    30    31    1
    16    31    32    1
    17     3     4    2
    18     4     5    1
    19     5     6    2
    20     6     7    1
    21     7    10    1
    22    10    11    2
    23    11    12    1
    24    12    13    2
    25    13    14    1
    26    14    15    2
    27    15    16    1
    28    16    17    2
    29    17    18    1
    30     7     8    2
    31     8     9    1
    32    25    20    1
    33     9     1    1
    34    31    26    1
    35     9     5    1
    36    18    10    1
    37    18    14    1
@<TRIPOS>MOLECULE
*****
 32 37 0 0 0
SMALL
GASTEIGER

@<TRIPOS>ATOM
      1 C           0.2203    2.0954   26.6776 C.2     1  UNL1        0.3694
      2 N          -0.8129    3.0333   27.2276 N.2     1  UNL1        0.0364
      3 C          -1.7478    3.7481   26.2976 C.cat   1  UNL1        0.5034
      4 N          -1.6495    3.5250   24.8175 N.2     1  UNL1        0.0427
      5 C          -0.6162    2.5871   24.2675 C.2     1  UNL1        0.4234
      6 N          -0.2838    2.1704   22.8654 N.2     1  UNL1        0.0122
      7 C           0.8566    1.1981   22.9289 C.2     1  UNL1        0.3720
      8 N           1.2290    1.0138   24.3702 N.2     1  UNL1       -0.0383
      9 C           0.3187    1.8722   25.1975 C.3     1  UNL1        0.4276
     10 C           1.5100    0.5277   21.7568 C.2     1  UNL1        0.0753
     11 C           1.0741    0.8642   20.3616 C.2     1  UNL1        0.0041
     12 C           1.7276    0.1938   19.1895 C.2     1  UNL1        0.0012
     13 C           2.8168   -0.8130   19.4127 C.2     1  UNL1        0.0153
     14 C           3.2527   -1.1495   20.8080 C.2     1  UNL1        0.0671
     15 N           4.2921   -2.0942   21.3346 N.2     1  UNL1       -0.2478
     16 C           4.2810   -2.0077   22.8320 C.2     1  UNL1        0.0946
     17 C           3.2348   -1.0095   23.2310 C.2     1  UNL1        0.0048
     18 C           2.5993   -0.4791   21.9800 C.3     1  UNL1        0.0934
     19 C          -0.8159   -0.0763   28.4692 C.3     1  UNL1        0.0534
     20 C           0.6372    0.2946   28.5035 C.3     1  UNL1        0.1896
     21 C           1.5720   -0.4202   29.4335 C.3     1  UNL1        0.1886
     22 O           3.0251   -0.0492   29.4677 O.3     1  UNL1       -0.3451
     23 C           3.5431    1.0367   28.5719 C.3     1  UNL1        0.1929
     24 C           2.6083    1.7515   27.6418 C.3     1  UNL1        0.2343
     25 N           1.1553    1.3805   27.6076 N.pl3   1  UNL1       -0.1888
     26 N          -2.7812    4.6861   26.8477 N.pl3   1  UNL1       -0.1760
     27 C          -4.2393    4.3693   26.6941 C.3     1  UNL1        0.2011
     28 C          -5.2726    5.3072   27.2441 C.3     1  UNL1        0.1827
     29 O          -4.8478    6.5620   27.9477 O.3     1  UNL1       -0.3469
     30 C          -3.3897    6.8789   28.1013 C.3     1  UNL1        0.1793
     31 C          -2.3564    5.9409   27.5512 C.3     1  UNL1        0.1651
     32 C          -0.8982    6.2577   27.7047 C.3     1  UNL1        0.0432
@<TRIPOS>BOND
     1    20    19    1
     2    20    21    1
     3    21    22    1
     4    22    23    1
     5    23    24    1
     6    24    25    1
     7    25     1    1
     8     1     2    2
     9     2     3    1
    10     3    26    1
    11    26    27    1
    12    27    28    1
    13    28    29    1
    14    29    30    1
    15    30    31    1
    16    31    32    1
    17     3     4    2
    18     4     5    1
    19     5     6    2
    20     6     7    1
    21     7    10    1
    22    10    11    2
    23    11    12    1
    24    12    13    2
    25    13    14    1
    26    14    15    2
    27    15    16    1
    28    16    17    2
    29    17    18    1
    30     7     8    2
    31     8     9    1
    32    25    20    1
    33     9     1    1
    34    31    26    1
    35     9     5    1
    36    18    10    1
    37    18    14    1
@<TRIPOS>MOLECULE
*****
 32 37 0 0 0
SMALL
GASTEIGER

@<TRIPOS>ATOM
      1 C           1.3283    3.3719   21.4559 C.2     1  UNL1        0.3694
      2 N          -0.0678    3.8984   21.6093 N.2     1  UNL1        0.0364
      3 C          -1.2318    3.0933   21.1127 C.cat   1  UNL1        0.5034
      4 N          -0.9998    1.7615   20.4626 N.2     1  UNL1        0.0427
      5 C           0.3963    1.2350   20.3092 C.2     1  UNL1        0.4234
      6 N           0.9305   -0.0343   19.7145 N.2     1  UNL1        0.0122
      7 C           2.4248   -0.0135   19.8436 C.2     1  UNL1        0.3720
      8 N           2.8141    1.2685   20.5181 N.2     1  UNL1       -0.0383
      9 C           1.5603    2.0401   20.8058 C.3     1  UNL1        0.4276
     10 C           3.3649   -1.0864   19.3798 C.2     1  UNL1        0.0753
     11 C           3.1393   -2.5109   19.7921 C.2     1  UNL1        0.0041
     12 C           4.0794   -3.5837   19.3281 C.2     1  UNL1        0.0012
     13 C           5.2450   -3.2322   18.4519 C.2     1  UNL1        0.0153
     14 C           5.4706   -1.8077   18.0396 C.2     1  UNL1        0.0671
     15 N           6.5250   -1.1640   17.1887 N.2     1  UNL1       -0.2478
     16 C           6.2365    0.3067   17.1268 C.2     1  UNL1        0.0946
     17 C           5.0039    0.5720   17.9394 C.2     1  UNL1        0.0048
     18 C           4.5305   -0.7349   18.5036 C.3     1  UNL1        0.0934
     19 C           2.2574    3.0730   24.2927 C.3     1  UNL1        0.0534
     20 C           2.9569    4.0276   23.3711 C.3     1  UNL1        0.1896
     21 C           4.1209    4.8327   23.8677 C.3     1  UNL1        0.1886
     22 O           4.8205    5.7873   22.9460 O.3     1  UNL1       -0.3451
     23 C           4.3559    5.9367   21.5277 C.3     1  UNL1        0.1929
     24 C           3.1918    5.1316   21.0309 C.3     1  UNL1        0.2343
     25 N           2.4923    4.1770   21.9526 N.pl3   1  UNL1       -0.1888
     26 N          -2.6280    3.6200   21.2661 N.pl3   1  UNL1       -0.1760
     27 C          -3.2914    3.6057   22.6114 C.3     1  UNL1        0.2011
     28 C          -4.6875    4.1323   22.7648 C.3     1  UNL1        0.1827
     29 O          -5.4203    4.6731   21.5729 O.3     1  UNL1       -0.3469
     30 C          -4.7569    4.6874   20.2276 C.3     1  UNL1        0.1793
     31 C          -3.3608    4.1608   20.0742 C.3     1  UNL1        0.1651
     32 C          -2.6974    4.1750   18.7290 C.3     1  UNL1        0.0432
@<TRIPOS>BOND
     1    20    19    1
     2    20    21    1
     3    21    22    1
     4    22    23    1
     5    23    24    1
     6    24    25    1
     7    25     1    1
     8     1     2    2
     9     2     3    1
    10     3    26    1
    11    26    27    1
    12    27    28    1
    13    28    29    1
    14    29    30    1
    15    30    31    1
    16    31    32    1
    17     3     4    2
    18     4     5    1
    19     5     6    2
    20     6     7    1
    21     7    10    1
    22    10    11    2
    23    11    12    1
    24    12    13    2
    25    13    14    1
    26    14    15    2
    27    15    16    1
    28    16    17    2
    29    17    18    1
    30     7     8    2
    31     8     9    1
    32    25    20    1
    33     9     1    1
    34    31    26    1
    35     9     5    1
    36    18    10    1
    37    18    14    1
