@<TRIPOS>MOLECULE
*****
 25 27 0 0 0
SMALL
GASTEIGER

@<TRIPOS>ATOM
      1 C          -8.4624  -18.0348   22.0187 C.3     1  UNL1        0.1612
      2 C          -9.8715  -18.0668   22.5322 C.ar    1  UNL1        0.0171
      3 C         -10.1488  -18.5244   23.9336 C.ar    1  UNL1       -0.0002
      4 C         -11.5577  -18.5564   24.4471 C.ar    1  UNL1        0.0112
      5 C         -12.6895  -18.1307   23.5594 C.ar    1  UNL1        0.0585
      6 CL        -14.0984  -18.1627   24.0730 Cl      1  UNL1       -0.0822
      7 C         -12.4122  -17.6731   22.1581 C.ar    1  UNL1        0.0225
      8 C         -11.0031  -17.6411   21.6445 C.ar    1  UNL1        0.0568
      9 CL        -10.7258  -17.1835   20.2432 Cl      1  UNL1       -0.0825
     10 O          -7.8577  -16.7382   21.5680 O.3     1  UNL1       -0.3450
     11 C          -8.0505  -15.4961   22.3865 C.3     1  UNL1        0.1698
     12 CL         -6.7070  -15.5181   28.2341 Cl      1  UNL1       -0.0822
     13 C          -7.0429  -15.5126   26.7722 C.ar    1  UNL1        0.0585
     14 C          -8.4765  -15.5417   26.3319 C.ar    1  UNL1        0.0112
     15 C          -8.8124  -15.5362   24.8700 C.ar    1  UNL1       -0.0001
     16 C          -7.7147  -15.5016   23.8484 C.ar    1  UNL1        0.0179
     17 C          -6.2811  -15.4725   24.2887 C.ar    1  UNL1        0.0569
     18 CL         -5.1832  -15.4379   23.2671 Cl      1  UNL1       -0.0825
     19 C          -5.9452  -15.4780   25.7506 C.ar    1  UNL1        0.0225
     20 C          -7.6582  -19.2994   21.9558 C.3     1  UNL1        0.1416
     21 N          -6.2474  -19.2665   21.4474 N.ar    1  UNL1       -0.3050
     22 C          -5.0066  -19.2518   22.2901 C.ar    1  UNL1        0.0981
     23 C          -3.8220  -19.2188   21.3705 C.ar    1  UNL1        0.1193
     24 N          -4.3306  -19.2131   19.9594 N.ar    1  UNL1       -0.2223
     25 C          -5.8296  -19.2426   20.0069 C.ar    1  UNL1        0.1787
@<TRIPOS>BOND
     1    12    13    1
     2    13    14   ar
     3    14    15   ar
     4    15    16   ar
     5    16    11    1
     6    11    10    1
     7    10     1    1
     8     1    20    1
     9    20    21    1
    10    21    22   ar
    11    22    23   ar
    12    23    24   ar
    13    24    25   ar
    14     1     2    1
    15     2     3   ar
    16     3     4   ar
    17     4     5   ar
    18     5     6    1
    19     5     7   ar
    20     7     8   ar
    21     8     9    1
    22    16    17   ar
    23    17    18    1
    24    17    19   ar
    25    19    13   ar
    26    25    21   ar
    27     8     2   ar
@<TRIPOS>MOLECULE
*****
 25 27 0 0 0
SMALL
GASTEIGER

@<TRIPOS>ATOM
      1 C          -8.6840  -17.2544   22.4398 C.3     1  UNL1        0.1612
      2 C         -10.0942  -17.4997   22.8883 C.ar    1  UNL1        0.0171
      3 C         -10.3647  -18.4145   24.0458 C.ar    1  UNL1       -0.0002
      4 C         -11.7748  -18.6598   24.4944 C.ar    1  UNL1        0.0112
      5 C         -12.9146  -17.9902   23.7854 C.ar    1  UNL1        0.0585
      6 CL        -14.3248  -18.2355   24.2340 Cl      1  UNL1       -0.0822
      7 C         -12.6442  -17.0754   22.6279 C.ar    1  UNL1        0.0225
      8 C         -11.2339  -16.8301   22.1793 C.ar    1  UNL1        0.0568
      9 CL        -10.9635  -15.9152   21.0218 Cl      1  UNL1       -0.0825
     10 O          -7.9566  -18.2996   21.6470 O.3     1  UNL1       -0.3450
     11 C          -6.9566  -19.1914   22.3212 C.3     1  UNL1        0.1698
     12 CL         -1.2102  -19.0966   20.5981 Cl      1  UNL1       -0.0822
     13 C          -2.6468  -19.1203   21.0289 C.ar    1  UNL1        0.0585
     14 C          -3.1104  -18.2298   22.1433 C.ar    1  UNL1        0.0112
     15 C          -4.5470  -18.2535   22.5740 C.ar    1  UNL1       -0.0001
     16 C          -5.5200  -19.1677   21.8904 C.ar    1  UNL1        0.0179
     17 C          -5.0564  -20.0583   20.7760 C.ar    1  UNL1        0.0569
     18 CL         -6.0294  -20.9726   20.0924 Cl      1  UNL1       -0.0825
     19 C          -3.6198  -20.0346   20.3453 C.ar    1  UNL1        0.0225
     20 C          -8.0012  -15.9640   22.7841 C.3     1  UNL1        0.1416
     21 N          -7.4179  -15.7657   24.1517 N.ar    1  UNL1       -0.3050
     22 C          -5.9654  -15.5696   24.4708 C.ar    1  UNL1        0.0981
     23 C          -5.8345  -15.4114   25.9567 C.ar    1  UNL1        0.1193
     24 N          -7.2060  -15.5096   26.5559 N.ar    1  UNL1       -0.2223
     25 C          -8.1846  -15.7286   25.4404 C.ar    1  UNL1        0.1787
@<TRIPOS>BOND
     1    12    13    1
     2    13    14   ar
     3    14    15   ar
     4    15    16   ar
     5    16    11    1
     6    11    10    1
     7    10     1    1
     8     1    20    1
     9    20    21    1
    10    21    22   ar
    11    22    23   ar
    12    23    24   ar
    13    24    25   ar
    14     1     2    1
    15     2     3   ar
    16     3     4   ar
    17     4     5   ar
    18     5     6    1
    19     5     7   ar
    20     7     8   ar
    21     8     9    1
    22    16    17   ar
    23    17    18    1
    24    17    19   ar
    25    19    13   ar
    26    25    21   ar
    27     8     2   ar
@<TRIPOS>MOLECULE
*****
 25 27 0 0 0
SMALL
GASTEIGER

@<TRIPOS>ATOM
      1 C          -8.1514  -17.3463   22.6415 C.3     1  UNL1        0.1612
      2 C          -9.5966  -17.5468   22.9899 C.ar    1  UNL1        0.0171
      3 C          -9.9817  -18.5295   24.0557 C.ar    1  UNL1       -0.0002
      4 C         -11.4268  -18.7300   24.4041 C.ar    1  UNL1        0.0112
      5 C         -12.4869  -17.9479   23.6867 C.ar    1  UNL1        0.0585
      6 CL        -13.9320  -18.1484   24.0351 Cl      1  UNL1       -0.0822
      7 C         -12.1017  -16.9652   22.6209 C.ar    1  UNL1        0.0225
      8 C         -10.6566  -16.7647   22.2725 C.ar    1  UNL1        0.0568
      9 CL        -10.2714  -15.7820   21.2066 Cl      1  UNL1       -0.0825
     10 O          -7.4427  -18.3463   21.7768 O.3     1  UNL1       -0.3450
     11 C          -6.2348  -19.0665   22.2988 C.3     1  UNL1        0.1698
     12 CL         -0.9273  -18.3796   19.5862 Cl      1  UNL1       -0.0822
     13 C          -2.2542  -18.5513   20.2644 C.ar    1  UNL1        0.0585
     14 C          -3.4081  -19.1480   19.5144 C.ar    1  UNL1        0.0112
     15 C          -4.7350  -19.3197   20.1926 C.ar    1  UNL1       -0.0001
     16 C          -4.9080  -18.8948   21.6206 C.ar    1  UNL1        0.0179
     17 C          -3.7541  -18.2981   22.3706 C.ar    1  UNL1        0.0569
     18 CL         -3.9270  -17.8731   23.7987 Cl      1  UNL1       -0.0825
     19 C          -2.4272  -18.1264   21.6924 C.ar    1  UNL1        0.0225
     20 C          -7.4151  -16.1457   23.1577 C.3     1  UNL1        0.1416
     21 N          -7.3870  -15.8589   24.6297 N.ar    1  UNL1       -0.3050
     22 C          -8.5837  -15.6788   25.5159 C.ar    1  UNL1        0.0981
     23 C          -8.0935  -15.4103   26.9079 C.ar    1  UNL1        0.1193
     24 N          -6.5938  -15.4245   26.8820 N.ar    1  UNL1       -0.2223
     25 C          -6.1572  -15.7017   25.4740 C.ar    1  UNL1        0.1787
@<TRIPOS>BOND
     1    12    13    1
     2    13    14   ar
     3    14    15   ar
     4    15    16   ar
     5    16    11    1
     6    11    10    1
     7    10     1    1
     8     1    20    1
     9    20    21    1
    10    21    22   ar
    11    22    23   ar
    12    23    24   ar
    13    24    25   ar
    14     1     2    1
    15     2     3   ar
    16     3     4   ar
    17     4     5   ar
    18     5     6    1
    19     5     7   ar
    20     7     8   ar
    21     8     9    1
    22    16    17   ar
    23    17    18    1
    24    17    19   ar
    25    19    13   ar
    26    25    21   ar
    27     8     2   ar
@<TRIPOS>MOLECULE
*****
 25 27 0 0 0
SMALL
GASTEIGER

@<TRIPOS>ATOM
      1 C          -8.3704  -18.9227   21.3112 C.3     1  UNL1        0.1612
      2 C          -8.4704  -18.0129   22.4997 C.ar    1  UNL1        0.0171
      3 C          -7.9863  -16.5964   22.4027 C.ar    1  UNL1       -0.0002
      4 C          -8.0863  -15.6866   23.5910 C.ar    1  UNL1        0.0112
      5 C          -8.6703  -16.1933   24.8765 C.ar    1  UNL1        0.0585
      6 CL         -8.7703  -15.2835   26.0649 Cl      1  UNL1       -0.0822
      7 C          -9.1543  -17.6098   24.9735 C.ar    1  UNL1        0.0225
      8 C          -9.0543  -18.5195   23.7850 C.ar    1  UNL1        0.0568
      9 CL         -9.5384  -19.9360   23.8820 Cl      1  UNL1       -0.0825
     10 O          -7.1383  -19.7526   21.1036 O.3     1  UNL1       -0.3450
     11 C          -5.9402  -19.5495   21.9830 C.3     1  UNL1        0.1698
     12 CL         -0.6820  -17.9603   19.5695 Cl      1  UNL1       -0.0822
     13 C          -1.9965  -18.3576   20.1729 C.ar    1  UNL1        0.0585
     14 C          -2.9914  -19.1319   19.3601 C.ar    1  UNL1        0.0112
     15 C          -4.3060  -19.5292   19.9634 C.ar    1  UNL1       -0.0001
     16 C          -4.6257  -19.1522   21.3796 C.ar    1  UNL1        0.0179
     17 C          -3.6308  -18.3780   22.1924 C.ar    1  UNL1        0.0569
     18 CL         -3.9505  -18.0009   23.6087 Cl      1  UNL1       -0.0825
     19 C          -2.3162  -17.9806   21.5890 C.ar    1  UNL1        0.0225
     20 C          -9.5024  -19.0024   20.3304 C.3     1  UNL1        0.1416
     21 N         -10.7710  -18.2439   20.5859 N.ar    1  UNL1       -0.3050
     22 C         -11.8627  -18.6452   21.5331 C.ar    1  UNL1        0.0981
     23 C         -12.9371  -17.6003   21.4717 C.ar    1  UNL1        0.1193
     24 N         -12.5094  -16.5531   20.4865 N.ar    1  UNL1       -0.2223
     25 C         -11.1708  -16.9509   19.9391 C.ar    1  UNL1        0.1787
@<TRIPOS>BOND
     1    12    13    1
     2    13    14   ar
     3    14    15   ar
     4    15    16   ar
     5    16    11    1
     6    11    10    1
     7    10     1    1
     8     1    20    1
     9    20    21    1
    10    21    22   ar
    11    22    23   ar
    12    23    24   ar
    13    24    25   ar
    14     1     2    1
    15     2     3   ar
    16     3     4   ar
    17     4     5   ar
    18     5     6    1
    19     5     7   ar
    20     7     8   ar
    21     8     9    1
    22    16    17   ar
    23    17    18    1
    24    17    19   ar
    25    19    13   ar
    26    25    21   ar
    27     8     2   ar
@<TRIPOS>MOLECULE
*****
 25 27 0 0 0
SMALL
GASTEIGER

@<TRIPOS>ATOM
      1 C          -8.5120  -17.8006   21.9610 C.3     1  UNL1        0.1612
      2 C          -8.4790  -17.1589   23.3165 C.ar    1  UNL1        0.0171
      3 C          -8.9220  -17.9320   24.5232 C.ar    1  UNL1       -0.0002
      4 C          -8.8891  -17.2904   25.8786 C.ar    1  UNL1        0.0112
      5 C          -8.4132  -15.8757   26.0274 C.ar    1  UNL1        0.0585
      6 CL         -8.3803  -15.2341   27.3829 Cl      1  UNL1       -0.0822
      7 C          -7.9702  -15.1026   24.8207 C.ar    1  UNL1        0.0225
      8 C          -8.0031  -15.7442   23.4652 C.ar    1  UNL1        0.0568
      9 CL         -7.5601  -14.9712   22.2586 Cl      1  UNL1       -0.0825
     10 O          -7.2310  -18.0815   21.2329 O.3     1  UNL1       -0.3450
     11 C          -6.1264  -18.8287   21.9196 C.3     1  UNL1        0.1698
     12 CL         -0.5079  -18.4481   19.8488 Cl      1  UNL1       -0.0822
     13 C          -1.9125  -18.5432   20.3665 C.ar    1  UNL1        0.0585
     14 C          -3.0052  -19.0622   19.4796 C.ar    1  UNL1        0.0112
     15 C          -4.4098  -19.1573   19.9972 C.ar    1  UNL1       -0.0001
     16 C          -4.7217  -18.7335   21.4019 C.ar    1  UNL1        0.0179
     17 C          -3.6291  -18.2146   22.2888 C.ar    1  UNL1        0.0569
     18 CL         -3.9410  -17.7908   23.6935 Cl      1  UNL1       -0.0825
     19 C          -2.2245  -18.1195   21.7711 C.ar    1  UNL1        0.0225
     20 C          -9.8258  -18.1612   21.3337 C.3     1  UNL1        0.1416
     21 N         -11.1057  -17.6536   21.9290 N.ar    1  UNL1       -0.3050
     22 C         -12.0759  -18.4534   22.7469 C.ar    1  UNL1        0.0981
     23 C         -13.2098  -17.5511   23.1342 C.ar    1  UNL1        0.1193
     24 N         -12.9404  -16.1936   22.5558 N.ar    1  UNL1       -0.2223
     25 C         -11.6400  -16.2570   21.8109 C.ar    1  UNL1        0.1787
@<TRIPOS>BOND
     1    12    13    1
     2    13    14   ar
     3    14    15   ar
     4    15    16   ar
     5    16    11    1
     6    11    10    1
     7    10     1    1
     8     1    20    1
     9    20    21    1
    10    21    22   ar
    11    22    23   ar
    12    23    24   ar
    13    24    25   ar
    14     1     2    1
    15     2     3   ar
    16     3     4   ar
    17     4     5   ar
    18     5     6    1
    19     5     7   ar
    20     7     8   ar
    21     8     9    1
    22    16    17   ar
    23    17    18    1
    24    17    19   ar
    25    19    13   ar
    26    25    21   ar
    27     8     2   ar
@<TRIPOS>MOLECULE
*****
 25 27 0 0 0
SMALL
GASTEIGER

@<TRIPOS>ATOM
      1 C          -6.8698  -18.2882   22.4455 C.3     1  UNL1        0.1612
      2 C          -5.4742  -18.4753   21.9283 C.ar    1  UNL1        0.0171
      3 C          -4.3004  -18.1935   22.8188 C.ar    1  UNL1       -0.0002
      4 C          -2.9049  -18.3805   22.3017 C.ar    1  UNL1        0.0112
      5 C          -2.6830  -18.8494   20.8942 C.ar    1  UNL1        0.0585
      6 CL         -1.2875  -19.0364   20.3771 Cl      1  UNL1       -0.0822
      7 C          -3.8568  -19.1312   20.0038 C.ar    1  UNL1        0.0225
      8 C          -5.2525  -18.9441   20.5209 C.ar    1  UNL1        0.0568
      9 CL         -6.4262  -19.2259   19.6305 Cl      1  UNL1       -0.0825
     10 O          -7.7379  -19.4825   22.7103 O.3     1  UNL1       -0.3450
     11 C          -9.0142  -19.6668   21.9442 C.3     1  UNL1        0.1698
     12 CL        -14.2118  -17.7840   24.2767 Cl      1  UNL1       -0.0822
     13 C         -12.9124  -18.2547   23.6936 C.ar    1  UNL1        0.0585
     14 C         -11.8919  -18.9158   24.5719 C.ar    1  UNL1        0.0112
     15 C         -10.5925  -19.3865   23.9888 C.ar    1  UNL1       -0.0001
     16 C         -10.3136  -19.1961   22.5273 C.ar    1  UNL1        0.0179
     17 C         -11.3341  -18.5349   21.6490 C.ar    1  UNL1        0.0569
     18 CL        -11.0552  -18.3445   20.1875 Cl      1  UNL1       -0.0825
     19 C         -12.6335  -18.0642   22.2321 C.ar    1  UNL1        0.0225
     20 C          -7.3974  -16.9069   22.6977 C.3     1  UNL1        0.1416
     21 N          -7.4383  -16.3632   24.0951 N.ar    1  UNL1       -0.3050
     22 C          -6.2874  -15.7509   24.8370 C.ar    1  UNL1        0.0981
     23 C          -6.7751  -15.3457   26.1964 C.ar    1  UNL1        0.1193
     24 N          -8.2275  -15.7075   26.2946 N.ar    1  UNL1       -0.2223
     25 C          -8.6373  -16.3364   24.9960 C.ar    1  UNL1        0.1787
@<TRIPOS>BOND
     1    12    13    1
     2    13    14   ar
     3    14    15   ar
     4    15    16   ar
     5    16    11    1
     6    11    10    1
     7    10     1    1
     8     1    20    1
     9    20    21    1
    10    21    22   ar
    11    22    23   ar
    12    23    24   ar
    13    24    25   ar
    14     1     2    1
    15     2     3   ar
    16     3     4   ar
    17     4     5   ar
    18     5     6    1
    19     5     7   ar
    20     7     8   ar
    21     8     9    1
    22    16    17   ar
    23    17    18    1
    24    17    19   ar
    25    19    13   ar
    26    25    21   ar
    27     8     2   ar
@<TRIPOS>MOLECULE
*****
 25 27 0 0 0
SMALL
GASTEIGER

@<TRIPOS>ATOM
      1 C          -7.3056  -17.4482   22.6770 C.3     1  UNL1        0.1612
      2 C          -7.2049  -16.7110   23.9795 C.ar    1  UNL1        0.0171
      3 C          -8.3970  -16.6232   24.8857 C.ar    1  UNL1       -0.0002
      4 C          -8.2963  -15.8861   26.1882 C.ar    1  UNL1        0.0112
      5 C          -7.0036  -15.2366   26.5845 C.ar    1  UNL1        0.0585
      6 CL         -6.9029  -14.4994   27.8869 Cl      1  UNL1       -0.0822
      7 C          -5.8115  -15.3243   25.6782 C.ar    1  UNL1        0.0225
      8 C          -5.9122  -16.0615   24.3757 C.ar    1  UNL1        0.0568
      9 CL         -4.7201  -16.1493   23.4695 Cl      1  UNL1       -0.0825
     10 O          -8.0645  -16.8466   21.5315 O.3     1  UNL1       -0.3450
     11 C          -9.2718  -17.5466   20.9816 C.3     1  UNL1        0.1698
     12 CL        -14.1839  -18.1657   24.3711 Cl      1  UNL1       -0.0822
     13 C         -12.9558  -18.0109   23.5237 C.ar    1  UNL1        0.0585
     14 C         -11.6997  -18.7482   23.8819 C.ar    1  UNL1        0.0112
     15 C         -10.4717  -18.5934   23.0345 C.ar    1  UNL1       -0.0001
     16 C         -10.4998  -17.7014   21.8290 C.ar    1  UNL1        0.0179
     17 C         -11.7560  -16.9640   21.4708 C.ar    1  UNL1        0.0569
     18 CL        -11.7842  -16.0719   20.2652 Cl      1  UNL1       -0.0825
     19 C         -12.9840  -17.1188   22.3182 C.ar    1  UNL1        0.0225
     20 C          -6.6475  -18.7869   22.5201 C.3     1  UNL1        0.1416
     21 N          -5.4875  -18.9471   21.5827 N.ar    1  UNL1       -0.3050
     22 C          -4.0475  -19.0887   21.9780 C.ar    1  UNL1        0.0981
     23 C          -3.2338  -19.2230   20.7250 C.ar    1  UNL1        0.1193
     24 N          -4.1710  -19.1644   19.5553 N.ar    1  UNL1       -0.2223
     25 C          -5.5638  -18.9939   20.0854 C.ar    1  UNL1        0.1787
@<TRIPOS>BOND
     1    12    13    1
     2    13    14   ar
     3    14    15   ar
     4    15    16   ar
     5    16    11    1
     6    11    10    1
     7    10     1    1
     8     1    20    1
     9    20    21    1
    10    21    22   ar
    11    22    23   ar
    12    23    24   ar
    13    24    25   ar
    14     1     2    1
    15     2     3   ar
    16     3     4   ar
    17     4     5   ar
    18     5     6    1
    19     5     7   ar
    20     7     8   ar
    21     8     9    1
    22    16    17   ar
    23    17    18    1
    24    17    19   ar
    25    19    13   ar
    26    25    21   ar
    27     8     2   ar
@<TRIPOS>MOLECULE
*****
 25 27 0 0 0
SMALL
GASTEIGER

@<TRIPOS>ATOM
      1 C          -7.5978  -17.2487   22.5115 C.3     1  UNL1        0.1612
      2 C          -7.3508  -16.6034   23.8429 C.ar    1  UNL1        0.0171
      3 C          -6.0862  -15.8322   24.0795 C.ar    1  UNL1       -0.0002
      4 C          -5.8392  -15.1869   25.4109 C.ar    1  UNL1        0.0112
      5 C          -6.8568  -15.3129   26.5057 C.ar    1  UNL1        0.0585
      6 CL         -6.6097  -14.6676   27.8371 Cl      1  UNL1       -0.0822
      7 C          -8.1214  -16.0841   26.2692 C.ar    1  UNL1        0.0225
      8 C          -8.3684  -16.7294   24.9377 C.ar    1  UNL1        0.0568
      9 CL         -9.6330  -17.5006   24.7012 Cl      1  UNL1       -0.0825
     10 O          -8.2344  -16.4628   21.4037 O.3     1  UNL1       -0.3450
     11 C          -9.4954  -16.9591   20.7608 C.3     1  UNL1        0.1698
     12 CL        -14.3426  -18.0625   24.1204 Cl      1  UNL1       -0.0822
     13 C         -13.1308  -17.7867   23.2805 C.ar    1  UNL1        0.0585
     14 C         -12.7124  -16.3720   23.0094 C.ar    1  UNL1        0.0112
     15 C         -11.5006  -16.0961   22.1695 C.ar    1  UNL1       -0.0001
     16 C         -10.7072  -17.2349   21.6007 C.ar    1  UNL1        0.0179
     17 C         -11.1256  -18.6496   21.8718 C.ar    1  UNL1        0.0569
     18 CL        -10.3322  -19.7885   21.3030 Cl      1  UNL1       -0.0825
     19 C         -12.3374  -18.9255   22.7117 C.ar    1  UNL1        0.0225
     20 C          -7.2082  -18.6799   22.2879 C.3     1  UNL1        0.1416
     21 N          -5.8652  -19.0096   21.7068 N.ar    1  UNL1       -0.3050
     22 C          -5.5806  -19.3268   20.2686 C.ar    1  UNL1        0.0981
     23 C          -4.1105  -19.5932   20.1348 C.ar    1  UNL1        0.1193
     24 N          -3.4866  -19.4407   21.4903 N.ar    1  UNL1       -0.2223
     25 C          -4.5710  -19.0799   22.4618 C.ar    1  UNL1        0.1787
@<TRIPOS>BOND
     1    12    13    1
     2    13    14   ar
     3    14    15   ar
     4    15    16   ar
     5    16    11    1
     6    11    10    1
     7    10     1    1
     8     1    20    1
     9    20    21    1
    10    21    22   ar
    11    22    23   ar
    12    23    24   ar
    13    24    25   ar
    14     1     2    1
    15     2     3   ar
    16     3     4   ar
    17     4     5   ar
    18     5     6    1
    19     5     7   ar
    20     7     8   ar
    21     8     9    1
    22    16    17   ar
    23    17    18    1
    24    17    19   ar
    25    19    13   ar
    26    25    21   ar
    27     8     2   ar
@<TRIPOS>MOLECULE
*****
 25 27 0 0 0
SMALL
GASTEIGER

@<TRIPOS>ATOM
      1 C          -7.3790  -18.6346   22.5059 C.3     1  UNL1        0.1612
      2 C          -6.0067  -18.8856   21.9544 C.ar    1  UNL1        0.0171
      3 C          -4.7963  -18.5613   22.7788 C.ar    1  UNL1       -0.0002
      4 C          -3.4241  -18.8121   22.2274 C.ar    1  UNL1        0.0112
      5 C          -3.2623  -19.3874   20.8515 C.ar    1  UNL1        0.0585
      6 CL         -1.8901  -19.6382   20.3001 Cl      1  UNL1       -0.0822
      7 C          -4.4727  -19.7117   20.0271 C.ar    1  UNL1        0.0225
      8 C          -5.8450  -19.4607   20.5786 C.ar    1  UNL1        0.0568
      9 CL         -7.0554  -19.7850   19.7541 Cl      1  UNL1       -0.0825
     10 O          -8.2076  -19.7808   23.0055 O.3     1  UNL1       -0.3450
     11 C          -9.5046  -20.1184   22.3318 C.3     1  UNL1        0.1698
     12 CL        -12.8888  -15.7566   19.9819 Cl      1  UNL1       -0.0822
     13 C         -12.0427  -16.8471   20.5694 C.ar    1  UNL1        0.0585
     14 C         -11.1732  -17.6840   19.6787 C.ar    1  UNL1        0.0112
     15 C         -10.3272  -18.7744   20.2661 C.ar    1  UNL1       -0.0001
     16 C         -10.3506  -19.0279   21.7443 C.ar    1  UNL1        0.0179
     17 C         -11.2201  -18.1910   22.6351 C.ar    1  UNL1        0.0569
     18 CL        -11.2436  -18.4445   24.1134 Cl      1  UNL1       -0.0825
     19 C         -12.0662  -17.1006   22.0476 C.ar    1  UNL1        0.0225
     20 C          -7.9225  -17.2376   22.5577 C.3     1  UNL1        0.1416
     21 N          -7.6285  -16.3618   23.7394 N.ar    1  UNL1       -0.3050
     22 C          -8.4531  -16.2598   24.9882 C.ar    1  UNL1        0.0981
     23 C          -7.7925  -15.2691   25.9004 C.ar    1  UNL1        0.1193
     24 N          -6.5595  -14.7588   25.2154 N.ar    1  UNL1       -0.2223
     25 C          -6.4581  -15.4341   23.8798 C.ar    1  UNL1        0.1787
@<TRIPOS>BOND
     1    12    13    1
     2    13    14   ar
     3    14    15   ar
     4    15    16   ar
     5    16    11    1
     6    11    10    1
     7    10     1    1
     8     1    20    1
     9    20    21    1
    10    21    22   ar
    11    22    23   ar
    12    23    24   ar
    13    24    25   ar
    14     1     2    1
    15     2     3   ar
    16     3     4   ar
    17     4     5   ar
    18     5     6    1
    19     5     7   ar
    20     7     8   ar
    21     8     9    1
    22    16    17   ar
    23    17    18    1
    24    17    19   ar
    25    19    13   ar
    26    25    21   ar
    27     8     2   ar
