@<TRIPOS>MOLECULE
*****
 23 26 0 0 0
SMALL
GASTEIGER

@<TRIPOS>ATOM
      1 C          -6.0990  -20.2592   20.6215 C.ar    1  UNL1        0.1387
      2 C          -6.7866  -19.8745   19.3451 C.ar    1  UNL1        0.0366
      3 C          -8.2125  -19.4095   19.3721 C.ar    1  UNL1       -0.0014
      4 C          -8.9507  -19.3293   20.6755 C.ar    1  UNL1       -0.0245
      5 C          -8.2630  -19.7140   21.9517 C.ar    1  UNL1       -0.0217
      6 C          -6.8372  -20.1790   21.9248 C.ar    1  UNL1        0.0324
      7 C          -8.8110  -19.7078   23.3481 C.3     1  UNL1        0.0434
      8 C         -10.1822  -19.3153   23.8128 C.3     1  UNL1        0.0768
      9 N         -11.3438  -18.8321   22.9961 N.3     1  UNL1       -0.2734
     10 C         -11.4213  -18.6220   21.5129 C.3     1  UNL1        0.0768
     11 C         -10.3563  -18.8433   20.4801 C.3     1  UNL1        0.0433
     12 C         -12.5932  -18.5173   23.7642 C.3     1  UNL1        0.0575
     13 C         -13.0791  -18.7897   25.1569 C.3     1  UNL1        0.0160
     14 C         -14.3602  -18.0721   24.8504 C.3     1  UNL1        0.0028
     15 C         -13.8743  -17.7998   23.4576 C.3     1  UNL1        0.0160
     16 O          -4.6731  -20.7242   20.5944 O.3     1  UNL1       -0.4707
     17 C          -3.6547  -19.9737   19.7883 C.3     1  UNL1        0.2320
     18 C          -1.6526  -16.3343   21.5191 C.ar    1  UNL1       -0.0000
     19 C          -2.6483  -17.1025   22.3365 C.ar    1  UNL1       -0.0002
     20 C          -3.3157  -18.3157   21.7596 C.ar    1  UNL1       -0.0007
     21 C          -2.9873  -18.7606   20.3653 C.ar    1  UNL1        0.0212
     22 C          -1.9916  -17.9923   19.5479 C.ar    1  UNL1       -0.0007
     23 C          -1.3242  -16.7792   20.1247 C.ar    1  UNL1       -0.0002
@<TRIPOS>BOND
     1    18    19   ar
     2    19    20   ar
     3    20    21   ar
     4    21    17    1
     5    17    16    1
     6    16     1    1
     7     1     2   ar
     8     2     3   ar
     9     3     4   ar
    10     4     5   ar
    11     5     6   ar
    12     5     7    1
    13     7     8    1
    14     8     9    1
    15     9    12    1
    16    12    13    1
    17    13    14    1
    18    14    15    1
    19     9    10    1
    20    10    11    1
    21    21    22   ar
    22    22    23   ar
    23    23    18   ar
    24     6     1   ar
    25    15    12    1
    26    11     4    1
@<TRIPOS>MOLECULE
*****
 23 26 0 0 0
SMALL
GASTEIGER

@<TRIPOS>ATOM
      1 C          -9.7308  -17.9227   24.3191 C.ar    1  UNL1        0.1387
      2 C          -9.3126  -16.6301   24.9551 C.ar    1  UNL1        0.0366
      3 C          -7.9359  -16.0860   24.7129 C.ar    1  UNL1       -0.0014
      4 C          -6.9774  -16.8345   23.8346 C.ar    1  UNL1       -0.0245
      5 C          -7.3957  -18.1270   23.1988 C.ar    1  UNL1       -0.0217
      6 C          -8.7723  -18.6711   23.4409 C.ar    1  UNL1        0.0324
      7 C          -6.6024  -19.0252   22.2965 C.3     1  UNL1        0.0434
      8 C          -5.1948  -18.8526   21.8074 C.3     1  UNL1        0.0768
      9 N          -4.2332  -17.7393   22.0997 N.3     1  UNL1       -0.2734
     10 C          -4.4412  -16.5235   22.9533 C.3     1  UNL1        0.0768
     11 C          -5.6626  -16.1209   23.7255 C.3     1  UNL1        0.0433
     12 C          -2.8849  -17.8573   21.4528 C.3     1  UNL1        0.0575
     13 C          -1.8093  -16.8890   21.0583 C.3     1  UNL1        0.0160
     14 C          -0.9782  -18.0241   20.5380 C.3     1  UNL1        0.0028
     15 C          -2.0538  -18.9924   20.9326 C.3     1  UNL1        0.0160
     16 O         -11.1075  -18.4667   24.5614 O.3     1  UNL1       -0.4707
     17 C         -12.2067  -18.1903   23.5788 C.3     1  UNL1        0.2320
     18 C         -11.2040  -16.9534   19.3700 C.ar    1  UNL1       -0.0000
     19 C         -11.6068  -15.9198   20.3796 C.ar    1  UNL1       -0.0002
     20 C         -11.9411  -16.3321   21.7825 C.ar    1  UNL1       -0.0007
     21 C         -11.8725  -17.7780   22.1758 C.ar    1  UNL1        0.0212
     22 C         -11.4697  -18.8115   21.1662 C.ar    1  UNL1       -0.0007
     23 C         -11.1354  -18.3993   19.7633 C.ar    1  UNL1       -0.0002
@<TRIPOS>BOND
     1    18    19   ar
     2    19    20   ar
     3    20    21   ar
     4    21    17    1
     5    17    16    1
     6    16     1    1
     7     1     2   ar
     8     2     3   ar
     9     3     4   ar
    10     4     5   ar
    11     5     6   ar
    12     5     7    1
    13     7     8    1
    14     8     9    1
    15     9    12    1
    16    12    13    1
    17    13    14    1
    18    14    15    1
    19     9    10    1
    20    10    11    1
    21    21    22   ar
    22    22    23   ar
    23    23    18   ar
    24     6     1   ar
    25    15    12    1
    26    11     4    1
@<TRIPOS>MOLECULE
*****
 23 26 0 0 0
SMALL
GASTEIGER

@<TRIPOS>ATOM
      1 C          -8.8810  -19.7167   20.6744 C.ar    1  UNL1        0.1387
      2 C          -8.7558  -19.4222   22.1399 C.ar    1  UNL1        0.0366
      3 C          -7.4403  -18.9751   22.7053 C.ar    1  UNL1       -0.0014
      4 C          -6.2501  -18.8226   21.8052 C.ar    1  UNL1       -0.0245
      5 C          -6.3754  -19.1171   20.3398 C.ar    1  UNL1       -0.0217
      6 C          -7.6908  -19.5641   19.7743 C.ar    1  UNL1        0.0324
      7 C          -5.3224  -19.0301   19.2750 C.3     1  UNL1        0.0434
      8 C          -3.8840  -18.6270   19.4128 C.3     1  UNL1        0.0768
      9 N          -3.1436  -18.2115   20.6492 N.3     1  UNL1       -0.2734
     10 C          -3.6584  -18.0963   22.0534 C.3     1  UNL1        0.0768
     11 C          -5.0410  -18.3683   22.5679 C.3     1  UNL1        0.0433
     12 C          -1.6970  -17.8653   20.4560 C.3     1  UNL1        0.0575
     13 C          -0.8482  -16.6604   20.7350 C.3     1  UNL1        0.0160
     14 C           0.3490  -17.3757   20.1828 C.3     1  UNL1        0.0028
     15 C          -0.4997  -18.5807   19.9039 C.3     1  UNL1        0.0160
     16 O         -10.1965  -20.1637   20.1090 O.3     1  UNL1       -0.4707
     17 C         -11.2519  -19.1516   19.7747 C.3     1  UNL1        0.2320
     18 C         -12.3196  -15.9480   22.7491 C.ar    1  UNL1       -0.0000
     19 C         -11.3421  -15.6550   21.6498 C.ar    1  UNL1       -0.0002
     20 C         -10.9862  -16.7228   20.6583 C.ar    1  UNL1       -0.0007
     21 C         -11.6078  -18.0837   20.7662 C.ar    1  UNL1        0.0212
     22 C         -12.5854  -18.3766   21.8655 C.ar    1  UNL1       -0.0007
     23 C         -12.9413  -17.3088   22.8570 C.ar    1  UNL1       -0.0002
@<TRIPOS>BOND
     1    18    19   ar
     2    19    20   ar
     3    20    21   ar
     4    21    17    1
     5    17    16    1
     6    16     1    1
     7     1     2   ar
     8     2     3   ar
     9     3     4   ar
    10     4     5   ar
    11     5     6   ar
    12     5     7    1
    13     7     8    1
    14     8     9    1
    15     9    12    1
    16    12    13    1
    17    13    14    1
    18    14    15    1
    19     9    10    1
    20    10    11    1
    21    21    22   ar
    22    22    23   ar
    23    23    18   ar
    24     6     1   ar
    25    15    12    1
    26    11     4    1
@<TRIPOS>MOLECULE
*****
 23 26 0 0 0
SMALL
GASTEIGER

@<TRIPOS>ATOM
      1 C           4.5418    0.9264   35.4062 C.ar    1  UNL1        0.1387
      2 C           5.1553   -0.3342   34.8727 C.ar    1  UNL1        0.0366
      3 C           4.7092   -0.8841   33.5503 C.ar    1  UNL1       -0.0014
      4 C           3.6497   -0.1733   32.7614 C.ar    1  UNL1       -0.0245
      5 C           3.0363    1.0872   33.2949 C.ar    1  UNL1       -0.0217
      6 C           3.4823    1.6371   34.6173 C.ar    1  UNL1        0.0324
      7 C           1.9742    1.9458   32.6746 C.3     1  UNL1        0.0434
      8 C           1.2632    1.7558   31.3674 C.3     1  UNL1        0.0768
      9 N           1.4388    0.6604   30.3580 N.3     1  UNL1       -0.2734
     10 C           2.3686   -0.5157   30.4062 C.3     1  UNL1        0.0768
     11 C           3.3526   -0.8867   31.4758 C.3     1  UNL1        0.0433
     12 C           0.5695    0.7532   29.1390 C.3     1  UNL1        0.0575
     13 C          -0.6727    0.0578   28.6666 C.3     1  UNL1        0.0160
     14 C          -0.6598    0.8845   27.4151 C.3     1  UNL1        0.0028
     15 C           0.5825    1.5800   27.8875 C.3     1  UNL1        0.0160
     16 O           4.9879    1.4763   36.7286 O.3     1  UNL1       -0.4707
     17 C           4.3658    0.9743   37.9978 C.3     1  UNL1        0.2320
     18 C           0.2376    2.3294   39.1692 C.ar    1  UNL1       -0.0000
     19 C           1.1416    3.2520   38.4067 C.ar    1  UNL1       -0.0002
     20 C           2.5176    2.8004   38.0162 C.ar    1  UNL1       -0.0007
     21 C           2.9897    1.4261   38.3883 C.ar    1  UNL1        0.0212
     22 C           2.0857    0.5035   39.1508 C.ar    1  UNL1       -0.0007
     23 C           0.7096    0.9551   39.5412 C.ar    1  UNL1       -0.0002
@<TRIPOS>BOND
     1    18    19   ar
     2    19    20   ar
     3    20    21   ar
     4    21    17    1
     5    17    16    1
     6    16     1    1
     7     1     2   ar
     8     2     3   ar
     9     3     4   ar
    10     4     5   ar
    11     5     6   ar
    12     5     7    1
    13     7     8    1
    14     8     9    1
    15     9    12    1
    16    12    13    1
    17    13    14    1
    18    14    15    1
    19     9    10    1
    20    10    11    1
    21    21    22   ar
    22    22    23   ar
    23    23    18   ar
    24     6     1   ar
    25    15    12    1
    26    11     4    1
@<TRIPOS>MOLECULE
*****
 23 26 0 0 0
SMALL
GASTEIGER

@<TRIPOS>ATOM
      1 C           8.1740   -5.7801   22.7844 C.ar    1  UNL1        0.1387
      2 C           8.7413   -7.1090   23.1870 C.ar    1  UNL1        0.0366
      3 C           8.7728   -7.5038   24.6339 C.ar    1  UNL1       -0.0014
      4 C           8.2369   -6.5695   25.6780 C.ar    1  UNL1       -0.0245
      5 C           7.6697   -5.2407   25.2753 C.ar    1  UNL1       -0.0217
      6 C           7.6382   -4.8459   23.8285 C.ar    1  UNL1        0.0324
      7 C           7.0883   -4.1685   26.1486 C.3     1  UNL1        0.0434
      8 C           6.9307   -4.1606   27.6403 C.3     1  UNL1        0.0768
      9 N           7.3154   -5.2227   28.6270 N.3     1  UNL1       -0.2734
     10 C           7.9529   -6.5552   28.3659 C.3     1  UNL1        0.0768
     11 C           8.3630   -7.1546   27.0534 C.3     1  UNL1        0.0433
     12 C           7.0243   -4.9112   30.0651 C.3     1  UNL1        0.0575
     13 C           6.6455   -3.6760   30.8273 C.3     1  UNL1        0.0160
     14 C           6.6125   -4.4707   32.0990 C.3     1  UNL1        0.0028
     15 C           6.9913   -5.7059   31.3369 C.3     1  UNL1        0.0160
     16 O           8.1426   -5.3854   21.3376 O.3     1  UNL1       -0.4707
     17 C           7.9013   -3.9551   20.9555 C.3     1  UNL1        0.2320
     18 C           4.0432   -2.7793   18.9599 C.ar    1  UNL1       -0.0000
     19 C           5.3515   -2.5233   18.2724 C.ar    1  UNL1       -0.0002
     20 C           6.6376   -2.9152   18.9376 C.ar    1  UNL1       -0.0007
     21 C           6.6152   -3.5632   20.2903 C.ar    1  UNL1        0.0212
     22 C           5.3069   -3.8191   20.9777 C.ar    1  UNL1       -0.0007
     23 C           4.0209   -3.4272   20.3126 C.ar    1  UNL1       -0.0002
@<TRIPOS>BOND
     1    18    19   ar
     2    19    20   ar
     3    20    21   ar
     4    21    17    1
     5    17    16    1
     6    16     1    1
     7     1     2   ar
     8     2     3   ar
     9     3     4   ar
    10     4     5   ar
    11     5     6   ar
    12     5     7    1
    13     7     8    1
    14     8     9    1
    15     9    12    1
    16    12    13    1
    17    13    14    1
    18    14    15    1
    19     9    10    1
    20    10    11    1
    21    21    22   ar
    22    22    23   ar
    23    23    18   ar
    24     6     1   ar
    25    15    12    1
    26    11     4    1
@<TRIPOS>MOLECULE
*****
 23 26 0 0 0
SMALL
GASTEIGER

@<TRIPOS>ATOM
      1 C          -0.2016    3.3668   20.1239 C.ar    1  UNL1        0.1387
      2 C           0.7440    3.9882   19.1392 C.ar    1  UNL1        0.0366
      3 C           1.8388    3.1645   18.5283 C.ar    1  UNL1       -0.0014
      4 C           1.9879    1.7194   18.9023 C.ar    1  UNL1       -0.0245
      5 C           1.0422    1.0982   19.8869 C.ar    1  UNL1       -0.0217
      6 C          -0.0525    1.9218   20.4978 C.ar    1  UNL1        0.0324
      7 C           1.0141   -0.3133   20.3940 C.3     1  UNL1        0.0434
      8 C           1.9247   -1.4520   20.0414 C.3     1  UNL1        0.0768
      9 N           3.0882   -1.4605   19.0949 N.3     1  UNL1       -0.2734
     10 C           3.6287   -0.3324   18.2670 C.3     1  UNL1        0.0768
     11 C           3.1390    1.0828   18.1813 C.3     1  UNL1        0.0433
     12 C           3.8063   -2.7703   18.9581 C.3     1  UNL1        0.0575
     13 C           3.4740   -4.1997   19.2686 C.3     1  UNL1        0.0160
     14 C           4.8219   -4.6227   18.7646 C.3     1  UNL1        0.0028
     15 C           5.1543   -3.1933   18.4541 C.3     1  UNL1        0.0160
     16 O          -1.2963    4.1905   20.7347 O.3     1  UNL1       -0.4707
     17 C          -2.6616    3.5995   20.9264 C.3     1  UNL1        0.2320
     18 C          -4.5696    3.6183   25.0018 C.ar    1  UNL1       -0.0000
     19 C          -3.0752    3.6207   24.8733 C.ar    1  UNL1       -0.0002
     20 C          -2.4392    3.6145   23.5149 C.ar    1  UNL1       -0.0007
     21 C          -3.2977    3.6058   22.2849 C.ar    1  UNL1        0.0212
     22 C          -4.7921    3.6033   22.4134 C.ar    1  UNL1       -0.0007
     23 C          -5.4281    3.6096   23.7718 C.ar    1  UNL1       -0.0002
@<TRIPOS>BOND
     1    18    19   ar
     2    19    20   ar
     3    20    21   ar
     4    21    17    1
     5    17    16    1
     6    16     1    1
     7     1     2   ar
     8     2     3   ar
     9     3     4   ar
    10     4     5   ar
    11     5     6   ar
    12     5     7    1
    13     7     8    1
    14     8     9    1
    15     9    12    1
    16    12    13    1
    17    13    14    1
    18    14    15    1
    19     9    10    1
    20    10    11    1
    21    21    22   ar
    22    22    23   ar
    23    23    18   ar
    24     6     1   ar
    25    15    12    1
    26    11     4    1
@<TRIPOS>MOLECULE
*****
 23 26 0 0 0
SMALL
GASTEIGER

@<TRIPOS>ATOM
      1 C           7.6529   -4.3011   20.8352 C.ar    1  UNL1        0.1387
      2 C           8.5954   -3.1446   20.6799 C.ar    1  UNL1        0.0366
      3 C           8.0686   -1.7944   20.2933 C.ar    1  UNL1       -0.0014
      4 C           6.5992   -1.6007   20.0620 C.ar    1  UNL1       -0.0245
      5 C           5.6568   -2.7572   20.2174 C.ar    1  UNL1       -0.0217
      6 C           6.1835   -4.1074   20.6040 C.ar    1  UNL1        0.0324
      7 C           4.1680   -2.7814   20.0354 C.3     1  UNL1        0.0434
      8 C           3.2541   -1.6550   19.6530 C.3     1  UNL1        0.0768
      9 N           3.6033   -0.2264   19.3583 N.3     1  UNL1       -0.2734
     10 C           4.9525    0.4289   19.3731 C.3     1  UNL1        0.0768
     11 C           6.2858   -0.1828   19.6863 C.3     1  UNL1        0.0433
     12 C           2.4508    0.6650   19.0016 C.3     1  UNL1        0.0575
     13 C           0.9569    0.5352   19.0432 C.3     1  UNL1        0.0160
     14 C           0.8208    1.9256   18.4972 C.3     1  UNL1        0.0028
     15 C           2.3147    2.0554   18.4556 C.3     1  UNL1        0.0160
     16 O           8.1798   -5.6513   21.2218 O.3     1  UNL1       -0.4707
     17 C           9.0025   -5.8070   22.4663 C.3     1  UNL1        0.2320
     18 C           6.9889   -6.6204   26.4076 C.ar    1  UNL1       -0.0000
     19 C           6.9554   -5.2413   25.8188 C.ar    1  UNL1       -0.0002
     20 C           7.6266   -4.9701   24.5051 C.ar    1  UNL1       -0.0007
     21 C           8.3313   -6.0781   23.7801 C.ar    1  UNL1        0.0212
     22 C           8.3648   -7.4573   24.3689 C.ar    1  UNL1       -0.0007
     23 C           7.6937   -7.7285   25.6827 C.ar    1  UNL1       -0.0002
@<TRIPOS>BOND
     1    18    19   ar
     2    19    20   ar
     3    20    21   ar
     4    21    17    1
     5    17    16    1
     6    16     1    1
     7     1     2   ar
     8     2     3   ar
     9     3     4   ar
    10     4     5   ar
    11     5     6   ar
    12     5     7    1
    13     7     8    1
    14     8     9    1
    15     9    12    1
    16    12    13    1
    17    13    14    1
    18    14    15    1
    19     9    10    1
    20    10    11    1
    21    21    22   ar
    22    22    23   ar
    23    23    18   ar
    24     6     1   ar
    25    15    12    1
    26    11     4    1
@<TRIPOS>MOLECULE
*****
 23 26 0 0 0
SMALL
GASTEIGER

@<TRIPOS>ATOM
      1 C          -0.0055    2.7015   22.1673 C.ar    1  UNL1        0.1387
      2 C           0.7871    2.4682   23.4193 C.ar    1  UNL1        0.0366
      3 C           1.7698    1.3367   23.4849 C.ar    1  UNL1       -0.0014
      4 C           1.9598    0.4386   22.2985 C.ar    1  UNL1       -0.0245
      5 C           1.1672    0.6720   21.0467 C.ar    1  UNL1       -0.0217
      6 C           0.1846    1.8034   20.9810 C.ar    1  UNL1        0.0324
      7 C           1.2023   -0.0986   19.7601 C.3     1  UNL1        0.0434
      8 C           2.0389   -1.2929   19.4079 C.3     1  UNL1        0.0768
      9 N           3.0466   -2.0114   20.2551 N.3     1  UNL1       -0.2734
     10 C           3.4670   -1.7133   21.6638 C.3     1  UNL1        0.0768
     11 C           2.9834   -0.6229   22.5732 C.3     1  UNL1        0.0433
     12 C           3.7237   -3.1832   19.6080 C.3     1  UNL1        0.0575
     13 C           3.3720   -4.6254   19.3927 C.3     1  UNL1        0.0160
     14 C           4.6812   -4.8403   18.6929 C.3     1  UNL1        0.0028
     15 C           5.0329   -3.3981   18.9082 C.3     1  UNL1        0.0160
     16 O          -0.9881    3.8329   22.1018 O.3     1  UNL1       -0.4707
     17 C          -2.4529    3.5655   22.2830 C.3     1  UNL1        0.2320
     18 C          -4.3321    3.9938   26.3494 C.ar    1  UNL1       -0.0000
     19 C          -5.1855    3.6702   25.1591 C.ar    1  UNL1       -0.0002
     20 C          -4.5592    3.5274   23.8036 C.ar    1  UNL1       -0.0007
     21 C          -3.0793    3.7083   23.6385 C.ar    1  UNL1        0.0212
     22 C          -2.2259    4.0319   24.8288 C.ar    1  UNL1       -0.0007
     23 C          -2.8522    4.1746   26.1842 C.ar    1  UNL1       -0.0002
@<TRIPOS>BOND
     1    18    19   ar
     2    19    20   ar
     3    20    21   ar
     4    21    17    1
     5    17    16    1
     6    16     1    1
     7     1     2   ar
     8     2     3   ar
     9     3     4   ar
    10     4     5   ar
    11     5     6   ar
    12     5     7    1
    13     7     8    1
    14     8     9    1
    15     9    12    1
    16    12    13    1
    17    13    14    1
    18    14    15    1
    19     9    10    1
    20    10    11    1
    21    21    22   ar
    22    22    23   ar
    23    23    18   ar
    24     6     1   ar
    25    15    12    1
    26    11     4    1
@<TRIPOS>MOLECULE
*****
 23 26 0 0 0
SMALL
GASTEIGER

@<TRIPOS>ATOM
      1 C           0.0709    2.6697   23.1053 C.ar    1  UNL1        0.1387
      2 C          -0.6081    2.8817   21.7847 C.ar    1  UNL1        0.0366
      3 C          -0.2529    2.0174   20.6114 C.ar    1  UNL1       -0.0014
      4 C           0.7815    0.9409   20.7587 C.ar    1  UNL1       -0.0245
      5 C           1.4604    0.7290   22.0792 C.ar    1  UNL1       -0.0217
      6 C           1.1052    1.5933   23.2526 C.ar    1  UNL1        0.0324
      7 C           2.5110   -0.2793   22.4395 C.3     1  UNL1        0.0434
      8 C           3.1421   -1.3245   21.5681 C.3     1  UNL1        0.0768
      9 N           2.8784   -1.6196   20.1213 N.3     1  UNL1       -0.2734
     10 C           1.9185   -0.9424   19.1885 C.3     1  UNL1        0.0768
     11 C           0.9853    0.1971   19.4721 C.3     1  UNL1        0.0433
     12 C           3.6806   -2.7401   19.5289 C.3     1  UNL1        0.0575
     13 C           5.0034   -2.8430   18.8291 C.3     1  UNL1        0.0160
     14 C           4.8152   -4.3247   18.6911 C.3     1  UNL1        0.0028
     15 C           3.4924   -4.2218   19.3909 C.3     1  UNL1        0.0160
     16 O          -0.2844    3.5340   24.2786 O.3     1  UNL1       -0.4707
     17 C          -1.2015    3.0117   25.3445 C.3     1  UNL1        0.2320
     18 C          -5.4821    4.3905   25.5035 C.ar    1  UNL1       -0.0000
     19 C          -4.9261    3.8153   24.2347 C.ar    1  UNL1       -0.0002
     20 C          -3.4993    3.3557   24.1816 C.ar    1  UNL1       -0.0007
     21 C          -2.6285    3.4713   25.3975 C.ar    1  UNL1        0.0212
     22 C          -3.1845    4.0465   26.6663 C.ar    1  UNL1       -0.0007
     23 C          -4.6113    4.5061   26.7193 C.ar    1  UNL1       -0.0002
@<TRIPOS>BOND
     1    18    19   ar
     2    19    20   ar
     3    20    21   ar
     4    21    17    1
     5    17    16    1
     6    16     1    1
     7     1     2   ar
     8     2     3   ar
     9     3     4   ar
    10     4     5   ar
    11     5     6   ar
    12     5     7    1
    13     7     8    1
    14     8     9    1
    15     9    12    1
    16    12    13    1
    17    13    14    1
    18    14    15    1
    19     9    10    1
    20    10    11    1
    21    21    22   ar
    22    22    23   ar
    23    23    18   ar
    24     6     1   ar
    25    15    12    1
    26    11     4    1
