@<TRIPOS>MOLECULE
*****
 23 24 0 0 0
SMALL
GASTEIGER

@<TRIPOS>ATOM
      1 C          -9.2018  -19.3577   21.5256 C.ar    1  UNL1        0.0503
      2 C          -8.1398  -19.3537   22.5848 C.ar    1  UNL1        0.0148
      3 C          -6.6914  -19.3695   22.1948 C.ar    1  UNL1        0.0058
      4 C          -6.3051  -19.3894   20.7456 C.ar    1  UNL1        0.0538
      5 C          -7.3672  -19.3934   19.6864 C.ar    1  UNL1        0.0058
      6 C          -8.8155  -19.3776   20.0764 C.ar    1  UNL1        0.0148
      7 C         -11.4448  -18.0752   21.7977 C.2     1  UNL1        0.2261
      8 O         -10.7911  -16.8242   21.2898 O.2     1  UNL1       -0.2748
      9 N         -10.6501  -19.3419   21.9156 N.am    1  UNL1       -0.2839
     10 H         -11.0791  -20.1629   22.2489 H       1  UNL1        0.1549
     11 C         -12.8931  -18.0593   22.1877 C.3     1  UNL1        0.0854
     12 C         -13.2980  -17.5767   23.5490 C.3     1  UNL1        0.0096
     13 C         -14.2924  -18.4918   25.7680 C.3     1  UNL1        0.0000
     14 C         -14.4062  -18.2647   24.2897 C.3     1  UNL1        0.0005
     15 C          -4.8568  -19.4052   20.3556 C.2     1  UNL1        0.2509
     16 O          -4.2764  -20.6095   19.6754 O.2     1  UNL1       -0.2698
     17 N          -3.9889  -18.2168   20.6459 N.am    1  UNL1       -0.2606
     18 H          -4.3698  -17.4264   21.0924 H       1  UNL1        0.1571
     19 C          -2.5406  -18.2327   20.2559 C.ar    1  UNL1        0.1658
     20 N          -1.4089  -18.7581   21.0886 N.ar    1  UNL1       -0.2224
     21 C          -0.1385  -18.5760   20.3121 C.ar    1  UNL1        0.1079
     22 C          -0.4850  -17.9381   18.9995 C.ar    1  UNL1        0.0588
     23 S          -1.9695  -17.7258   18.9647 S.2     1  UNL1       -0.0508
@<TRIPOS>BOND
     1    13    14    1
     2    14    12    1
     3    12    11    1
     4    11     7    1
     5     7     8    2
     6     7     9   am
     7     9     1    1
     8     1     2   ar
     9     2     3   ar
    10     3     4   ar
    11     4    15    1
    12    15    16    2
    13    15    17   am
    14    17    19    1
    15    19    20   ar
    16    20    21   ar
    17    21    22   ar
    18    22    23   ar
    19     4     5   ar
    20     5     6   ar
    21     6     1   ar
    22    23    19   ar
    23     9    10    1
    24    17    18    1
@<TRIPOS>MOLECULE
*****
 23 24 0 0 0
SMALL
GASTEIGER

@<TRIPOS>ATOM
      1 C          -9.0667  -19.5499   21.9442 C.ar    1  UNL1        0.0503
      2 C          -7.9810  -20.1515   22.7864 C.ar    1  UNL1        0.0148
      3 C          -6.5601  -20.1294   22.3062 C.ar    1  UNL1        0.0058
      4 C          -6.2249  -19.5057   20.9839 C.ar    1  UNL1        0.0538
      5 C          -7.3106  -18.9041   20.1417 C.ar    1  UNL1        0.0058
      6 C          -8.7315  -18.9262   20.6219 C.ar    1  UNL1        0.0148
      7 C         -10.9136  -18.6743   23.5480 C.2     1  UNL1        0.2261
      8 O          -9.9187  -17.7544   24.1915 O.2     1  UNL1       -0.2748
      9 N         -10.4876  -19.5720   22.4244 N.am    1  UNL1       -0.2839
     10 H         -11.1406  -20.1757   22.0020 H       1  UNL1        0.1549
     11 C         -12.3345  -18.6963   24.0281 C.3     1  UNL1        0.0854
     12 C         -13.3426  -17.7596   23.4310 C.3     1  UNL1        0.0096
     13 C         -12.5338  -16.7745   21.1671 C.3     1  UNL1        0.0000
     14 C         -12.8856  -16.5881   22.6133 C.3     1  UNL1        0.0005
     15 C          -4.8040  -19.4836   20.5038 C.2     1  UNL1        0.2509
     16 O          -4.2063  -20.7063   19.8731 O.2     1  UNL1       -0.2698
     17 N          -3.9807  -18.2389   20.6543 N.am    1  UNL1       -0.2606
     18 H          -4.3729  -17.4364   21.0683 H       1  UNL1        0.1571
     19 C          -2.5598  -18.2168   20.1742 C.ar    1  UNL1        0.1658
     20 N          -1.3635  -18.7025   20.9376 N.ar    1  UNL1       -0.2224
     21 C          -0.1500  -18.4910   20.0816 C.ar    1  UNL1        0.1079
     22 C          -0.5964  -17.8745   18.7890 C.ar    1  UNL1        0.0588
     23 S          -2.0857  -17.7050   18.8462 S.2     1  UNL1       -0.0508
@<TRIPOS>BOND
     1    13    14    1
     2    14    12    1
     3    12    11    1
     4    11     7    1
     5     7     8    2
     6     7     9   am
     7     9     1    1
     8     1     2   ar
     9     2     3   ar
    10     3     4   ar
    11     4    15    1
    12    15    16    2
    13    15    17   am
    14    17    19    1
    15    19    20   ar
    16    20    21   ar
    17    21    22   ar
    18    22    23   ar
    19     4     5   ar
    20     5     6   ar
    21     6     1   ar
    22    23    19   ar
    23     9    10    1
    24    17    18    1
@<TRIPOS>MOLECULE
*****
 23 24 0 0 0
SMALL
GASTEIGER

@<TRIPOS>ATOM
      1 C          -4.9255  -19.4049   20.9952 C.ar    1  UNL1        0.0503
      2 C          -5.3667  -18.6289   22.2006 C.ar    1  UNL1        0.0148
      3 C          -6.8243  -18.5405   22.5435 C.ar    1  UNL1        0.0058
      4 C          -7.8407  -19.2281   21.6809 C.ar    1  UNL1        0.0538
      5 C          -7.3995  -20.0040   20.4754 C.ar    1  UNL1        0.0058
      6 C          -5.9419  -20.0924   20.1326 C.ar    1  UNL1        0.0148
      7 C          -2.8698  -18.5340   19.6664 C.2     1  UNL1        0.2261
      8 O          -3.7294  -17.4863   19.0233 O.2     1  UNL1       -0.2748
      9 N          -3.4679  -19.4933   20.6523 N.am    1  UNL1       -0.2839
     10 H          -2.9038  -20.1809   21.0743 H       1  UNL1        0.1549
     11 C          -1.4122  -18.6224   19.3235 C.3     1  UNL1        0.0854
     12 C          -0.4131  -17.7945   20.0762 C.3     1  UNL1        0.0096
     13 C          -1.7548  -16.2296   21.6577 C.3     1  UNL1        0.0000
     14 C          -0.7771  -16.4136   20.5351 C.3     1  UNL1        0.0005
     15 C          -9.2983  -19.1397   22.0238 C.2     1  UNL1        0.2509
     16 O         -10.3039  -19.9214   21.2316 O.2     1  UNL1       -0.2698
     17 N          -9.7503  -18.2695   23.1589 N.am    1  UNL1       -0.2606
     18 H          -9.0903  -17.7565   23.6789 H       1  UNL1        0.1571
     19 C         -11.2079  -18.1811   23.5018 C.ar    1  UNL1        0.1658
     20 N         -11.8823  -18.8476   24.6642 N.ar    1  UNL1       -0.2224
     21 C         -13.3382  -18.4891   24.6233 C.ar    1  UNL1        0.1079
     22 C         -13.5638  -17.6011   23.4356 C.ar    1  UNL1        0.0588
     23 S         -12.2472  -17.4107   22.7424 S.2     1  UNL1       -0.0508
@<TRIPOS>BOND
     1    13    14    1
     2    14    12    1
     3    12    11    1
     4    11     7    1
     5     7     8    2
     6     7     9   am
     7     9     1    1
     8     1     2   ar
     9     2     3   ar
    10     3     4   ar
    11     4    15    1
    12    15    16    2
    13    15    17   am
    14    17    19    1
    15    19    20   ar
    16    20    21   ar
    17    21    22   ar
    18    22    23   ar
    19     4     5   ar
    20     5     6   ar
    21     6     1   ar
    22    23    19   ar
    23     9    10    1
    24    17    18    1
@<TRIPOS>MOLECULE
*****
 23 24 0 0 0
SMALL
GASTEIGER

@<TRIPOS>ATOM
      1 C           2.6881   -0.0720   19.4691 C.ar    1  UNL1        0.0503
      2 C           2.8400    1.3205   18.9328 C.ar    1  UNL1        0.0148
      3 C           1.7050    2.2950   19.0437 C.ar    1  UNL1        0.0058
      4 C           0.4180    1.8768   19.6909 C.ar    1  UNL1        0.0538
      5 C           0.2661    0.4843   20.2272 C.ar    1  UNL1        0.0058
      6 C           1.4011   -0.4902   20.1163 C.ar    1  UNL1        0.0148
      7 C           4.2795   -1.5158   18.0087 C.2     1  UNL1        0.2261
      8 O           3.6008   -1.0107   16.7699 O.2     1  UNL1       -0.2748
      9 N           3.8231   -1.0464   19.3583 N.am    1  UNL1       -0.2839
     10 H           4.2685   -1.3779   20.1713 H       1  UNL1        0.1549
     11 C           5.4145   -2.4902   17.8978 C.3     1  UNL1        0.0854
     12 C           5.5442   -3.6066   18.8912 C.3     1  UNL1        0.0096
     13 C           3.2881   -4.8168   19.3333 C.3     1  UNL1        0.0000
     14 C           4.6775   -4.8247   18.7680 C.3     1  UNL1        0.0005
     15 C          -0.7170    2.8512   19.8018 C.2     1  UNL1        0.2509
     16 O          -0.7595    4.0576   18.9114 O.2     1  UNL1       -0.2698
     17 N          -1.8095    2.6193   20.8030 N.am    1  UNL1       -0.2606
     18 H          -1.7816    1.8275   21.3874 H       1  UNL1        0.1571
     19 C          -2.9445    3.5937   20.9139 C.ar    1  UNL1        0.1658
     20 N          -3.0549    4.7089   21.9110 N.ar    1  UNL1       -0.2224
     21 C          -4.3470    5.4284   21.6605 C.ar    1  UNL1        0.1079
     22 C          -5.0352    4.7579   20.5086 C.ar    1  UNL1        0.0588
     23 S          -4.1684    3.6239   20.0471 S.2     1  UNL1       -0.0508
@<TRIPOS>BOND
     1    13    14    1
     2    14    12    1
     3    12    11    1
     4    11     7    1
     5     7     8    2
     6     7     9   am
     7     9     1    1
     8     1     2   ar
     9     2     3   ar
    10     3     4   ar
    11     4    15    1
    12    15    16    2
    13    15    17   am
    14    17    19    1
    15    19    20   ar
    16    20    21   ar
    17    21    22   ar
    18    22    23   ar
    19     4     5   ar
    20     5     6   ar
    21     6     1   ar
    22    23    19   ar
    23     9    10    1
    24    17    18    1
@<TRIPOS>MOLECULE
*****
 23 24 0 0 0
SMALL
GASTEIGER

@<TRIPOS>ATOM
      1 C           4.9415   -0.6137   34.2561 C.ar    1  UNL1        0.0503
      2 C           4.3448   -1.9433   33.9015 C.ar    1  UNL1        0.0148
      3 C           4.9449   -2.7647   32.7991 C.ar    1  UNL1        0.0058
      4 C           6.1417   -2.2564   32.0513 C.ar    1  UNL1        0.0538
      5 C           6.7384   -0.9267   32.4060 C.ar    1  UNL1        0.0058
      6 C           6.1383   -0.1053   33.5084 C.ar    1  UNL1        0.0148
      7 C           4.9946    0.2429   36.7084 C.2     1  UNL1        0.2261
      8 O           6.2479   -0.5433   36.9559 O.2     1  UNL1       -0.2748
      9 N           4.3414    0.2077   35.3585 N.am    1  UNL1       -0.2839
     10 H           3.5189    0.7237   35.1961 H       1  UNL1        0.1549
     11 C           4.3945    1.0642   37.8107 C.3     1  UNL1        0.0854
     12 C           2.9044    1.1966   37.9215 C.3     1  UNL1        0.0096
     13 C           1.0379    0.1365   39.3852 C.3     1  UNL1        0.0000
     14 C           2.2337    1.0323   39.2531 C.3     1  UNL1        0.0005
     15 C           6.7418   -3.0777   30.9490 C.2     1  UNL1        0.2509
     16 O           7.6019   -2.4231   29.9089 O.2     1  UNL1       -0.2698
     17 N           6.4818   -4.5537   30.8866 N.am    1  UNL1       -0.2606
     18 H           5.9173   -4.9833   31.5692 H       1  UNL1        0.1571
     19 C           7.0819   -5.3750   29.7842 C.ar    1  UNL1        0.1658
     20 N           6.5422   -5.5099   28.3912 N.ar    1  UNL1       -0.2224
     21 C           7.4538   -6.4240   27.6273 C.ar    1  UNL1        0.1079
     22 C           8.5569   -6.8540   28.5483 C.ar    1  UNL1        0.0588
     23 S           8.3271   -6.2058   29.8813 S.2     1  UNL1       -0.0508
@<TRIPOS>BOND
     1    13    14    1
     2    14    12    1
     3    12    11    1
     4    11     7    1
     5     7     8    2
     6     7     9   am
     7     9     1    1
     8     1     2   ar
     9     2     3   ar
    10     3     4   ar
    11     4    15    1
    12    15    16    2
    13    15    17   am
    14    17    19    1
    15    19    20   ar
    16    20    21   ar
    17    21    22   ar
    18    22    23   ar
    19     4     5   ar
    20     5     6   ar
    21     6     1   ar
    22    23    19   ar
    23     9    10    1
    24    17    18    1
@<TRIPOS>MOLECULE
*****
 23 24 0 0 0
SMALL
GASTEIGER

@<TRIPOS>ATOM
      1 C           3.1328    0.1065   19.1442 C.ar    1  UNL1        0.0503
      2 C           3.4356    1.4676   18.5915 C.ar    1  UNL1        0.0148
      3 C           2.3306    2.4652   18.4075 C.ar    1  UNL1        0.0058
      4 C           0.9229    2.1017   18.7763 C.ar    1  UNL1        0.0538
      5 C           0.6201    0.7405   19.3291 C.ar    1  UNL1        0.0058
      6 C           1.7251   -0.2571   19.5130 C.ar    1  UNL1        0.0148
      7 C           4.8007   -1.6143   18.1407 C.2     1  UNL1        0.2261
      8 O           4.2587   -1.3399   16.7692 O.2     1  UNL1       -0.2748
      9 N           4.2378   -0.8911   19.3282 N.am    1  UNL1       -0.2839
     10 H           4.5936   -1.0713   20.2283 H       1  UNL1        0.1549
     11 C           5.9057   -2.6119   18.3247 C.3     1  UNL1        0.0854
     12 C           5.6816   -3.8324   19.1675 C.3     1  UNL1        0.0096
     13 C           3.2830   -4.8098   19.3708 C.3     1  UNL1        0.0000
     14 C           4.6530   -4.8458   18.7612 C.3     1  UNL1        0.0005
     15 C          -0.1821    3.0993   18.5924 C.2     1  UNL1        0.2509
     16 O          -0.7181    3.8512   19.7744 O.2     1  UNL1       -0.2698
     17 N          -0.7510    3.3449   17.2264 N.am    1  UNL1       -0.2606
     18 H          -0.3993    2.8513   16.4506 H       1  UNL1        0.1571
     19 C          -1.8560    4.3425   17.0425 C.ar    1  UNL1        0.1658
     20 N          -1.6977    5.8330   16.9849 N.ar    1  UNL1       -0.2224
     21 C          -3.0571    6.4364   16.7906 C.ar    1  UNL1        0.1079
     22 C          -4.0557    5.3189   16.7281 C.ar    1  UNL1        0.0588
     23 S          -3.3134    4.0247   16.8838 S.2     1  UNL1       -0.0508
@<TRIPOS>BOND
     1    13    14    1
     2    14    12    1
     3    12    11    1
     4    11     7    1
     5     7     8    2
     6     7     9   am
     7     9     1    1
     8     1     2   ar
     9     2     3   ar
    10     3     4   ar
    11     4    15    1
    12    15    16    2
    13    15    17   am
    14    17    19    1
    15    19    20   ar
    16    20    21   ar
    17    21    22   ar
    18    22    23   ar
    19     4     5   ar
    20     5     6   ar
    21     6     1   ar
    22    23    19   ar
    23     9    10    1
    24    17    18    1
@<TRIPOS>MOLECULE
*****
 23 24 0 0 0
SMALL
GASTEIGER

@<TRIPOS>ATOM
      1 C           7.5898   -4.7118   30.0429 C.ar    1  UNL1        0.0503
      2 C           7.2396   -3.2820   29.7548 C.ar    1  UNL1        0.0148
      3 C           6.4879   -2.4745   30.7711 C.ar    1  UNL1        0.0058
      4 C           6.0864   -3.0968   32.0755 C.ar    1  UNL1        0.0538
      5 C           6.4366   -4.5266   32.3636 C.ar    1  UNL1        0.0058
      6 C           7.1883   -5.3341   31.3473 C.ar    1  UNL1        0.0148
      7 C           7.6328   -6.0465   27.8143 C.2     1  UNL1        0.2261
      8 O           6.1723   -5.7663   27.6183 O.2     1  UNL1       -0.2748
      9 N           8.3416   -5.5193   29.0266 N.am    1  UNL1       -0.2839
     10 H           9.3001   -5.7032   29.1552 H       1  UNL1        0.1549
     11 C           8.3846   -6.8540   26.7980 C.3     1  UNL1        0.0854
     12 C           7.6816   -7.3605   25.5735 C.3     1  UNL1        0.0096
     13 C           9.2046   -7.4805   23.4721 C.3     1  UNL1        0.0000
     14 C           8.0694   -6.8455   24.2191 C.3     1  UNL1        0.0005
     15 C           5.3346   -2.2894   33.0918 C.2     1  UNL1        0.2509
     16 O           3.9284   -2.6635   33.4559 O.2     1  UNL1       -0.2698
     17 N           5.9891   -1.1078   33.7441 N.am    1  UNL1       -0.2606
     18 H           6.9120   -0.8622   33.5051 H       1  UNL1        0.1571
     19 C           5.2374   -0.3003   34.7604 C.ar    1  UNL1        0.1658
     20 N           5.1822   -0.5697   36.2349 N.ar    1  UNL1       -0.2224
     21 C           4.3196    0.4825   36.8665 C.ar    1  UNL1        0.1079
     22 C           3.8415    1.4021   35.7822 C.ar    1  UNL1        0.0588
     23 S           4.4087    0.9184   34.4805 S.2     1  UNL1       -0.0508
@<TRIPOS>BOND
     1    13    14    1
     2    14    12    1
     3    12    11    1
     4    11     7    1
     5     7     8    2
     6     7     9   am
     7     9     1    1
     8     1     2   ar
     9     2     3   ar
    10     3     4   ar
    11     4    15    1
    12    15    16    2
    13    15    17   am
    14    17    19    1
    15    19    20   ar
    16    20    21   ar
    17    21    22   ar
    18    22    23   ar
    19     4     5   ar
    20     5     6   ar
    21     6     1   ar
    22    23    19   ar
    23     9    10    1
    24    17    18    1
@<TRIPOS>MOLECULE
*****
 23 24 0 0 0
SMALL
GASTEIGER

@<TRIPOS>ATOM
      1 C           4.3461   -2.4496   20.5150 C.ar    1  UNL1        0.0503
      2 C           3.8693   -2.3734   21.9351 C.ar    1  UNL1        0.0148
      3 C           4.6825   -2.9915   23.0335 C.ar    1  UNL1        0.0058
      4 C           5.9726   -3.6858   22.7119 C.ar    1  UNL1        0.0538
      5 C           6.4495   -3.7620   21.2918 C.ar    1  UNL1        0.0058
      6 C           5.6362   -3.1439   20.1933 C.ar    1  UNL1        0.0148
      7 C           3.7097   -0.3811   19.0776 C.2     1  UNL1        0.2261
      8 O           4.6998    0.4513   19.8371 O.2     1  UNL1       -0.2748
      9 N           3.5329   -1.8315   19.4165 N.am    1  UNL1       -0.2839
     10 H           2.8830   -2.3778   18.9181 H       1  UNL1        0.1549
     11 C           2.8964    0.2370   17.9791 C.3     1  UNL1        0.0854
     12 C           1.5035    0.7190   18.2575 C.3     1  UNL1        0.0096
     13 C           0.3925   -0.0369   20.4810 C.3     1  UNL1        0.0000
     14 C           1.0804    1.0173   19.6653 C.3     1  UNL1        0.0005
     15 C           6.7859   -4.3038   23.8103 C.2     1  UNL1        0.2509
     16 O           8.0728   -5.0036   23.4879 O.2     1  UNL1       -0.2698
     17 N           6.3122   -4.2221   25.2312 N.am    1  UNL1       -0.2606
     18 H           5.4675   -3.7628   25.4428 H       1  UNL1        0.1571
     19 C           7.1255   -4.8402   26.3296 C.ar    1  UNL1        0.1658
     20 N           8.3907   -4.2822   26.9109 N.ar    1  UNL1       -0.2224
     21 C           8.8635   -5.2219   27.9802 C.ar    1  UNL1        0.1079
     22 C           7.8905   -6.3607   28.0598 C.ar    1  UNL1        0.0588
     23 S           6.8163   -6.1249   27.0397 S.2     1  UNL1       -0.0508
@<TRIPOS>BOND
     1    13    14    1
     2    14    12    1
     3    12    11    1
     4    11     7    1
     5     7     8    2
     6     7     9   am
     7     9     1    1
     8     1     2   ar
     9     2     3   ar
    10     3     4   ar
    11     4    15    1
    12    15    16    2
    13    15    17   am
    14    17    19    1
    15    19    20   ar
    16    20    21   ar
    17    21    22   ar
    18    22    23   ar
    19     4     5   ar
    20     5     6   ar
    21     6     1   ar
    22    23    19   ar
    23     9    10    1
    24    17    18    1
@<TRIPOS>MOLECULE
*****
 23 24 0 0 0
SMALL
GASTEIGER

@<TRIPOS>ATOM
      1 C           6.0481   -2.9771   32.4847 C.ar    1  UNL1        0.0503
      2 C           4.6525   -2.9503   33.0339 C.ar    1  UNL1        0.0148
      3 C           4.2307   -1.8454   33.9564 C.ar    1  UNL1        0.0058
      4 C           5.2043   -0.7672   34.3298 C.ar    1  UNL1        0.0538
      5 C           6.5999   -0.7940   33.7806 C.ar    1  UNL1        0.0058
      6 C           7.0218   -1.8990   32.8580 C.ar    1  UNL1        0.0148
      7 C           6.5064   -3.8495   30.0808 C.2     1  UNL1        0.2261
      8 O           6.1210   -2.5118   29.5219 O.2     1  UNL1       -0.2748
      9 N           6.4699   -4.0821   31.5621 N.am    1  UNL1       -0.2839
     10 H           6.7229   -4.9600   31.9289 H       1  UNL1        0.1549
     11 C           6.9283   -4.9544   29.1582 C.3     1  UNL1        0.0854
     12 C           6.6092   -4.8725   27.6948 C.3     1  UNL1        0.0096
     13 C           7.5193   -6.1664   25.6338 C.3     1  UNL1        0.0000
     14 C           6.6423   -6.1112   26.8495 C.3     1  UNL1        0.0005
     15 C           4.7825    0.3378   35.2523 C.2     1  UNL1        0.2509
     16 O           4.9296    1.7682   34.8257 O.2     1  UNL1       -0.2698
     17 N           4.2136    0.0122   36.6015 N.am    1  UNL1       -0.2606
     18 H           4.1170   -0.9266   36.8815 H       1  UNL1        0.1571
     19 C           3.7917    1.1172   37.5241 C.ar    1  UNL1        0.1658
     20 N           2.3870    1.5963   37.7415 N.ar    1  UNL1       -0.2224
     21 C           2.4276    2.7123   38.7429 C.ar    1  UNL1        0.1079
     22 C           3.8574    2.9229   39.1445 C.ar    1  UNL1        0.0588
     23 S           4.7005    1.9371   38.3912 S.2     1  UNL1       -0.0508
@<TRIPOS>BOND
     1    13    14    1
     2    14    12    1
     3    12    11    1
     4    11     7    1
     5     7     8    2
     6     7     9   am
     7     9     1    1
     8     1     2   ar
     9     2     3   ar
    10     3     4   ar
    11     4    15    1
    12    15    16    2
    13    15    17   am
    14    17    19    1
    15    19    20   ar
    16    20    21   ar
    17    21    22   ar
    18    22    23   ar
    19     4     5   ar
    20     5     6   ar
    21     6     1   ar
    22    23    19   ar
    23     9    10    1
    24    17    18    1
