@<TRIPOS>MOLECULE
*****
 25 27 0 0 0
SMALL
GASTEIGER

@<TRIPOS>ATOM
      1 C          -7.0472  -19.2196   22.1283 C.ar    1  UNL1        0.0594
      2 C          -7.8732  -20.3245   22.7173 C.ar    1  UNL1        0.0164
      3 C          -9.3023  -20.0722   23.0965 C.ar    1  UNL1        0.0181
      4 C          -9.9055  -18.7149   22.8866 C.ar    1  UNL1        0.0759
      5 C          -9.0795  -17.6100   22.2977 C.ar    1  UNL1        0.1546
      6 F          -9.6827  -16.2528   22.0878 F       1  UNL1       -0.2028
      7 C          -7.6504  -17.8624   21.9185 C.ar    1  UNL1        0.0459
      8 C          -3.1941  -19.3654   21.6827 C.3     1  UNL1        0.2100
      9 C          -4.4146  -18.8196   22.3628 C.3     1  UNL1        0.1468
     10 N          -5.6180  -19.4720   21.7492 N.am    1  UNL1       -0.2212
     11 C          -5.1412  -20.4209   20.6899 C.2     1  UNL1        0.4088
     12 O          -6.0098  -21.2842   19.8237 O.2     1  UNL1       -0.2258
     13 O          -3.6432  -20.3551   20.6488 O.3     1  UNL1       -0.4345
     14 C          -1.7740  -18.9878   21.9837 C.3     1  UNL1        0.1352
     15 C           0.3564  -16.5304   19.7093 C.3     1  UNL1        0.0946
     16 C          -0.2208  -17.7928   20.2780 C.2     1  UNL1        0.2231
     17 O           0.1783  -19.1224   19.7099 O.2     1  UNL1       -0.2751
     18 N          -1.1969  -17.7255   21.4150 N.am    1  UNL1       -0.3011
     19 H          -1.4588  -16.8528   21.7879 H       1  UNL1        0.1495
     20 N         -11.3347  -18.4626   23.2658 N.pl3   1  UNL1       -0.3010
     21 C         -12.2768  -17.8484   22.2732 C.3     1  UNL1        0.1231
     22 C         -13.7060  -17.5960   22.6524 C.3     1  UNL1        0.1636
     23 O         -14.1931  -17.9579   24.0242 O.3     1  UNL1       -0.3501
     24 C         -13.2510  -18.5721   25.0168 C.3     1  UNL1        0.1636
     25 C         -11.8218  -18.8245   24.6376 C.3     1  UNL1        0.1231
@<TRIPOS>BOND
     1    15    16    1
     2    16    17    2
     3    16    18   am
     4    18    14    1
     5     8    14    1
     6     8     9    1
     7     9    10    1
     8    10     1    1
     9     1     2   ar
    10     2     3   ar
    11     3     4   ar
    12     4    20    1
    13    20    21    1
    14    21    22    1
    15    22    23    1
    16    23    24    1
    17    24    25    1
    18     4     5   ar
    19     5     6    1
    20     5     7   ar
    21    10    11   am
    22    11    12    2
    23    11    13    1
    24    13     8    1
    25     7     1   ar
    26    25    20    1
    27    18    19    1
@<TRIPOS>MOLECULE
*****
 25 27 0 0 0
SMALL
GASTEIGER

@<TRIPOS>ATOM
      1 C          -6.5147  -18.2975   22.6640 C.ar    1  UNL1        0.0594
      2 C          -7.3269  -19.5175   22.3447 C.ar    1  UNL1        0.0164
      3 C          -8.8191  -19.4851   22.4935 C.ar    1  UNL1        0.0181
      4 C          -9.4992  -18.2327   22.9615 C.ar    1  UNL1        0.0759
      5 C          -8.6870  -17.0127   23.2807 C.ar    1  UNL1        0.1546
      6 F          -9.3670  -15.7603   23.7487 F       1  UNL1       -0.2028
      7 C          -7.1948  -17.0451   23.1320 C.ar    1  UNL1        0.0459
      8 C          -2.7968  -18.7988   21.6682 C.3     1  UNL1        0.2100
      9 C          -4.2597  -19.0269   21.4278 C.3     1  UNL1        0.1468
     10 N          -5.0224  -18.3299   22.5152 N.am    1  UNL1       -0.2212
     11 C          -4.0309  -17.6710   23.4277 C.2     1  UNL1        0.4088
     12 O          -4.3575  -16.8640   24.6492 O.2     1  UNL1       -0.2258
     13 O          -2.6554  -17.9608   22.9043 O.3     1  UNL1       -0.4345
     14 C          -1.6727  -19.3176   20.8213 C.3     1  UNL1        0.1352
     15 C          -1.9983  -17.3774   17.3746 C.3     1  UNL1        0.0946
     16 C          -2.0239  -17.6666   18.8463 C.2     1  UNL1        0.2231
     17 O          -2.4263  -16.5939   19.8146 O.2     1  UNL1       -0.2751
     18 N          -1.6471  -19.0284   19.3497 N.am    1  UNL1       -0.3011
     19 H          -1.3830  -19.7324   18.7142 H       1  UNL1        0.1495
     20 N         -10.9915  -18.2003   23.1102 N.pl3   1  UNL1       -0.3010
     21 C         -11.6249  -18.6078   24.4074 C.3     1  UNL1        0.1231
     22 C         -13.1172  -18.5754   24.5561 C.3     1  UNL1        0.1636
     23 O         -13.9760  -18.1355   23.4077 O.3     1  UNL1       -0.3501
     24 C         -13.3425  -17.7280   22.1105 C.3     1  UNL1        0.1636
     25 C         -11.8503  -17.7604   21.9618 C.3     1  UNL1        0.1231
@<TRIPOS>BOND
     1    15    16    1
     2    16    17    2
     3    16    18   am
     4    18    14    1
     5     8    14    1
     6     8     9    1
     7     9    10    1
     8    10     1    1
     9     1     2   ar
    10     2     3   ar
    11     3     4   ar
    12     4    20    1
    13    20    21    1
    14    21    22    1
    15    22    23    1
    16    23    24    1
    17    24    25    1
    18     4     5   ar
    19     5     6    1
    20     5     7   ar
    21    10    11   am
    22    11    12    2
    23    11    13    1
    24    13     8    1
    25     7     1   ar
    26    25    20    1
    27    18    19    1
@<TRIPOS>MOLECULE
*****
 25 27 0 0 0
SMALL
GASTEIGER

@<TRIPOS>ATOM
      1 C          -6.5326  -18.7098   21.2605 C.ar    1  UNL1        0.0594
      2 C          -6.8931  -17.9099   22.4771 C.ar    1  UNL1        0.0164
      3 C          -8.3299  -17.7716   22.8850 C.ar    1  UNL1        0.0181
      4 C          -9.4061  -18.4331   22.0763 C.ar    1  UNL1        0.0759
      5 C          -9.0456  -19.2330   20.8597 C.ar    1  UNL1        0.1546
      6 F         -10.1219  -19.8946   20.0510 F       1  UNL1       -0.2028
      7 C          -7.6089  -19.3714   20.4518 C.ar    1  UNL1        0.0459
      8 C          -3.0237  -18.6675   19.6015 C.3     1  UNL1        0.2100
      9 C          -4.4761  -18.2926   19.6045 C.3     1  UNL1        0.1468
     10 N          -5.0957  -18.8482   20.8525 N.am    1  UNL1       -0.2212
     11 C          -4.0263  -19.5665   21.6208 C.2     1  UNL1        0.4088
     12 O          -4.2058  -20.2725   22.9321 O.2     1  UNL1       -0.2258
     13 O          -2.7457  -19.4548   20.8477 O.3     1  UNL1       -0.4345
     14 C          -2.0248  -18.3167   18.5390 C.3     1  UNL1        0.1352
     15 C           1.3290  -17.2043   20.3459 C.3     1  UNL1        0.0946
     16 C          -0.1268  -17.3111   20.0007 C.2     1  UNL1        0.2231
     17 O          -1.1406  -16.5190   20.7721 O.2     1  UNL1       -0.2751
     18 N          -0.5689  -18.2099   18.8842 N.am    1  UNL1       -0.3011
     19 H           0.0964  -18.7297   18.3779 H       1  UNL1        0.1495
     20 N         -10.8430  -18.2947   22.4843 N.pl3   1  UNL1       -0.3010
     21 C         -11.8571  -17.7922   21.4999 C.3     1  UNL1        0.1231
     22 C         -13.2939  -17.6538   21.9079 C.3     1  UNL1        0.1636
     23 O         -13.7166  -18.0180   23.3003 O.3     1  UNL1       -0.3501
     24 C         -12.7024  -18.5205   24.2847 C.3     1  UNL1        0.1636
     25 C         -11.2657  -18.6589   23.8767 C.3     1  UNL1        0.1231
@<TRIPOS>BOND
     1    15    16    1
     2    16    17    2
     3    16    18   am
     4    18    14    1
     5     8    14    1
     6     8     9    1
     7     9    10    1
     8    10     1    1
     9     1     2   ar
    10     2     3   ar
    11     3     4   ar
    12     4    20    1
    13    20    21    1
    14    21    22    1
    15    22    23    1
    16    23    24    1
    17    24    25    1
    18     4     5   ar
    19     5     6    1
    20     5     7   ar
    21    10    11   am
    22    11    12    2
    23    11    13    1
    24    13     8    1
    25     7     1   ar
    26    25    20    1
    27    18    19    1
@<TRIPOS>MOLECULE
*****
 25 27 0 0 0
SMALL
GASTEIGER

@<TRIPOS>ATOM
      1 C          -7.1380  -19.3807   21.8140 C.ar    1  UNL1        0.0594
      2 C          -7.8837  -18.1774   21.3180 C.ar    1  UNL1        0.0164
      3 C          -9.2740  -17.9018   21.8090 C.ar    1  UNL1        0.0181
      4 C          -9.9185  -18.8293   22.7960 C.ar    1  UNL1        0.0759
      5 C          -9.1728  -20.0326   23.2920 C.ar    1  UNL1        0.1546
      6 F          -9.8173  -20.9601   24.2791 F       1  UNL1       -0.2028
      7 C          -7.7825  -20.3082   22.8010 C.ar    1  UNL1        0.0459
      8 C          -3.3598  -19.4724   20.9294 C.3     1  UNL1        0.2100
      9 C          -4.5285  -18.8344   21.6200 C.3     1  UNL1        0.1468
     10 N          -5.7476  -19.6564   21.3230 N.am    1  UNL1       -0.2212
     11 C          -5.3324  -20.8024   20.4488 C.2     1  UNL1        0.4088
     12 O          -6.2344  -21.8740   19.9122 O.2     1  UNL1       -0.2258
     13 O          -3.8566  -20.6888   20.2056 O.3     1  UNL1       -0.4345
     14 C          -1.9430  -18.9806   20.9576 C.3     1  UNL1        0.1352
     15 C          -1.1012  -17.6034   17.3320 C.3     1  UNL1        0.0946
     16 C          -1.8321  -17.8590   18.6167 C.2     1  UNL1        0.2231
     17 O          -3.1831  -17.2485   18.8453 O.2     1  UNL1       -0.2751
     18 N          -1.2121  -18.7250   19.6729 N.am    1  UNL1       -0.3011
     19 H          -0.3254  -19.1257   19.5229 H       1  UNL1        0.1495
     20 N         -11.3088  -18.5536   23.2870 N.pl3   1  UNL1       -0.3010
     21 C         -12.2984  -17.8687   22.3917 C.3     1  UNL1        0.1231
     22 C         -13.6887  -17.5929   22.8827 C.3     1  UNL1        0.1636
     23 O         -14.0894  -18.0022   24.2691 O.3     1  UNL1       -0.3501
     24 C         -13.0998  -18.6872   25.1644 C.3     1  UNL1        0.1636
     25 C         -11.7096  -18.9629   24.6734 C.3     1  UNL1        0.1231
@<TRIPOS>BOND
     1    15    16    1
     2    16    17    2
     3    16    18   am
     4    18    14    1
     5     8    14    1
     6     8     9    1
     7     9    10    1
     8    10     1    1
     9     1     2   ar
    10     2     3   ar
    11     3     4   ar
    12     4    20    1
    13    20    21    1
    14    21    22    1
    15    22    23    1
    16    23    24    1
    17    24    25    1
    18     4     5   ar
    19     5     6    1
    20     5     7   ar
    21    10    11   am
    22    11    12    2
    23    11    13    1
    24    13     8    1
    25     7     1   ar
    26    25    20    1
    27    18    19    1
@<TRIPOS>MOLECULE
*****
 25 27 0 0 0
SMALL
GASTEIGER

@<TRIPOS>ATOM
      1 C           5.4294   -0.7429   34.1773 C.ar    1  UNL1        0.0594
      2 C           4.4471   -1.7765   33.7118 C.ar    1  UNL1        0.0164
      3 C           4.8308   -2.7422   32.6301 C.ar    1  UNL1        0.0181
      4 C           6.1967   -2.6743   32.0139 C.ar    1  UNL1        0.0759
      5 C           7.1790   -1.6407   32.4794 C.ar    1  UNL1        0.1546
      6 F           8.5449   -1.5729   31.8632 F       1  UNL1       -0.2028
      7 C           6.7953   -0.6750   33.5611 C.ar    1  UNL1        0.0459
      8 C           3.9520    2.0230   36.4649 C.3     1  UNL1        0.2100
      9 C           4.0057    1.2985   35.1526 C.3     1  UNL1        0.1468
     10 N           5.0458    0.2229   35.2591 N.am    1  UNL1       -0.2212
     11 C           5.6350    0.2827   36.6373 C.2     1  UNL1        0.4088
     12 O           6.7112   -0.6128   37.1757 O.2     1  UNL1       -0.2258
     13 O           4.9590    1.3952   37.3825 O.3     1  UNL1       -0.4345
     14 C           3.0498    3.1733   36.8007 C.3     1  UNL1        0.1352
     15 C           0.2457    2.2852   39.4650 C.3     1  UNL1        0.0946
     16 C           1.5928    2.5412   38.8568 C.2     1  UNL1        0.2231
     17 O           2.8299    2.4212   39.6965 O.2     1  UNL1       -0.2751
     18 N           1.7027    2.9173   37.4089 N.am    1  UNL1       -0.3011
     19 H           0.8908    2.9960   36.8577 H       1  UNL1        0.1495
     20 N           6.5803   -3.6401   30.9321 N.pl3   1  UNL1       -0.3010
     21 C           6.5369   -3.2126   29.4950 C.3     1  UNL1        0.1231
     22 C           6.9205   -4.1784   28.4133 C.3     1  UNL1        0.1636
     23 O           7.3475   -5.5717   28.7687 O.3     1  UNL1       -0.3501
     24 C           7.3908   -5.9993   30.2059 C.3     1  UNL1        0.1636
     25 C           7.0072   -5.0335   31.2875 C.3     1  UNL1        0.1231
@<TRIPOS>BOND
     1    15    16    1
     2    16    17    2
     3    16    18   am
     4    18    14    1
     5     8    14    1
     6     8     9    1
     7     9    10    1
     8    10     1    1
     9     1     2   ar
    10     2     3   ar
    11     3     4   ar
    12     4    20    1
    13    20    21    1
    14    21    22    1
    15    22    23    1
    16    23    24    1
    17    24    25    1
    18     4     5   ar
    19     5     6    1
    20     5     7   ar
    21    10    11   am
    22    11    12    2
    23    11    13    1
    24    13     8    1
    25     7     1   ar
    26    25    20    1
    27    18    19    1
@<TRIPOS>MOLECULE
*****
 25 27 0 0 0
SMALL
GASTEIGER

@<TRIPOS>ATOM
      1 C           7.5461   -5.0756   24.7479 C.ar    1  UNL1        0.0594
      2 C           6.4363   -4.0954   24.5083 C.ar    1  UNL1        0.0164
      3 C           6.1732   -3.5844   23.1228 C.ar    1  UNL1        0.0181
      4 C           7.0198   -4.0536   21.9769 C.ar    1  UNL1        0.0759
      5 C           8.1296   -5.0339   22.2166 C.ar    1  UNL1        0.1546
      6 F           8.9763   -5.5031   21.0707 F       1  UNL1       -0.2028
      7 C           8.3927   -5.5448   23.6021 C.ar    1  UNL1        0.0459
      8 C           8.4120   -5.6828   28.4825 C.3     1  UNL1        0.2100
      9 C           8.2839   -4.7703   27.2989 C.3     1  UNL1        0.1468
     10 N           7.8092   -5.5866   26.1335 N.am    1  UNL1       -0.2212
     11 C           7.6439   -7.0037   26.5968 C.2     1  UNL1        0.4088
     12 O           7.1864   -8.1585   25.7560 O.2     1  UNL1       -0.2258
     13 O           8.0164   -7.0631   28.0486 O.3     1  UNL1       -0.4345
     14 C           8.8574   -5.2849   29.8585 C.3     1  UNL1        0.1352
     15 C           6.2601   -3.6393   32.3677 C.3     1  UNL1        0.0946
     16 C           7.0291   -4.6735   31.6002 C.2     1  UNL1        0.2231
     17 O           6.7390   -6.1306   31.8070 O.2     1  UNL1       -0.2751
     18 N           8.0883   -4.2507   30.6260 N.am    1  UNL1       -0.3011
     19 H           8.2788   -3.2943   30.4903 H       1  UNL1        0.1495
     20 N           6.7567   -3.5426   20.5914 N.pl3   1  UNL1       -0.3010
     21 C           7.7395   -2.6206   19.9328 C.3     1  UNL1        0.1231
     22 C           7.4764   -2.1096   18.5472 C.3     1  UNL1        0.1636
     23 O           6.2303   -2.5206   17.8204 O.3     1  UNL1       -0.3501
     24 C           5.2474   -3.4426   18.4791 C.3     1  UNL1        0.1636
     25 C           5.5106   -3.9536   19.8645 C.3     1  UNL1        0.1231
@<TRIPOS>BOND
     1    15    16    1
     2    16    17    2
     3    16    18   am
     4    18    14    1
     5     8    14    1
     6     8     9    1
     7     9    10    1
     8    10     1    1
     9     1     2   ar
    10     2     3   ar
    11     3     4   ar
    12     4    20    1
    13    20    21    1
    14    21    22    1
    15    22    23    1
    16    23    24    1
    17    24    25    1
    18     4     5   ar
    19     5     6    1
    20     5     7   ar
    21    10    11   am
    22    11    12    2
    23    11    13    1
    24    13     8    1
    25     7     1   ar
    26    25    20    1
    27    18    19    1
@<TRIPOS>MOLECULE
*****
 25 27 0 0 0
SMALL
GASTEIGER

@<TRIPOS>ATOM
      1 C           2.5919   -0.0906   19.0793 C.ar    1  UNL1        0.0594
      2 C           1.3609   -0.4327   19.8651 C.ar    1  UNL1        0.0164
      3 C           0.2841    0.5938   20.0566 C.ar    1  UNL1        0.0181
      4 C           0.4383    1.9624   19.4623 C.ar    1  UNL1        0.0759
      5 C           1.6693    2.3045   18.6765 C.ar    1  UNL1        0.1546
      6 F           1.8235    3.6731   18.0823 F       1  UNL1       -0.2028
      7 C           2.7461    1.2780   18.4851 C.ar    1  UNL1        0.0459
      8 C           5.3481   -2.8117   19.3340 C.3     1  UNL1        0.2100
      9 C           4.3376   -1.9066   19.9739 C.3     1  UNL1        0.1468
     10 N           3.6688   -1.1171   18.8878 N.am    1  UNL1       -0.2212
     11 C           4.2661   -1.5344   17.5766 C.2     1  UNL1        0.4088
     12 O           3.8913   -0.9984   16.2267 O.2     1  UNL1       -0.2258
     13 O           5.3039   -2.5817   17.8523 O.3     1  UNL1       -0.4345
     14 C           6.2453   -3.7774   20.0499 C.3     1  UNL1        0.1352
     15 C           6.1567   -3.5630   24.0118 C.3     1  UNL1        0.0946
     16 C           5.7382   -3.8355   22.5973 C.2     1  UNL1        0.2231
     17 O           4.3939   -4.4386   22.3160 O.2     1  UNL1       -0.2751
     18 N           6.6639   -3.5049   21.4643 N.am    1  UNL1       -0.3011
     19 H           7.5462   -3.1090   21.6490 H       1  UNL1        0.1495
     20 N          -0.6386    2.9889   19.6539 N.pl3   1  UNL1       -0.3010
     21 C          -1.1422    3.2994   21.0322 C.3     1  UNL1        0.1231
     22 C          -2.2191    4.3259   21.2238 C.3     1  UNL1        0.1636
     23 O          -2.7924    5.0418   20.0369 O.3     1  UNL1       -0.3501
     24 C          -2.2888    4.7313   18.6584 C.3     1  UNL1        0.1636
     25 C          -1.2119    3.7048   18.4670 C.3     1  UNL1        0.1231
@<TRIPOS>BOND
     1    15    16    1
     2    16    17    2
     3    16    18   am
     4    18    14    1
     5     8    14    1
     6     8     9    1
     7     9    10    1
     8    10     1    1
     9     1     2   ar
    10     2     3   ar
    11     3     4   ar
    12     4    20    1
    13    20    21    1
    14    21    22    1
    15    22    23    1
    16    23    24    1
    17    24    25    1
    18     4     5   ar
    19     5     6    1
    20     5     7   ar
    21    10    11   am
    22    11    12    2
    23    11    13    1
    24    13     8    1
    25     7     1   ar
    26    25    20    1
    27    18    19    1
@<TRIPOS>MOLECULE
*****
 25 27 0 0 0
SMALL
GASTEIGER

@<TRIPOS>ATOM
      1 C           7.5435   -5.0585   24.7470 C.ar    1  UNL1        0.0594
      2 C           8.4382   -5.4641   23.6135 C.ar    1  UNL1        0.0164
      3 C           8.1676   -4.9597   22.2270 C.ar    1  UNL1        0.0181
      4 C           7.0023   -4.0498   21.9741 C.ar    1  UNL1        0.0759
      5 C           6.1075   -3.6442   23.1076 C.ar    1  UNL1        0.1546
      6 F           4.9422   -2.7342   22.8547 F       1  UNL1       -0.2028
      7 C           6.3782   -4.1485   24.4941 C.ar    1  UNL1        0.0459
      8 C           8.4244   -5.6467   28.4812 C.3     1  UNL1        0.2100
      9 C           8.2868   -4.7393   27.2947 C.3     1  UNL1        0.1468
     10 N           7.8141   -5.5629   26.1336 N.am    1  UNL1       -0.2212
     11 C           7.6596   -6.9793   26.6023 C.2     1  UNL1        0.4088
     12 O           7.2073   -8.1401   25.7670 O.2     1  UNL1       -0.2258
     13 O           8.0367   -7.0311   28.0532 O.3     1  UNL1       -0.4345
     14 C           8.8711   -5.2409   29.8544 C.3     1  UNL1        0.1352
     15 C           6.2530   -3.6159   32.3554 C.3     1  UNL1        0.0946
     16 C           7.0296   -4.6439   31.5872 C.2     1  UNL1        0.2231
     17 O           6.7415   -6.1028   31.7835 O.2     1  UNL1       -0.2751
     18 N           8.0945   -4.2130   30.6226 N.am    1  UNL1       -0.3011
     19 H           8.2836   -3.2555   30.4937 H       1  UNL1        0.1495
     20 N           6.7317   -3.5454   20.5875 N.pl3   1  UNL1       -0.3010
     21 C           5.4865   -3.9676   19.8655 C.3     1  UNL1        0.1231
     22 C           5.2159   -3.4633   18.4790 C.3     1  UNL1        0.1636
     23 O           6.1905   -2.5366   17.8145 O.3     1  UNL1       -0.3501
     24 C           7.4357   -2.1144   18.5365 C.3     1  UNL1        0.1636
     25 C           7.7063   -2.6188   19.9230 C.3     1  UNL1        0.1231
@<TRIPOS>BOND
     1    15    16    1
     2    16    17    2
     3    16    18   am
     4    18    14    1
     5     8    14    1
     6     8     9    1
     7     9    10    1
     8    10     1    1
     9     1     2   ar
    10     2     3   ar
    11     3     4   ar
    12     4    20    1
    13    20    21    1
    14    21    22    1
    15    22    23    1
    16    23    24    1
    17    24    25    1
    18     4     5   ar
    19     5     6    1
    20     5     7   ar
    21    10    11   am
    22    11    12    2
    23    11    13    1
    24    13     8    1
    25     7     1   ar
    26    25    20    1
    27    18    19    1
@<TRIPOS>MOLECULE
*****
 25 27 0 0 0
SMALL
GASTEIGER

@<TRIPOS>ATOM
      1 C          -7.4459  -19.1185   22.3860 C.ar    1  UNL1        0.0594
      2 C          -6.5520  -17.9985   22.8291 C.ar    1  UNL1        0.0164
      3 C          -5.1663  -17.8779   22.2676 C.ar    1  UNL1        0.0181
      4 C          -4.6745  -18.8773   21.2630 C.ar    1  UNL1        0.0759
      5 C          -5.5684  -19.9974   20.8199 C.ar    1  UNL1        0.1546
      6 F          -5.0766  -20.9968   19.8152 F       1  UNL1       -0.2028
      7 C          -6.9541  -20.1180   21.3814 C.ar    1  UNL1        0.0459
      8 C         -11.1572  -18.7843   23.4724 C.3     1  UNL1        0.2100
      9 C          -9.9587  -18.2738   22.7289 C.3     1  UNL1        0.1468
     10 N          -8.8316  -19.2392   22.9475 N.am    1  UNL1       -0.2212
     11 C          -9.3336  -20.3464   23.8261 C.2     1  UNL1        0.4088
     12 O          -8.5381  -21.5274   24.2976 O.2     1  UNL1       -0.2258
     13 O         -10.7709  -20.0653   24.1506 O.3     1  UNL1       -0.4345
     14 C         -12.5053  -18.1290   23.5280 C.3     1  UNL1        0.1352
     15 C         -12.9237  -15.8012   20.3411 C.3     1  UNL1        0.0946
     16 C         -12.6395  -17.0052   21.1894 C.2     1  UNL1        0.2231
     17 O         -12.2052  -18.2894   20.5474 O.2     1  UNL1       -0.2751
     18 N         -12.7895  -16.9250   22.6797 N.am    1  UNL1       -0.3011
     19 H         -13.0746  -16.0821   23.1010 H       1  UNL1        0.1495
     20 N          -3.2888  -18.7567   20.7015 N.pl3   1  UNL1       -0.3010
     21 C          -2.1031  -19.1161   21.5470 C.3     1  UNL1        0.1231
     22 C          -0.7173  -18.9954   20.9855 C.3     1  UNL1        0.1636
     23 O          -0.5174  -18.5153   19.5785 O.3     1  UNL1       -0.3501
     24 C          -1.7032  -18.1559   18.7330 C.3     1  UNL1        0.1636
     25 C          -3.0888  -18.2766   19.2945 C.3     1  UNL1        0.1231
@<TRIPOS>BOND
     1    15    16    1
     2    16    17    2
     3    16    18   am
     4    18    14    1
     5     8    14    1
     6     8     9    1
     7     9    10    1
     8    10     1    1
     9     1     2   ar
    10     2     3   ar
    11     3     4   ar
    12     4    20    1
    13    20    21    1
    14    21    22    1
    15    22    23    1
    16    23    24    1
    17    24    25    1
    18     4     5   ar
    19     5     6    1
    20     5     7   ar
    21    10    11   am
    22    11    12    2
    23    11    13    1
    24    13     8    1
    25     7     1   ar
    26    25    20    1
    27    18    19    1
