@<TRIPOS>MOLECULE
*****
 27 30 0 0 0
SMALL
GASTEIGER

@<TRIPOS>ATOM
      1 C          -9.5542  -17.6626   22.7402 C.ar    1  UNL1        0.0070
      2 C          -8.5323  -16.8039   23.4245 C.ar    1  UNL1       -0.0017
      3 C          -7.0707  -17.0869   23.2406 C.ar    1  UNL1       -0.0005
      4 C          -6.6312  -18.2284   22.3725 C.ar    1  UNL1       -0.0022
      5 C          -5.1695  -18.5113   22.1887 C.ar    1  UNL1        0.0021
      6 C          -4.7300  -19.6529   21.3206 C.ar    1  UNL1        0.0512
      7 C          -5.7520  -20.5115   20.6363 C.ar    1  UNL1        0.0043
      8 C          -7.2136  -20.2286   20.8201 C.ar    1  UNL1        0.0001
      9 C          -7.6531  -19.0870   21.6882 C.ar    1  UNL1       -0.0005
     10 C          -9.1147  -18.8041   21.8720 C.ar    1  UNL1       -0.0017
     11 C          -3.2304  -19.6895   21.3272 C.2     1  UNL1        0.2491
     12 O          -2.3693  -20.6725   20.5908 O.2     1  UNL1       -0.2699
     13 N          -2.7433  -18.5706   22.1993 N.am    1  UNL1       -0.2702
     14 C          -1.3094  -18.2382   22.4883 C.3     1  UNL1        0.1155
     15 C          -3.9417  -17.8425   22.7318 C.3     1  UNL1        0.1206
     16 C         -11.0158  -17.3797   22.9240 C.3     1  UNL1        0.1410
     17 O         -10.9398  -17.8995   24.3289 O.3     1  UNL1       -0.3771
     18 H         -10.0868  -17.6528   24.7192 H       1  UNL1        0.2112
     19 C         -11.0919  -16.8598   21.5190 C.ar    1  UNL1        0.0825
     20 C         -11.8558  -17.4830   20.3885 C.ar    1  UNL1        0.1157
     21 N         -11.6534  -16.6338   19.1685 N.ar    1  UNL1       -0.2228
     22 C         -10.7643  -15.4859   19.5452 C.ar    1  UNL1        0.1749
     23 N         -10.4172  -15.6256   20.9978 N.ar    1  UNL1       -0.3361
     24 H          -9.8469  -15.0144   21.5178 H       1  UNL1        0.1673
     25 C         -13.0404  -15.7664   22.7038 C.3     1  UNL1        0.0031
     26 C         -12.4774  -17.0967   23.1077 C.3     1  UNL1        0.0340
     27 C         -13.3760  -18.1442   23.6954 C.3     1  UNL1        0.0031
@<TRIPOS>BOND
     1    25    26    1
     2    26    27    1
     3    26    16    1
     4    16    17    1
     5    16     1    1
     6     1     2   ar
     7     2     3   ar
     8     3     4   ar
     9     4     5   ar
    10     5     6   ar
    11     6     7   ar
    12     7     8   ar
    13     8     9   ar
    14     9    10   ar
    15     6    11    1
    16    11    12    2
    17    11    13   am
    18    13    14    1
    19    13    15    1
    20    16    19    1
    21    19    20   ar
    22    20    21   ar
    23    21    22   ar
    24    22    23   ar
    25    10     1   ar
    26    23    19   ar
    27     9     4   ar
    28    15     5    1
    29    17    18    1
    30    23    24    1
@<TRIPOS>MOLECULE
*****
 27 30 0 0 0
SMALL
GASTEIGER

@<TRIPOS>ATOM
      1 C         -10.0549  -18.3500   23.0151 C.ar    1  UNL1        0.0070
      2 C          -9.4451  -19.5369   22.3299 C.ar    1  UNL1       -0.0017
      3 C          -7.9599  -19.6075   22.1321 C.ar    1  UNL1       -0.0005
      4 C          -7.0845  -18.4913   22.6196 C.ar    1  UNL1       -0.0022
      5 C          -5.5992  -18.5620   22.4218 C.ar    1  UNL1        0.0021
      6 C          -4.7237  -17.4458   22.9093 C.ar    1  UNL1        0.0512
      7 C          -5.3335  -16.2589   23.5946 C.ar    1  UNL1        0.0043
      8 C          -6.8187  -16.1883   23.7923 C.ar    1  UNL1        0.0001
      9 C          -7.6942  -17.3045   23.3048 C.ar    1  UNL1       -0.0005
     10 C          -9.1794  -17.2338   23.5026 C.ar    1  UNL1       -0.0017
     11 C          -3.3029  -17.7914   22.5751 C.2     1  UNL1        0.2491
     12 O          -2.0965  -16.9541   22.8812 O.2     1  UNL1       -0.2699
     13 N          -3.3002  -19.1211   21.8811 N.am    1  UNL1       -0.2702
     14 C          -2.0907  -19.8471   21.3713 C.3     1  UNL1        0.1155
     15 C          -4.7194  -19.5974   21.7864 C.3     1  UNL1        0.1206
     16 C         -11.5401  -18.2794   23.2129 C.3     1  UNL1        0.1410
     17 O         -11.3981  -18.9811   24.5309 O.3     1  UNL1       -0.3771
     18 H         -10.5820  -18.6890   24.9664 H       1  UNL1        0.2112
     19 C         -11.6822  -17.5776   21.8948 C.ar    1  UNL1        0.0825
     20 C         -11.5666  -18.2128   20.5408 C.ar    1  UNL1        0.1157
     21 N         -11.7778  -17.1451   19.5084 N.ar    1  UNL1       -0.2228
     22 C         -12.0239  -15.8502   20.2244 C.ar    1  UNL1        0.1749
     23 N         -11.9649  -16.1175   21.6992 N.ar    1  UNL1       -0.3361
     24 H         -12.0897  -15.4515   22.4135 H       1  UNL1        0.1673
     25 C         -13.9424  -18.2438   22.2241 C.3     1  UNL1        0.0031
     26 C         -13.0253  -18.2087   23.4106 C.3     1  UNL1        0.0340
     27 C         -13.5935  -18.1028   24.7948 C.3     1  UNL1        0.0031
@<TRIPOS>BOND
     1    25    26    1
     2    26    27    1
     3    26    16    1
     4    16    17    1
     5    16     1    1
     6     1     2   ar
     7     2     3   ar
     8     3     4   ar
     9     4     5   ar
    10     5     6   ar
    11     6     7   ar
    12     7     8   ar
    13     8     9   ar
    14     9    10   ar
    15     6    11    1
    16    11    12    2
    17    11    13   am
    18    13    14    1
    19    13    15    1
    20    16    19    1
    21    19    20   ar
    22    20    21   ar
    23    21    22   ar
    24    22    23   ar
    25    10     1   ar
    26    23    19   ar
    27     9     4   ar
    28    15     5    1
    29    17    18    1
    30    23    24    1
@<TRIPOS>MOLECULE
*****
 27 30 0 0 0
SMALL
GASTEIGER

@<TRIPOS>ATOM
      1 C         -12.1940   -2.8570   18.7472 C.ar    1  UNL1        0.0070
      2 C         -13.3479   -3.3183   19.5873 C.ar    1  UNL1       -0.0017
      3 C         -14.4976   -2.3929   19.8553 C.ar    1  UNL1       -0.0005
      4 C         -14.4934   -1.0063   19.2833 C.ar    1  UNL1       -0.0022
      5 C         -15.6432   -0.0809   19.5514 C.ar    1  UNL1        0.0021
      6 C         -15.6390    1.3057   18.9794 C.ar    1  UNL1        0.0512
      7 C         -14.4851    1.7670   18.1393 C.ar    1  UNL1        0.0043
      8 C         -13.3354    0.8417   17.8712 C.ar    1  UNL1        0.0001
      9 C         -13.3395   -0.5450   18.4432 C.ar    1  UNL1       -0.0005
     10 C         -12.1898   -1.4703   18.1752 C.ar    1  UNL1       -0.0017
     11 C         -16.9026    1.9890   19.4112 C.2     1  UNL1        0.2491
     12 O         -17.3096    3.3906   19.0648 O.2     1  UNL1       -0.2699
     13 N         -17.6877    1.0247   20.2500 N.am    1  UNL1       -0.2702
     14 C         -19.0176    1.2926   20.8898 C.3     1  UNL1        0.1155
     15 C         -16.9094   -0.2546   20.3367 C.3     1  UNL1        0.1206
     16 C         -11.0442   -3.7823   18.4791 C.3     1  UNL1        0.1410
     17 O         -10.1300   -2.8660   19.2369 O.3     1  UNL1       -0.3771
     18 H         -10.6073   -2.4826   19.9893 H       1  UNL1        0.2112
     19 C         -11.9585   -4.6987   17.7213 C.ar    1  UNL1        0.0825
     20 C         -12.5282   -4.4453   16.3570 C.ar    1  UNL1        0.1157
     21 N         -13.3855   -5.6194   15.9872 N.ar    1  UNL1       -0.2228
     22 C         -13.3456   -6.5985   17.1230 C.ar    1  UNL1        0.1749
     23 N         -12.4637   -6.0295   18.1947 N.ar    1  UNL1       -0.3361
     24 H         -12.2534   -6.4547   19.0573 H       1  UNL1        0.1673
     25 C          -9.1448   -4.6164   16.9150 C.3     1  UNL1        0.0031
     26 C          -9.8946   -4.7077   18.2110 C.3     1  UNL1        0.0340
     27 C          -9.4946   -5.7244   19.2388 C.3     1  UNL1        0.0031
@<TRIPOS>BOND
     1    25    26    1
     2    26    27    1
     3    26    16    1
     4    16    17    1
     5    16     1    1
     6     1     2   ar
     7     2     3   ar
     8     3     4   ar
     9     4     5   ar
    10     5     6   ar
    11     6     7   ar
    12     7     8   ar
    13     8     9   ar
    14     9    10   ar
    15     6    11    1
    16    11    12    2
    17    11    13   am
    18    13    14    1
    19    13    15    1
    20    16    19    1
    21    19    20   ar
    22    20    21   ar
    23    21    22   ar
    24    22    23   ar
    25    10     1   ar
    26    23    19   ar
    27     9     4   ar
    28    15     5    1
    29    17    18    1
    30    23    24    1
@<TRIPOS>MOLECULE
*****
 27 30 0 0 0
SMALL
GASTEIGER

@<TRIPOS>ATOM
      1 C          -7.8206  -19.1817   22.4272 C.ar    1  UNL1        0.0070
      2 C          -7.2302  -17.8687   22.8483 C.ar    1  UNL1       -0.0017
      3 C          -5.8183  -17.5270   22.4746 C.ar    1  UNL1       -0.0005
      4 C          -4.9968  -18.4983   21.6798 C.ar    1  UNL1       -0.0022
      5 C          -3.5848  -18.1565   21.3061 C.ar    1  UNL1        0.0021
      6 C          -2.7633  -19.1278   20.5113 C.ar    1  UNL1        0.0512
      7 C          -3.3538  -20.4409   20.0901 C.ar    1  UNL1        0.0043
      8 C          -4.7657  -20.7826   20.4638 C.ar    1  UNL1        0.0001
      9 C          -5.5872  -19.8113   21.2586 C.ar    1  UNL1       -0.0005
     10 C          -6.9991  -20.1530   21.6323 C.ar    1  UNL1       -0.0017
     11 C          -1.4099  -18.5193   20.2917 C.2     1  UNL1        0.2491
     12 O          -0.2714  -19.1479   19.5442 O.2     1  UNL1       -0.2699
     13 N          -1.3951  -17.1721   20.9508 N.am    1  UNL1       -0.2702
     14 C          -0.2390  -16.2167   20.9782 C.3     1  UNL1        0.1155
     15 C          -2.7391  -16.9478   21.5778 C.3     1  UNL1        0.1206
     16 C          -9.2326  -19.5234   22.8008 C.3     1  UNL1        0.1410
     17 O          -8.7325  -20.6381   23.6711 O.3     1  UNL1       -0.3771
     18 H          -7.9025  -20.3698   24.0951 H       1  UNL1        0.2112
     19 C          -9.7327  -18.4087   21.9306 C.ar    1  UNL1        0.0825
     20 C          -9.8560  -18.4443   20.4361 C.ar    1  UNL1        0.1157
     21 N         -10.3968  -17.1202   19.9839 N.ar    1  UNL1       -0.2228
     22 C         -10.6077  -16.2663   21.1991 C.ar    1  UNL1        0.1749
     23 N         -10.1972  -17.0626   22.4021 N.ar    1  UNL1       -0.3361
     24 H         -10.2275  -16.7556   23.3371 H       1  UNL1        0.1673
     25 C         -11.1439  -19.5794   24.5598 C.3     1  UNL1        0.0031
     26 C         -10.6445  -19.8651   23.1745 C.3     1  UNL1        0.0340
     27 C         -11.5572  -20.4926   22.1628 C.3     1  UNL1        0.0031
@<TRIPOS>BOND
     1    25    26    1
     2    26    27    1
     3    26    16    1
     4    16    17    1
     5    16     1    1
     6     1     2   ar
     7     2     3   ar
     8     3     4   ar
     9     4     5   ar
    10     5     6   ar
    11     6     7   ar
    12     7     8   ar
    13     8     9   ar
    14     9    10   ar
    15     6    11    1
    16    11    12    2
    17    11    13   am
    18    13    14    1
    19    13    15    1
    20    16    19    1
    21    19    20   ar
    22    20    21   ar
    23    21    22   ar
    24    22    23   ar
    25    10     1   ar
    26    23    19   ar
    27     9     4   ar
    28    15     5    1
    29    17    18    1
    30    23    24    1
@<TRIPOS>MOLECULE
*****
 27 30 0 0 0
SMALL
GASTEIGER

@<TRIPOS>ATOM
      1 C         -13.0327   -5.9913   18.0955 C.ar    1  UNL1        0.0070
      2 C         -13.6189   -5.9972   19.4762 C.ar    1  UNL1       -0.0017
      3 C         -15.0009   -6.5348   19.7019 C.ar    1  UNL1       -0.0005
      4 C         -15.7967   -7.0664   18.5469 C.ar    1  UNL1       -0.0022
      5 C         -17.1788   -7.6040   18.7727 C.ar    1  UNL1        0.0021
      6 C         -17.9747   -8.1356   17.6177 C.ar    1  UNL1        0.0512
      7 C         -17.3884   -8.1297   16.2370 C.ar    1  UNL1        0.0043
      8 C         -16.0064   -7.5921   16.0113 C.ar    1  UNL1        0.0001
      9 C         -15.2106   -7.0605   17.1663 C.ar    1  UNL1       -0.0005
     10 C         -13.8285   -6.5229   16.9406 C.ar    1  UNL1       -0.0017
     11 C         -19.3014   -8.5984   18.1429 C.2     1  UNL1        0.2491
     12 O         -20.4094   -9.2009   17.3310 O.2     1  UNL1       -0.2699
     13 N         -19.3254   -8.3527   19.6224 N.am    1  UNL1       -0.2702
     14 C         -20.4618   -8.6665   20.5498 C.3     1  UNL1        0.1155
     15 C         -18.0137   -7.7382   20.0117 C.3     1  UNL1        0.1206
     16 C         -11.6506   -5.4537   17.8698 C.3     1  UNL1        0.1410
     17 O         -11.1439   -6.8483   17.6505 O.3     1  UNL1       -0.3771
     18 H         -11.8177   -7.3676   17.1845 H       1  UNL1        0.2112
     19 C         -12.1573   -4.0590   18.0891 C.ar    1  UNL1        0.0825
     20 C         -13.0268   -3.2787   17.1483 C.ar    1  UNL1        0.1157
     21 N         -13.2904   -1.9372   17.7655 N.ar    1  UNL1       -0.2228
     22 C         -12.5837   -1.8884   19.0878 C.ar    1  UNL1        0.1749
     23 N         -11.8835   -3.1997   19.2878 N.ar    1  UNL1       -0.3361
     24 H         -11.3396   -3.4521   20.0686 H       1  UNL1        0.1673
     25 C          -9.2519   -4.9746   18.7454 C.3     1  UNL1        0.0031
     26 C         -10.2686   -4.9161   17.6441 C.3     1  UNL1        0.0340
     27 C          -9.9032   -4.3199   16.3169 C.3     1  UNL1        0.0031
@<TRIPOS>BOND
     1    25    26    1
     2    26    27    1
     3    26    16    1
     4    16    17    1
     5    16     1    1
     6     1     2   ar
     7     2     3   ar
     8     3     4   ar
     9     4     5   ar
    10     5     6   ar
    11     6     7   ar
    12     7     8   ar
    13     8     9   ar
    14     9    10   ar
    15     6    11    1
    16    11    12    2
    17    11    13   am
    18    13    14    1
    19    13    15    1
    20    16    19    1
    21    19    20   ar
    22    20    21   ar
    23    21    22   ar
    24    22    23   ar
    25    10     1   ar
    26    23    19   ar
    27     9     4   ar
    28    15     5    1
    29    17    18    1
    30    23    24    1
@<TRIPOS>MOLECULE
*****
 27 30 0 0 0
SMALL
GASTEIGER

@<TRIPOS>ATOM
      1 C         -13.0900   -5.5299   17.9666 C.ar    1  UNL1        0.0070
      2 C         -13.5665   -5.6859   19.3803 C.ar    1  UNL1       -0.0017
      3 C         -14.8654   -6.3812   19.6615 C.ar    1  UNL1       -0.0005
      4 C         -15.6879   -6.9206   18.5290 C.ar    1  UNL1       -0.0022
      5 C         -16.9870   -7.6160   18.8102 C.ar    1  UNL1        0.0021
      6 C         -17.8095   -8.1554   17.6777 C.ar    1  UNL1        0.0512
      7 C         -17.3329   -7.9993   16.2639 C.ar    1  UNL1        0.0043
      8 C         -16.0340   -7.3039   15.9828 C.ar    1  UNL1        0.0001
      9 C         -15.2115   -6.7646   17.1153 C.ar    1  UNL1       -0.0005
     10 C         -13.9125   -6.0692   16.8341 C.ar    1  UNL1       -0.0017
     11 C         -19.0385   -8.7895   18.2584 C.2     1  UNL1        0.2491
     12 O         -20.1375   -9.4544   17.4837 O.2     1  UNL1       -0.2699
     13 N         -18.9756   -8.6421   19.7498 N.am    1  UNL1       -0.2702
     14 C         -20.0007   -9.1336   20.7283 C.3     1  UNL1        0.1155
     15 C         -17.7077   -7.9168   20.0908 C.3     1  UNL1        0.1206
     16 C         -11.7910   -4.8345   17.6854 C.3     1  UNL1        0.1410
     17 O         -12.5281   -3.5471   17.4634 O.3     1  UNL1       -0.3771
     18 H         -13.2751   -3.4919   18.0797 H       1  UNL1        0.2112
     19 C         -11.0538   -6.1218   17.9073 C.ar    1  UNL1        0.0825
     20 C         -11.1299   -7.3425   17.0388 C.ar    1  UNL1        0.1157
     21 N         -10.2342   -8.3897   17.6315 N.ar    1  UNL1       -0.2228
     22 C          -9.6046   -7.8162   18.8664 C.ar    1  UNL1        0.1749
     23 N         -10.1111   -6.4147   19.0368 N.ar    1  UNL1       -0.3361
     24 H          -9.8676   -5.7956   19.7626 H       1  UNL1        0.1673
     25 C          -9.9281   -3.1712   18.4017 C.3     1  UNL1        0.0031
     26 C         -10.4920   -4.1392   17.4042 C.3     1  UNL1        0.0340
     27 C          -9.7568   -4.4118   16.1254 C.3     1  UNL1        0.0031
@<TRIPOS>BOND
     1    25    26    1
     2    26    27    1
     3    26    16    1
     4    16    17    1
     5    16     1    1
     6     1     2   ar
     7     2     3   ar
     8     3     4   ar
     9     4     5   ar
    10     5     6   ar
    11     6     7   ar
    12     7     8   ar
    13     8     9   ar
    14     9    10   ar
    15     6    11    1
    16    11    12    2
    17    11    13   am
    18    13    14    1
    19    13    15    1
    20    16    19    1
    21    19    20   ar
    22    20    21   ar
    23    21    22   ar
    24    22    23   ar
    25    10     1   ar
    26    23    19   ar
    27     9     4   ar
    28    15     5    1
    29    17    18    1
    30    23    24    1
@<TRIPOS>MOLECULE
*****
 27 30 0 0 0
SMALL
GASTEIGER

@<TRIPOS>ATOM
      1 C          -9.0710  -17.5547   21.9728 C.ar    1  UNL1        0.0070
      2 C          -8.1129  -16.7101   22.7594 C.ar    1  UNL1       -0.0017
      3 C          -6.6461  -17.0226   22.7385 C.ar    1  UNL1       -0.0005
      4 C          -6.1372  -18.1797   21.9309 C.ar    1  UNL1       -0.0022
      5 C          -4.6702  -18.4922   21.9100 C.ar    1  UNL1        0.0021
      6 C          -4.1613  -19.6493   21.1024 C.ar    1  UNL1        0.0512
      7 C          -5.1194  -20.4939   20.3157 C.ar    1  UNL1        0.0043
      8 C          -6.5863  -20.1814   20.3367 C.ar    1  UNL1        0.0001
      9 C          -7.0952  -19.0243   21.1442 C.ar    1  UNL1       -0.0005
     10 C          -8.5621  -18.7117   21.1652 C.ar    1  UNL1       -0.0017
     11 C          -2.6725  -19.7147   21.2733 C.2     1  UNL1        0.2491
     12 O          -1.7559  -20.7203   20.6419 O.2     1  UNL1       -0.2699
     13 N          -2.2613  -18.5981   22.1865 N.am    1  UNL1       -0.2702
     14 C          -0.8613  -18.2910   22.6286 C.3     1  UNL1        0.1155
     15 C          -3.4959  -17.8426   22.5800 C.3     1  UNL1        0.1206
     16 C         -10.5380  -17.2421   21.9937 C.3     1  UNL1        0.1410
     17 O         -10.3365  -16.2239   20.9109 O.3     1  UNL1       -0.3771
     18 H          -9.6591  -16.5392   20.2924 H       1  UNL1        0.2112
     19 C         -10.7394  -18.2604   23.0764 C.ar    1  UNL1        0.0825
     20 C         -11.0171  -19.7204   22.8732 C.ar    1  UNL1        0.1157
     21 N         -11.1479  -20.3599   24.2238 N.ar    1  UNL1       -0.2228
     22 C         -10.9509  -19.2950   25.2618 C.ar    1  UNL1        0.1749
     23 N         -10.6985  -17.9975   24.5527 N.ar    1  UNL1       -0.3361
     24 H         -10.5347  -17.1263   24.9810 H       1  UNL1        0.1673
     25 C         -12.5072  -15.7387   22.7757 C.3     1  UNL1        0.0031
     26 C         -12.0049  -16.9297   22.0146 C.3     1  UNL1        0.0340
     27 C         -12.9695  -17.8082   21.2744 C.3     1  UNL1        0.0031
@<TRIPOS>BOND
     1    25    26    1
     2    26    27    1
     3    26    16    1
     4    16    17    1
     5    16     1    1
     6     1     2   ar
     7     2     3   ar
     8     3     4   ar
     9     4     5   ar
    10     5     6   ar
    11     6     7   ar
    12     7     8   ar
    13     8     9   ar
    14     9    10   ar
    15     6    11    1
    16    11    12    2
    17    11    13   am
    18    13    14    1
    19    13    15    1
    20    16    19    1
    21    19    20   ar
    22    20    21   ar
    23    21    22   ar
    24    22    23   ar
    25    10     1   ar
    26    23    19   ar
    27     9     4   ar
    28    15     5    1
    29    17    18    1
    30    23    24    1
@<TRIPOS>MOLECULE
*****
 27 30 0 0 0
SMALL
GASTEIGER

@<TRIPOS>ATOM
      1 C           3.6034   -1.8507   20.9979 C.ar    1  UNL1        0.0070
      2 C           3.7887   -1.4191   22.4224 C.ar    1  UNL1       -0.0017
      3 C           2.9267   -0.3336   22.9954 C.ar    1  UNL1       -0.0005
      4 C           1.8793    0.3205   22.1438 C.ar    1  UNL1       -0.0022
      5 C           1.0173    1.4061   22.7169 C.ar    1  UNL1        0.0021
      6 C          -0.0301    2.0602   21.8653 C.ar    1  UNL1        0.0512
      7 C          -0.2155    1.6286   20.4407 C.ar    1  UNL1        0.0043
      8 C           0.6466    0.5430   19.8677 C.ar    1  UNL1        0.0001
      9 C           1.6939   -0.1111   20.7193 C.ar    1  UNL1       -0.0005
     10 C           2.5560   -1.1967   20.1463 C.ar    1  UNL1       -0.0017
     11 C          -0.7254    3.0954   22.6990 C.2     1  UNL1        0.2491
     12 O          -1.8422    3.9881   22.2454 O.2     1  UNL1       -0.2699
     13 N          -0.1076    3.0811   24.0657 N.am    1  UNL1       -0.2702
     14 C          -0.4983    3.9570   25.2190 C.3     1  UNL1        0.1155
     15 C           0.9693    2.0371   24.0768 C.3     1  UNL1        0.1206
     16 C           4.4654   -2.9364   20.4249 C.3     1  UNL1        0.1410
     17 O           3.9208   -3.9021   21.4351 O.3     1  UNL1       -0.3771
     18 H           2.9827   -3.7115   21.5916 H       1  UNL1        0.2112
     19 C           5.0101   -1.9706   19.4146 C.ar    1  UNL1        0.0825
     20 C           4.7426   -1.9940   17.9389 C.ar    1  UNL1        0.1157
     21 N           5.4851   -0.8497   17.3149 N.ar    1  UNL1       -0.2228
     22 C           6.2115   -0.1190   18.4051 C.ar    1  UNL1        0.1749
     23 N           5.9179   -0.8117   19.7028 N.ar    1  UNL1       -0.3361
     24 H           6.2609   -0.5515   20.5882 H       1  UNL1        0.1673
     25 C           4.7343   -5.0383   18.9217 C.3     1  UNL1        0.0031
     26 C           5.3275   -4.0219   19.8518 C.3     1  UNL1        0.0340
     27 C           6.7828   -4.0911   20.2089 C.3     1  UNL1        0.0031
@<TRIPOS>BOND
     1    25    26    1
     2    26    27    1
     3    26    16    1
     4    16    17    1
     5    16     1    1
     6     1     2   ar
     7     2     3   ar
     8     3     4   ar
     9     4     5   ar
    10     5     6   ar
    11     6     7   ar
    12     7     8   ar
    13     8     9   ar
    14     9    10   ar
    15     6    11    1
    16    11    12    2
    17    11    13   am
    18    13    14    1
    19    13    15    1
    20    16    19    1
    21    19    20   ar
    22    20    21   ar
    23    21    22   ar
    24    22    23   ar
    25    10     1   ar
    26    23    19   ar
    27     9     4   ar
    28    15     5    1
    29    17    18    1
    30    23    24    1
@<TRIPOS>MOLECULE
*****
 27 30 0 0 0
SMALL
GASTEIGER

@<TRIPOS>ATOM
      1 C           3.5070   -1.8890   20.7598 C.ar    1  UNL1        0.0070
      2 C           2.5675   -1.2068   19.8101 C.ar    1  UNL1       -0.0017
      3 C           1.6536   -0.1258   20.3062 C.ar    1  UNL1       -0.0005
      4 C           1.6792    0.2730   21.7520 C.ar    1  UNL1       -0.0022
      5 C           0.7652    1.3541   22.2480 C.ar    1  UNL1        0.0021
      6 C           0.7907    1.7529   23.6938 C.ar    1  UNL1        0.0512
      7 C           1.7302    1.0706   24.6435 C.ar    1  UNL1        0.0043
      8 C           2.6441   -0.0104   24.1475 C.ar    1  UNL1        0.0001
      9 C           2.6186   -0.4092   22.7017 C.ar    1  UNL1       -0.0005
     10 C           3.5325   -1.4902   22.2056 C.ar    1  UNL1       -0.0017
     11 C          -0.2191    2.8443   23.8914 C.2     1  UNL1        0.2491
     12 O          -0.5255    3.5382   25.1855 O.2     1  UNL1       -0.2699
     13 N          -0.8687    3.1200   22.5679 N.am    1  UNL1       -0.2702
     14 C          -1.9387    4.1380   22.3059 C.3     1  UNL1        0.1155
     15 C          -0.2604    2.1990   21.5522 C.3     1  UNL1        0.1206
     16 C           4.4210   -2.9701   20.2638 C.3     1  UNL1        0.1410
     17 O           3.7721   -3.9476   21.1984 O.3     1  UNL1       -0.3771
     18 H           2.8233   -3.7554   21.2596 H       1  UNL1        0.2112
     19 C           5.0698   -1.9927   19.3292 C.ar    1  UNL1        0.0825
     20 C           4.9536   -1.9924   17.8337 C.ar    1  UNL1        0.1157
     21 N           5.7609   -0.8433   17.3062 N.ar    1  UNL1       -0.2228
     22 C           6.3759   -0.1334   18.4758 C.ar    1  UNL1        0.1749
     23 N           5.9489   -0.8437   19.7260 N.ar    1  UNL1       -0.3361
     24 H           6.2012   -0.5988   20.6456 H       1  UNL1        0.1673
     25 C           4.8226   -5.0853   18.8097 C.3     1  UNL1        0.0031
     26 C           5.3349   -4.0511   19.7677 C.3     1  UNL1        0.0340
     27 C           6.7613   -4.0979   20.2297 C.3     1  UNL1        0.0031
@<TRIPOS>BOND
     1    25    26    1
     2    26    27    1
     3    26    16    1
     4    16    17    1
     5    16     1    1
     6     1     2   ar
     7     2     3   ar
     8     3     4   ar
     9     4     5   ar
    10     5     6   ar
    11     6     7   ar
    12     7     8   ar
    13     8     9   ar
    14     9    10   ar
    15     6    11    1
    16    11    12    2
    17    11    13   am
    18    13    14    1
    19    13    15    1
    20    16    19    1
    21    19    20   ar
    22    20    21   ar
    23    21    22   ar
    24    22    23   ar
    25    10     1   ar
    26    23    19   ar
    27     9     4   ar
    28    15     5    1
    29    17    18    1
    30    23    24    1
