@<TRIPOS>MOLECULE
*****
 33 37 0 0 0
SMALL
GASTEIGER

@<TRIPOS>ATOM
      1 N          -7.6100  -19.5866   21.3906 N.3     1  UNL1       -0.2679
      2 C          -8.4697  -19.2060   22.5593 C.3     1  UNL1        0.0978
      3 C          -9.4500  -20.1921   23.1220 C.3     1  UNL1        0.0224
      4 C         -10.3097  -19.8113   24.2908 C.3     1  UNL1        0.0065
      5 C         -10.1891  -18.4445   24.8969 C.3     1  UNL1        0.0277
      6 C          -9.2088  -17.4584   24.3341 C.ar    1  UNL1       -0.0073
      7 C          -9.0882  -16.0916   24.9401 C.ar    1  UNL1       -0.0015
      8 C          -8.1079  -15.1055   24.3774 C.ar    1  UNL1        0.0203
      9 C          -7.2482  -15.4862   23.2087 C.ar    1  UNL1        0.0985
     10 N          -7.3689  -16.8530   22.6027 N.ar    1  UNL1       -0.2471
     11 C          -8.3491  -17.8391   23.1654 C.ar    1  UNL1        0.0695
     12 C          -6.2725  -20.2259   21.6200 C.3     1  UNL1        0.0886
     13 C          -0.4063  -16.9641   20.1373 C.ar    1  UNL1        0.0204
     14 C          -0.7828  -17.8461   18.9840 C.ar    1  UNL1        0.0984
     15 N          -2.0313  -18.6749   19.0498 N.ar    1  UNL1       -0.2484
     16 C          -2.9034  -18.6216   20.2691 C.ar    1  UNL1        0.0577
     17 C          -2.5270  -17.7396   21.4224 C.ar    1  UNL1        0.0073
     18 C          -1.2785  -16.9108   21.3566 C.ar    1  UNL1       -0.0002
     19 C          -3.3991  -17.6863   22.6417 C.3     1  UNL1        0.0968
     20 N          -4.6476  -18.5151   22.7076 N.3     1  UNL1       -0.2934
     21 C          -5.0240  -19.3971   21.5541 C.3     1  UNL1        0.0764
     22 C          -4.1519  -19.4504   20.3349 C.3     1  UNL1        0.0626
     23 H          -5.4234  -17.8681   22.8489 H       1  UNL1        0.1236
     24 C          -8.0878  -19.3281   19.9924 C.3     1  UNL1        0.0725
     25 C          -9.2858  -20.0585   19.4621 C.3     1  UNL1        0.0188
     26 C         -10.6205  -19.3756   19.4153 C.3     1  UNL1        0.0188
     27 C         -10.7288  -17.9172   19.7489 C.3     1  UNL1        0.0723
     28 N         -11.4931  -17.4805   20.9635 N.3     1  UNL1       -0.2685
     29 C         -12.4468  -18.4271   21.6300 C.3     1  UNL1        0.1046
     30 C         -13.2111  -17.9904   22.8446 C.3     1  UNL1        0.1595
     31 O         -13.0217  -16.6070   23.3926 O.3     1  UNL1       -0.3508
     32 C         -12.0679  -15.6603   22.7261 C.3     1  UNL1        0.1595
     33 C         -11.3036  -16.0970   21.5116 C.3     1  UNL1        0.1046
@<TRIPOS>BOND
     1    13    14   ar
     2    14    15   ar
     3    15    16   ar
     4    16    17   ar
     5    17    18   ar
     6    17    19    1
     7    19    20    1
     8    20    21    1
     9    21    12    1
    10    12     1    1
    11     1    24    1
    12    24    25    1
    13    25    26    1
    14    26    27    1
    15    27    28    1
    16    28    29    1
    17    29    30    1
    18    30    31    1
    19    31    32    1
    20    32    33    1
    21     2     1    1
    22     2     3    1
    23     3     4    1
    24     4     5    1
    25     5     6    1
    26     6     7   ar
    27     7     8   ar
    28     8     9   ar
    29     9    10   ar
    30    10    11   ar
    31    21    22    1
    32    18    13   ar
    33    33    28    1
    34    11     2    1
    35    22    16    1
    36    11     6   ar
    37    20    23    1
@<TRIPOS>MOLECULE
*****
 33 37 0 0 0
SMALL
GASTEIGER

@<TRIPOS>ATOM
      1 N          -8.2315  -18.4391   21.3325 N.3     1  UNL1       -0.2679
      2 C          -9.1849  -18.9360   22.3785 C.3     1  UNL1        0.0978
      3 C          -8.7871  -20.0677   23.2790 C.3     1  UNL1        0.0224
      4 C          -9.7406  -20.5646   24.3251 C.3     1  UNL1        0.0065
      5 C         -11.0917  -19.9297   24.4706 C.3     1  UNL1        0.0277
      6 C         -11.4895  -18.7979   23.5700 C.ar    1  UNL1       -0.0073
      7 C         -12.8407  -18.1631   23.7155 C.ar    1  UNL1       -0.0015
      8 C         -13.2385  -17.0313   22.8150 C.ar    1  UNL1        0.0203
      9 C         -12.2851  -16.5345   21.7690 C.ar    1  UNL1        0.0985
     10 N         -10.9339  -17.1694   21.6235 N.ar    1  UNL1       -0.2471
     11 C         -10.5362  -18.3011   22.5240 C.ar    1  UNL1        0.0695
     12 C          -7.6059  -17.0829   21.4714 C.3     1  UNL1        0.0886
     13 C          -6.9150  -14.8036   27.9194 C.ar    1  UNL1        0.0204
     14 C          -8.3725  -14.9897   27.6180 C.ar    1  UNL1        0.0984
     15 N          -8.8022  -15.4827   26.2681 N.ar    1  UNL1       -0.2484
     16 C          -7.7744  -15.7897   25.2196 C.ar    1  UNL1        0.0577
     17 C          -6.3169  -15.6036   25.5211 C.ar    1  UNL1        0.0073
     18 C          -5.8872  -15.1106   26.8710 C.ar    1  UNL1       -0.0002
     19 C          -5.2889  -15.9106   24.4726 C.3     1  UNL1        0.0968
     20 N          -5.7186  -16.4037   23.1227 N.3     1  UNL1       -0.2934
     21 C          -7.1763  -16.5898   22.8213 C.3     1  UNL1        0.0764
     22 C          -8.2041  -16.2828   23.8697 C.3     1  UNL1        0.0626
     23 H          -5.2713  -17.3098   22.9841 H       1  UNL1        0.1236
     24 C          -7.9036  -19.2985   20.1476 C.3     1  UNL1        0.0725
     25 C          -6.4770  -19.4701   19.7174 C.3     1  UNL1        0.0188
     26 C          -5.6041  -20.4809   20.4001 C.3     1  UNL1        0.0188
     27 C          -4.1286  -20.5017   20.1307 C.3     1  UNL1        0.0723
     28 N          -3.3014  -19.2776   20.3906 N.3     1  UNL1       -0.2685
     29 C          -3.2391  -18.6938   21.7709 C.3     1  UNL1        0.1046
     30 C          -2.4120  -17.4697   22.0308 C.3     1  UNL1        0.1595
     31 O          -1.6472  -16.8295   20.9105 O.3     1  UNL1       -0.3508
     32 C          -1.7095  -17.4134   19.5301 C.3     1  UNL1        0.1595
     33 C          -2.5366  -18.6374   19.2702 C.3     1  UNL1        0.1046
@<TRIPOS>BOND
     1    13    14   ar
     2    14    15   ar
     3    15    16   ar
     4    16    17   ar
     5    17    18   ar
     6    17    19    1
     7    19    20    1
     8    20    21    1
     9    21    12    1
    10    12     1    1
    11     1    24    1
    12    24    25    1
    13    25    26    1
    14    26    27    1
    15    27    28    1
    16    28    29    1
    17    29    30    1
    18    30    31    1
    19    31    32    1
    20    32    33    1
    21     2     1    1
    22     2     3    1
    23     3     4    1
    24     4     5    1
    25     5     6    1
    26     6     7   ar
    27     7     8   ar
    28     8     9   ar
    29     9    10   ar
    30    10    11   ar
    31    21    22    1
    32    18    13   ar
    33    33    28    1
    34    11     2    1
    35    22    16    1
    36    11     6   ar
    37    20    23    1
@<TRIPOS>MOLECULE
*****
 33 37 0 0 0
SMALL
GASTEIGER

@<TRIPOS>ATOM
      1 N          -8.7637  -17.6861   21.2323 N.3     1  UNL1       -0.2679
      2 C         -10.2319  -17.3805   21.2584 C.3     1  UNL1        0.0978
      3 C         -10.8602  -16.6215   20.1273 C.3     1  UNL1        0.0224
      4 C         -12.3285  -16.3159   20.1533 C.3     1  UNL1        0.0065
      5 C         -13.1685  -16.7691   21.3104 C.3     1  UNL1        0.0277
      6 C         -12.5403  -17.5280   22.4415 C.ar    1  UNL1       -0.0073
      7 C         -13.3803  -17.9813   23.5986 C.ar    1  UNL1       -0.0015
      8 C         -12.7520  -18.7402   24.7297 C.ar    1  UNL1        0.0203
      9 C         -11.2838  -19.0459   24.7037 C.ar    1  UNL1        0.0985
     10 N         -10.4438  -18.5926   23.5466 N.ar    1  UNL1       -0.2471
     11 C         -11.0720  -17.8337   22.4155 C.ar    1  UNL1        0.0695
     12 C          -7.7648  -16.5866   21.4412 C.3     1  UNL1        0.0886
     13 C          -6.9671  -14.9027   28.0577 C.ar    1  UNL1        0.0204
     14 C          -8.4317  -14.9622   27.7393 C.ar    1  UNL1        0.0984
     15 N          -8.8841  -15.3110   26.3523 N.ar    1  UNL1       -0.2484
     16 C          -7.8720  -15.6001   25.2837 C.ar    1  UNL1        0.0577
     17 C          -6.4074  -15.5405   25.6021 C.ar    1  UNL1        0.0073
     18 C          -5.9550  -15.1918   26.9891 C.ar    1  UNL1       -0.0002
     19 C          -5.3952  -15.8297   24.5335 C.3     1  UNL1        0.0968
     20 N          -5.8477  -16.1784   23.1465 N.3     1  UNL1       -0.2934
     21 C          -7.3124  -16.2379   22.8282 C.3     1  UNL1        0.0764
     22 C          -8.3245  -15.9488   23.8968 C.3     1  UNL1        0.0626
     23 H          -5.4624  -17.0986   22.9337 H       1  UNL1        0.1236
     24 C          -8.2941  -19.0913   20.9975 C.3     1  UNL1        0.0725
     25 C          -7.1279  -19.3506   20.0906 C.3     1  UNL1        0.0188
     26 C          -6.4551  -20.6912   20.0987 C.3     1  UNL1        0.0188
     27 C          -5.0402  -20.8174   20.5808 C.3     1  UNL1        0.0723
     28 N          -4.1593  -19.6051   20.6465 N.3     1  UNL1       -0.2685
     29 C          -3.8311  -18.9875   21.9734 C.3     1  UNL1        0.1046
     30 C          -2.9503  -17.7751   22.0391 C.3     1  UNL1        0.1595
     31 O          -2.3976  -17.1804   20.7778 O.3     1  UNL1       -0.3508
     32 C          -2.7258  -17.7980   19.4508 C.3     1  UNL1        0.1595
     33 C          -3.6067  -19.0103   19.3851 C.3     1  UNL1        0.1046
@<TRIPOS>BOND
     1    13    14   ar
     2    14    15   ar
     3    15    16   ar
     4    16    17   ar
     5    17    18   ar
     6    17    19    1
     7    19    20    1
     8    20    21    1
     9    21    12    1
    10    12     1    1
    11     1    24    1
    12    24    25    1
    13    25    26    1
    14    26    27    1
    15    27    28    1
    16    28    29    1
    17    29    30    1
    18    30    31    1
    19    31    32    1
    20    32    33    1
    21     2     1    1
    22     2     3    1
    23     3     4    1
    24     4     5    1
    25     5     6    1
    26     6     7   ar
    27     7     8   ar
    28     8     9   ar
    29     9    10   ar
    30    10    11   ar
    31    21    22    1
    32    18    13   ar
    33    33    28    1
    34    11     2    1
    35    22    16    1
    36    11     6   ar
    37    20    23    1
@<TRIPOS>MOLECULE
*****
 33 37 0 0 0
SMALL
GASTEIGER

@<TRIPOS>ATOM
      1 N          -7.2905  -18.7829   22.2893 N.3     1  UNL1       -0.2679
      2 C          -8.6856  -19.1411   22.7081 C.3     1  UNL1        0.0978
      3 C          -8.9132  -20.2650   23.6750 C.3     1  UNL1        0.0224
      4 C         -10.3083  -20.6232   24.0938 C.3     1  UNL1        0.0065
      5 C         -11.4758  -19.8574   23.5456 C.3     1  UNL1        0.0277
      6 C         -11.2482  -18.7335   22.5787 C.ar    1  UNL1       -0.0073
      7 C         -12.4157  -17.9677   22.0305 C.ar    1  UNL1       -0.0015
      8 C         -12.1881  -16.8438   21.0636 C.ar    1  UNL1        0.0203
      9 C         -10.7930  -16.4856   20.6448 C.ar    1  UNL1        0.0985
     10 N          -9.6256  -17.2514   21.1930 N.ar    1  UNL1       -0.2471
     11 C          -9.8532  -18.3753   22.1599 C.ar    1  UNL1        0.0695
     12 C          -6.5054  -19.7183   21.4181 C.3     1  UNL1        0.0886
     13 C          -0.2242  -17.9645   19.2455 C.ar    1  UNL1        0.0204
     14 C          -0.1113  -18.6404   20.5798 C.ar    1  UNL1        0.0984
     15 N          -1.3450  -19.1264   21.2811 N.ar    1  UNL1       -0.2484
     16 C          -2.6915  -18.9364   20.6483 C.ar    1  UNL1        0.0577
     17 C          -2.8045  -18.2605   19.3140 C.ar    1  UNL1        0.0073
     18 C          -1.5708  -17.7745   18.6126 C.ar    1  UNL1       -0.0002
     19 C          -4.1511  -18.0704   18.6810 C.3     1  UNL1        0.0968
     20 N          -5.3847  -18.5564   19.3824 N.3     1  UNL1       -0.2934
     21 C          -5.2718  -19.2323   20.7167 C.3     1  UNL1        0.0764
     22 C          -3.9252  -19.4223   21.3496 C.3     1  UNL1        0.0626
     23 H          -5.8389  -19.2192   18.7541 H       1  UNL1        0.1236
     24 C          -6.6804  -17.4895   22.7417 C.3     1  UNL1        0.0725
     25 C          -5.3452  -17.4885   23.4252 C.3     1  UNL1        0.0188
     26 C          -4.5609  -16.2148   23.5374 C.3     1  UNL1        0.0188
     27 C          -5.2112  -14.9796   24.0867 C.3     1  UNL1        0.0723
     28 N          -6.3039  -15.0980   25.1075 N.3     1  UNL1       -0.2685
     29 C          -7.7396  -15.0028   24.6838 C.3     1  UNL1        0.1046
     30 C          -8.8322  -15.1212   25.7046 C.3     1  UNL1        0.1595
     31 O          -8.4892  -15.3347   27.1491 O.3     1  UNL1       -0.3508
     32 C          -7.0534  -15.4298   27.5729 C.3     1  UNL1        0.1595
     33 C          -5.9607  -15.3115   26.5521 C.3     1  UNL1        0.1046
@<TRIPOS>BOND
     1    13    14   ar
     2    14    15   ar
     3    15    16   ar
     4    16    17   ar
     5    17    18   ar
     6    17    19    1
     7    19    20    1
     8    20    21    1
     9    21    12    1
    10    12     1    1
    11     1    24    1
    12    24    25    1
    13    25    26    1
    14    26    27    1
    15    27    28    1
    16    28    29    1
    17    29    30    1
    18    30    31    1
    19    31    32    1
    20    32    33    1
    21     2     1    1
    22     2     3    1
    23     3     4    1
    24     4     5    1
    25     5     6    1
    26     6     7   ar
    27     7     8   ar
    28     8     9   ar
    29     9    10   ar
    30    10    11   ar
    31    21    22    1
    32    18    13   ar
    33    33    28    1
    34    11     2    1
    35    22    16    1
    36    11     6   ar
    37    20    23    1
@<TRIPOS>MOLECULE
*****
 33 37 0 0 0
SMALL
GASTEIGER

@<TRIPOS>ATOM
      1 N          -7.1683  -18.9238   21.7961 N.3     1  UNL1       -0.2679
      2 C          -8.6006  -19.0555   21.3706 C.3     1  UNL1        0.0978
      3 C          -8.9333  -19.3532   19.9386 C.3     1  UNL1        0.0224
      4 C         -10.3658  -19.4849   19.5132 C.3     1  UNL1        0.0065
      5 C         -11.4654  -19.3189   20.5198 C.3     1  UNL1        0.0277
      6 C         -11.1326  -19.0213   21.9519 C.ar    1  UNL1       -0.0073
      7 C         -12.2322  -18.8553   22.9585 C.ar    1  UNL1       -0.0015
      8 C         -11.8995  -18.5577   24.3905 C.ar    1  UNL1        0.0203
      9 C         -10.4671  -18.4260   24.8159 C.ar    1  UNL1        0.0985
     10 N          -9.3676  -18.5919   23.8093 N.ar    1  UNL1       -0.2471
     11 C          -9.7003  -18.8896   22.3773 C.ar    1  UNL1        0.0695
     12 C          -6.1845  -20.0063   21.4635 C.3     1  UNL1        0.0886
     13 C          -0.1691  -17.8671   18.9162 C.ar    1  UNL1        0.0204
     14 C          -1.2671  -17.4872   17.9674 C.ar    1  UNL1        0.0984
     15 N          -2.6897  -17.8391   18.2872 N.ar    1  UNL1       -0.2484
     16 C          -3.0145  -18.5708   19.5556 C.ar    1  UNL1        0.0577
     17 C          -1.9165  -18.9508   20.5043 C.ar    1  UNL1        0.0073
     18 C          -0.4938  -18.5989   20.1846 C.ar    1  UNL1       -0.0002
     19 C          -2.2412  -19.6826   21.7729 C.3     1  UNL1        0.0968
     20 N          -3.6639  -20.0344   22.0926 N.3     1  UNL1       -0.2934
     21 C          -4.7618  -19.6545   21.1438 C.3     1  UNL1        0.0764
     22 C          -4.4371  -18.9227   19.8753 C.3     1  UNL1        0.0626
     23 H          -3.8821  -19.5948   22.9867 H       1  UNL1        0.1236
     24 C          -6.7196  -17.7097   22.5540 C.3     1  UNL1        0.0725
     25 C          -5.4317  -17.7387   23.3224 C.3     1  UNL1        0.0188
     26 C          -4.6243  -16.4845   23.4805 C.3     1  UNL1        0.0188
     27 C          -5.2864  -15.2191   23.9395 C.3     1  UNL1        0.0723
     28 N          -6.3279  -15.2662   25.0179 N.3     1  UNL1       -0.2685
     29 C          -7.7807  -15.1502   24.6631 C.3     1  UNL1        0.1046
     30 C          -8.8222  -15.1973   25.7415 C.3     1  UNL1        0.1595
     31 O          -8.4109  -15.3603   27.1748 O.3     1  UNL1       -0.3508
     32 C          -6.9581  -15.4763   27.5297 C.3     1  UNL1        0.1595
     33 C          -5.9166  -15.4292   26.4512 C.3     1  UNL1        0.1046
@<TRIPOS>BOND
     1    13    14   ar
     2    14    15   ar
     3    15    16   ar
     4    16    17   ar
     5    17    18   ar
     6    17    19    1
     7    19    20    1
     8    20    21    1
     9    21    12    1
    10    12     1    1
    11     1    24    1
    12    24    25    1
    13    25    26    1
    14    26    27    1
    15    27    28    1
    16    28    29    1
    17    29    30    1
    18    30    31    1
    19    31    32    1
    20    32    33    1
    21     2     1    1
    22     2     3    1
    23     3     4    1
    24     4     5    1
    25     5     6    1
    26     6     7   ar
    27     7     8   ar
    28     8     9   ar
    29     9    10   ar
    30    10    11   ar
    31    21    22    1
    32    18    13   ar
    33    33    28    1
    34    11     2    1
    35    22    16    1
    36    11     6   ar
    37    20    23    1
@<TRIPOS>MOLECULE
*****
 33 37 0 0 0
SMALL
GASTEIGER

@<TRIPOS>ATOM
      1 N          -9.1869  -18.2205   23.7290 N.3     1  UNL1       -0.2679
      2 C         -10.6415  -18.0145   23.4265 C.3     1  UNL1        0.0978
      3 C         -11.6844  -18.5173   24.3803 C.3     1  UNL1        0.0224
      4 C         -13.1392  -18.3113   24.0777 C.3     1  UNL1        0.0065
      5 C         -13.5509  -17.6026   22.8214 C.3     1  UNL1        0.0277
      6 C         -12.5080  -17.0999   21.8677 C.ar    1  UNL1       -0.0073
      7 C         -12.9197  -16.3912   20.6114 C.ar    1  UNL1       -0.0015
      8 C         -11.8768  -15.8885   19.6577 C.ar    1  UNL1        0.0203
      9 C         -10.4222  -16.0945   19.9602 C.ar    1  UNL1        0.0985
     10 N         -10.0104  -16.8031   21.2165 N.ar    1  UNL1       -0.2471
     11 C         -11.0533  -17.3058   22.1702 C.ar    1  UNL1        0.0695
     12 C          -8.4884  -19.4575   23.2472 C.3     1  UNL1        0.0886
     13 C          -2.6300  -19.1812   19.6623 C.ar    1  UNL1        0.0204
     14 C          -2.3113  -19.4436   21.1043 C.ar    1  UNL1        0.0984
     15 N          -3.4192  -19.5513   22.1097 N.ar    1  UNL1       -0.2484
     16 C          -4.8459  -19.3967   21.6731 C.ar    1  UNL1        0.0577
     17 C          -5.1646  -19.1343   20.2310 C.ar    1  UNL1        0.0073
     18 C          -4.0566  -19.0266   19.2256 C.ar    1  UNL1       -0.0002
     19 C          -6.5913  -18.9797   19.7943 C.3     1  UNL1        0.0968
     20 N          -7.6992  -19.0874   20.7997 N.3     1  UNL1       -0.2934
     21 C          -7.3805  -19.3498   22.2418 C.3     1  UNL1        0.0764
     22 C          -5.9538  -19.5044   22.6785 C.3     1  UNL1        0.0626
     23 H          -8.3057  -19.8465   20.4894 H       1  UNL1        0.1236
     24 C          -8.4306  -17.1895   24.5133 C.3     1  UNL1        0.0725
     25 C          -8.7246  -16.9914   25.9708 C.3     1  UNL1        0.0188
     26 C          -8.1747  -15.7962   26.6912 C.3     1  UNL1        0.0188
     27 C          -6.6914  -15.6219   26.8313 C.3     1  UNL1        0.0723
     28 N          -5.7978  -15.8150   25.6421 N.3     1  UNL1       -0.2685
     29 C          -5.9614  -14.9441   24.4318 C.3     1  UNL1        0.1046
     30 C          -5.0679  -15.1372   23.2426 C.3     1  UNL1        0.1595
     31 O          -4.0108  -16.2012   23.2636 O.3     1  UNL1       -0.3508
     32 C          -3.8472  -17.0721   24.4739 C.3     1  UNL1        0.1595
     33 C          -4.7407  -16.8790   25.6631 C.3     1  UNL1        0.1046
@<TRIPOS>BOND
     1    13    14   ar
     2    14    15   ar
     3    15    16   ar
     4    16    17   ar
     5    17    18   ar
     6    17    19    1
     7    19    20    1
     8    20    21    1
     9    21    12    1
    10    12     1    1
    11     1    24    1
    12    24    25    1
    13    25    26    1
    14    26    27    1
    15    27    28    1
    16    28    29    1
    17    29    30    1
    18    30    31    1
    19    31    32    1
    20    32    33    1
    21     2     1    1
    22     2     3    1
    23     3     4    1
    24     4     5    1
    25     5     6    1
    26     6     7   ar
    27     7     8   ar
    28     8     9   ar
    29     9    10   ar
    30    10    11   ar
    31    21    22    1
    32    18    13   ar
    33    33    28    1
    34    11     2    1
    35    22    16    1
    36    11     6   ar
    37    20    23    1
