@<TRIPOS>MOLECULE
*****
 25 27 0 0 0
SMALL
GASTEIGER

@<TRIPOS>ATOM
      1 C          -5.1526  -16.4513   23.8979 C.ar    1  UNL1        0.0208
      2 C          -4.8998  -15.6120   25.1151 C.ar    1  UNL1        0.1003
      3 N          -6.0476  -15.1749   25.9763 N.ar    1  UNL1       -0.2296
      4 C          -7.4481  -15.5770   25.6202 C.ar    1  UNL1        0.1253
      5 N          -8.5958  -15.1399   26.4814 N.pl3   1  UNL1       -0.3426
      6 C          -7.7008  -16.4163   24.4030 C.ar    1  UNL1        0.0312
      7 C          -6.5531  -16.8535   23.5418 C.ar    1  UNL1        0.0044
      8 H          -8.4299  -14.5890   27.2803 H       1  UNL1        0.1437
      9 H          -9.5150  -15.4039   26.2477 H       1  UNL1        0.1437
     10 N          -0.5616  -18.1999   20.4533 N.pl3   1  UNL1       -0.3426
     11 C          -1.7094  -17.7627   21.3144 C.ar    1  UNL1        0.1254
     12 C          -2.6007  -18.7866   21.9525 C.ar    1  UNL1        0.0339
     13 C          -3.7485  -18.3494   22.8136 C.ar    1  UNL1        0.0044
     14 C          -4.0048  -16.8885   23.0367 C.ar    1  UNL1        0.0208
     15 C          -3.1135  -15.8646   22.3987 C.ar    1  UNL1        0.1003
     16 N          -1.9657  -16.3018   21.5375 N.ar    1  UNL1       -0.2296
     17 H          -0.3934  -19.1588   20.3069 H       1  UNL1        0.1437
     18 H           0.0235  -17.5279   20.0345 H       1  UNL1        0.1437
     19 C          -9.1014  -16.8185   24.0469 C.ar    1  UNL1        0.0027
     20 C          -9.8790  -16.0194   23.0435 C.ar    1  UNL1        0.0010
     21 C         -11.2795  -16.4216   22.6874 C.ar    1  UNL1        0.0114
     22 C         -11.9024  -17.6229   23.3346 C.ar    1  UNL1        0.0577
     23 CL        -13.3029  -18.0250   22.9785 Cl      1  UNL1       -0.0822
     24 C         -11.1249  -18.4220   24.3380 C.ar    1  UNL1        0.0114
     25 C          -9.7243  -18.0198   24.6941 C.ar    1  UNL1        0.0010
@<TRIPOS>BOND
     1    10    11    1
     2    11    12   ar
     3    12    13   ar
     4    13    14   ar
     5    14     1    1
     6     1     2   ar
     7     2     3   ar
     8     3     4   ar
     9     4     5    1
    10     4     6   ar
    11     6    19    1
    12    19    20   ar
    13    20    21   ar
    14    21    22   ar
    15    22    23    1
    16    22    24   ar
    17    24    25   ar
    18     6     7   ar
    19    14    15   ar
    20    15    16   ar
    21    16    11   ar
    22     7     1   ar
    23    25    19   ar
    24    10    17    1
    25    10    18    1
    26     5     8    1
    27     5     9    1
@<TRIPOS>MOLECULE
*****
 25 27 0 0 0
SMALL
GASTEIGER

@<TRIPOS>ATOM
      1 C          -6.9817  -19.0234   20.8376 C.ar    1  UNL1        0.0208
      2 C          -7.2716  -19.3590   19.4047 C.ar    1  UNL1        0.1003
      3 N          -8.6905  -19.5068   18.9413 N.ar    1  UNL1       -0.2296
      4 C          -9.8196  -19.3189   19.9107 C.ar    1  UNL1        0.1253
      5 N         -11.2385  -19.4666   19.4473 N.pl3   1  UNL1       -0.3426
      6 C          -9.5297  -18.9832   21.3436 C.ar    1  UNL1        0.0312
      7 C          -8.1107  -18.8355   21.8071 C.ar    1  UNL1        0.0044
      8 H         -11.4288  -19.6869   18.5068 H       1  UNL1        0.1437
      9 H         -11.9795  -19.3433   20.0836 H       1  UNL1        0.1437
     10 N          -1.3059  -18.4325   22.6914 N.pl3   1  UNL1       -0.3426
     11 C          -2.7249  -18.5802   22.2279 C.ar    1  UNL1        0.1254
     12 C          -3.8529  -18.1433   23.1148 C.ar    1  UNL1        0.0339
     13 C          -5.2718  -18.2910   22.6514 C.ar    1  UNL1        0.0044
     14 C          -5.5627  -18.8757   21.3011 C.ar    1  UNL1        0.0208
     15 C          -4.4347  -19.3126   20.4142 C.ar    1  UNL1        0.1003
     16 N          -3.0158  -19.1649   20.8776 N.ar    1  UNL1       -0.2296
     17 H          -1.1150  -18.0487   23.5777 H       1  UNL1        0.1437
     18 H          -0.5656  -18.7192   22.1093 H       1  UNL1        0.1437
     19 C         -10.6587  -18.7953   22.3132 C.ar    1  UNL1        0.0027
     20 C         -11.8305  -17.9353   21.9423 C.ar    1  UNL1        0.0010
     21 C         -12.9595  -17.7474   22.9118 C.ar    1  UNL1        0.0114
     22 C         -12.9169  -18.4195   24.2522 C.ar    1  UNL1        0.0577
     23 CL        -14.0459  -18.2315   25.2217 Cl      1  UNL1       -0.0822
     24 C         -11.7451  -19.2795   24.6230 C.ar    1  UNL1        0.0114
     25 C         -10.6161  -19.4674   23.6535 C.ar    1  UNL1        0.0010
@<TRIPOS>BOND
     1    10    11    1
     2    11    12   ar
     3    12    13   ar
     4    13    14   ar
     5    14     1    1
     6     1     2   ar
     7     2     3   ar
     8     3     4   ar
     9     4     5    1
    10     4     6   ar
    11     6    19    1
    12    19    20   ar
    13    20    21   ar
    14    21    22   ar
    15    22    23    1
    16    22    24   ar
    17    24    25   ar
    18     6     7   ar
    19    14    15   ar
    20    15    16   ar
    21    16    11   ar
    22     7     1   ar
    23    25    19   ar
    24    10    17    1
    25    10    18    1
    26     5     8    1
    27     5     9    1
@<TRIPOS>MOLECULE
*****
 25 27 0 0 0
SMALL
GASTEIGER

@<TRIPOS>ATOM
      1 C          -5.4330  -19.3802   21.3781 C.ar    1  UNL1        0.0208
      2 C          -5.5786  -20.5133   22.3501 C.ar    1  UNL1        0.1003
      3 N          -6.9273  -20.8489   22.9143 N.ar    1  UNL1       -0.2296
      4 C          -8.1304  -20.0514   22.5065 C.ar    1  UNL1        0.1253
      5 N          -9.4792  -20.3870   23.0707 N.pl3   1  UNL1       -0.3426
      6 C          -7.9848  -18.9182   21.5346 C.ar    1  UNL1        0.0312
      7 C          -6.6361  -18.5827   20.9704 C.ar    1  UNL1        0.0044
      8 H          -9.5747  -21.1307   23.7087 H       1  UNL1        0.1437
      9 H         -10.2688  -19.8635   22.8031 H       1  UNL1        0.1437
     10 N          -0.0381  -18.0379   19.1214 N.pl3   1  UNL1       -0.3426
     11 C          -1.3868  -18.3734   19.6856 C.ar    1  UNL1        0.1254
     12 C          -2.6191  -18.1696   18.8550 C.ar    1  UNL1        0.0339
     13 C          -3.9678  -18.5052   19.4192 C.ar    1  UNL1        0.0044
     14 C          -4.0842  -19.0446   20.8140 C.ar    1  UNL1        0.0208
     15 C          -2.8520  -19.2484   21.6445 C.ar    1  UNL1        0.1003
     16 N          -1.5032  -18.9128   21.0803 N.ar    1  UNL1       -0.2296
     17 H           0.0384  -17.6838   18.2059 H       1  UNL1        0.1437
     18 H           0.7707  -18.1716   19.6665 H       1  UNL1        0.1437
     19 C          -9.1880  -18.1206   21.1267 C.ar    1  UNL1        0.0027
     20 C         -10.0943  -18.6301   20.0455 C.ar    1  UNL1        0.0010
     21 C         -11.2974  -17.8326   19.6377 C.ar    1  UNL1        0.0114
     22 C         -11.5943  -16.5255   20.3111 C.ar    1  UNL1        0.0577
     23 CL        -12.7974  -15.7279   19.9032 Cl      1  UNL1       -0.0822
     24 C         -10.6880  -16.0160   21.3923 C.ar    1  UNL1        0.0114
     25 C          -9.4848  -16.8136   21.8001 C.ar    1  UNL1        0.0010
@<TRIPOS>BOND
     1    10    11    1
     2    11    12   ar
     3    12    13   ar
     4    13    14   ar
     5    14     1    1
     6     1     2   ar
     7     2     3   ar
     8     3     4   ar
     9     4     5    1
    10     4     6   ar
    11     6    19    1
    12    19    20   ar
    13    20    21   ar
    14    21    22   ar
    15    22    23    1
    16    22    24   ar
    17    24    25   ar
    18     6     7   ar
    19    14    15   ar
    20    15    16   ar
    21    16    11   ar
    22     7     1   ar
    23    25    19   ar
    24    10    17    1
    25    10    18    1
    26     5     8    1
    27     5     9    1
@<TRIPOS>MOLECULE
*****
 25 27 0 0 0
SMALL
GASTEIGER

@<TRIPOS>ATOM
      1 C         -14.0208   -6.5743   18.9656 C.ar    1  UNL1        0.0208
      2 C         -12.5386   -6.7738   19.0803 C.ar    1  UNL1        0.1003
      3 N         -11.6255   -5.5860   19.1541 N.ar    1  UNL1       -0.2296
      4 C         -12.1946   -4.1988   19.1131 C.ar    1  UNL1        0.1253
      5 N         -11.2814   -3.0111   19.1868 N.pl3   1  UNL1       -0.3426
      6 C         -13.6768   -3.9993   18.9984 C.ar    1  UNL1        0.0312
      7 C         -14.5899   -5.1871   18.9246 C.ar    1  UNL1        0.0044
      8 H         -10.3086   -3.1420   19.2621 H       1  UNL1        0.1437
      9 H         -11.6549   -2.1006   19.1599 H       1  UNL1        0.1437
     10 N         -17.6734  -11.3253   18.6706 N.pl3   1  UNL1       -0.3426
     11 C         -16.7603  -10.1375   18.7444 C.ar    1  UNL1        0.1254
     12 C         -17.2071   -8.8905   19.4482 C.ar    1  UNL1        0.0339
     13 C         -16.2939   -7.7028   19.5219 C.ar    1  UNL1        0.0044
     14 C         -14.9340   -7.7620   18.8919 C.ar    1  UNL1        0.0208
     15 C         -14.4872   -9.0090   18.1881 C.ar    1  UNL1        0.1003
     16 N         -15.4003  -10.1968   18.1143 N.ar    1  UNL1       -0.2296
     17 H         -18.5660  -11.2864   19.0842 H       1  UNL1        0.1437
     18 H         -17.3801  -12.1437   18.2087 H       1  UNL1        0.1437
     19 C         -14.2459   -2.6120   18.9574 C.ar    1  UNL1        0.0027
     20 C         -15.1595   -2.1436   20.0510 C.ar    1  UNL1        0.0010
     21 C         -15.7286   -0.7564   20.0101 C.ar    1  UNL1        0.0114
     22 C         -15.3842    0.1624   18.8755 C.ar    1  UNL1        0.0577
     23 CL        -15.9534    1.5496   18.8346 Cl      1  UNL1       -0.0822
     24 C         -14.4707   -0.3060   17.7819 C.ar    1  UNL1        0.0114
     25 C         -13.9015   -1.6933   17.8229 C.ar    1  UNL1        0.0010
@<TRIPOS>BOND
     1    10    11    1
     2    11    12   ar
     3    12    13   ar
     4    13    14   ar
     5    14     1    1
     6     1     2   ar
     7     2     3   ar
     8     3     4   ar
     9     4     5    1
    10     4     6   ar
    11     6    19    1
    12    19    20   ar
    13    20    21   ar
    14    21    22   ar
    15    22    23    1
    16    22    24   ar
    17    24    25   ar
    18     6     7   ar
    19    14    15   ar
    20    15    16   ar
    21    16    11   ar
    22     7     1   ar
    23    25    19   ar
    24    10    17    1
    25    10    18    1
    26     5     8    1
    27     5     9    1
@<TRIPOS>MOLECULE
*****
 25 27 0 0 0
SMALL
GASTEIGER

@<TRIPOS>ATOM
      1 C         -13.2791   -3.4676   19.0049 C.ar    1  UNL1        0.0208
      2 C         -11.7931   -3.6614   19.0707 C.ar    1  UNL1        0.1003
      3 N         -11.2157   -5.0457   19.0519 N.ar    1  UNL1       -0.2296
      4 C         -12.1242   -6.2362   18.9674 C.ar    1  UNL1        0.1253
      5 N         -11.5468   -7.6205   18.9487 N.pl3   1  UNL1       -0.3426
      6 C         -13.6102   -6.0424   18.9017 C.ar    1  UNL1        0.0312
      7 C         -14.1876   -4.6581   18.9205 C.ar    1  UNL1        0.0044
      8 H         -10.5715   -7.7477   18.9918 H       1  UNL1        0.1437
      9 H         -12.1432   -8.4019   18.8932 H       1  UNL1        0.1437
     10 N         -15.5887    2.0695   19.0799 N.pl3   1  UNL1       -0.3426
     11 C         -15.0113    0.6852   19.0612 C.ar    1  UNL1        0.1254
     12 C         -15.7503   -0.4446   19.7149 C.ar    1  UNL1        0.0339
     13 C         -15.1729   -1.8289   19.6962 C.ar    1  UNL1        0.0044
     14 C         -13.8565   -2.0833   19.0237 C.ar    1  UNL1        0.0208
     15 C         -13.1175   -0.9536   18.3700 C.ar    1  UNL1        0.1003
     16 N         -13.6949    0.4307   18.3887 N.ar    1  UNL1       -0.2296
     17 H         -16.4527    2.2365   19.5213 H       1  UNL1        0.1437
     18 H         -15.1036    2.8110   18.6509 H       1  UNL1        0.1437
     19 C         -14.5188   -7.2330   18.8172 C.ar    1  UNL1        0.0027
     20 C         -14.1877   -8.3649   17.8903 C.ar    1  UNL1        0.0010
     21 C         -15.0962   -9.5554   17.8058 C.ar    1  UNL1        0.0114
     22 C         -16.3360   -9.6140   18.6482 C.ar    1  UNL1        0.0577
     23 CL        -17.2446  -10.8045   18.5637 Cl      1  UNL1       -0.0822
     24 C         -16.6671   -8.4822   19.5752 C.ar    1  UNL1        0.0114
     25 C         -15.7585   -7.2916   19.6596 C.ar    1  UNL1        0.0010
@<TRIPOS>BOND
     1    10    11    1
     2    11    12   ar
     3    12    13   ar
     4    13    14   ar
     5    14     1    1
     6     1     2   ar
     7     2     3   ar
     8     3     4   ar
     9     4     5    1
    10     4     6   ar
    11     6    19    1
    12    19    20   ar
    13    20    21   ar
    14    21    22   ar
    15    22    23    1
    16    22    24   ar
    17    24    25   ar
    18     6     7   ar
    19    14    15   ar
    20    15    16   ar
    21    16    11   ar
    22     7     1   ar
    23    25    19   ar
    24    10    17    1
    25    10    18    1
    26     5     8    1
    27     5     9    1
@<TRIPOS>MOLECULE
*****
 25 27 0 0 0
SMALL
GASTEIGER

@<TRIPOS>ATOM
      1 C           4.7028   -2.7263   22.9425 C.ar    1  UNL1        0.0208
      2 C           5.1505   -3.9483   22.1967 C.ar    1  UNL1        0.1003
      3 N           4.7916   -4.1176   20.7502 N.ar    1  UNL1       -0.2296
      4 C           3.9849   -3.0649   20.0495 C.ar    1  UNL1        0.1253
      5 N           3.6259   -3.2342   18.6029 N.pl3   1  UNL1       -0.3426
      6 C           3.5372   -1.8429   20.7953 C.ar    1  UNL1        0.0312
      7 C           3.8962   -1.6737   22.2418 C.ar    1  UNL1        0.0044
      8 H           3.9197   -4.0362   18.1134 H       1  UNL1        0.1437
      9 H           3.0964   -2.5432   18.1430 H       1  UNL1        0.1437
     10 N           6.1388   -2.0492   28.7287 N.pl3   1  UNL1       -0.3426
     11 C           5.7798   -2.2185   27.2822 C.ar    1  UNL1        0.1254
     12 C           4.6084   -1.4778   26.7085 C.ar    1  UNL1        0.0339
     13 C           4.2494   -1.6471   25.2619 C.ar    1  UNL1        0.0044
     14 C           5.0618   -2.5571   24.3891 C.ar    1  UNL1        0.0208
     15 C           6.2332   -3.2977   24.9628 C.ar    1  UNL1        0.1003
     16 N           6.5922   -3.1284   26.4093 N.ar    1  UNL1       -0.2296
     17 H           5.6056   -1.4520   29.3016 H       1  UNL1        0.1437
     18 H           6.9077   -2.5354   29.1052 H       1  UNL1        0.1437
     19 C           2.7304   -0.7902   20.0946 C.ar    1  UNL1        0.0027
     20 C           3.3682    0.0657   19.0407 C.ar    1  UNL1        0.0010
     21 C           2.5616    1.1184   18.3400 C.ar    1  UNL1        0.0114
     22 C           1.1170    1.3154   18.6932 C.ar    1  UNL1        0.0577
     23 CL          0.3104    2.3681   17.9925 Cl      1  UNL1       -0.0822
     24 C           0.4793    0.4595   19.7471 C.ar    1  UNL1        0.0114
     25 C           1.2860   -0.5933   20.4478 C.ar    1  UNL1        0.0010
@<TRIPOS>BOND
     1    10    11    1
     2    11    12   ar
     3    12    13   ar
     4    13    14   ar
     5    14     1    1
     6     1     2   ar
     7     2     3   ar
     8     3     4   ar
     9     4     5    1
    10     4     6   ar
    11     6    19    1
    12    19    20   ar
    13    20    21   ar
    14    21    22   ar
    15    22    23    1
    16    22    24   ar
    17    24    25   ar
    18     6     7   ar
    19    14    15   ar
    20    15    16   ar
    21    16    11   ar
    22     7     1   ar
    23    25    19   ar
    24    10    17    1
    25    10    18    1
    26     5     8    1
    27     5     9    1
@<TRIPOS>MOLECULE
*****
 25 27 0 0 0
SMALL
GASTEIGER

@<TRIPOS>ATOM
      1 C          -7.4961  -19.0105   20.9763 C.ar    1  UNL1        0.0208
      2 C          -7.7357  -20.4447   20.6078 C.ar    1  UNL1        0.1003
      3 N          -6.5915  -21.3053   20.1604 N.ar    1  UNL1       -0.2296
      4 C          -5.2077  -20.7319   20.0815 C.ar    1  UNL1        0.1253
      5 N          -4.0636  -21.5925   19.6341 N.pl3   1  UNL1       -0.3426
      6 C          -4.9681  -19.2977   20.4500 C.ar    1  UNL1        0.0312
      7 C          -6.1123  -18.4371   20.8975 C.ar    1  UNL1        0.0044
      8 H          -4.2209  -22.5338   19.3922 H       1  UNL1        0.1437
      9 H          -3.1554  -21.2161   19.5823 H       1  UNL1        0.1437
     10 N         -12.0727  -15.5679   22.7660 N.pl3   1  UNL1       -0.3426
     11 C         -10.9285  -16.4286   22.3186 C.ar    1  UNL1        0.1254
     12 C         -11.1198  -17.4077   21.1985 C.ar    1  UNL1        0.0339
     13 C          -9.9757  -18.2684   20.7511 C.ar    1  UNL1        0.0044
     14 C          -8.6402  -18.1499   21.4237 C.ar    1  UNL1        0.0208
     15 C          -8.4490  -17.1707   22.5438 C.ar    1  UNL1        0.1003
     16 N          -9.5931  -16.3101   22.9912 N.ar    1  UNL1       -0.2296
     17 H         -12.9492  -15.6457   22.3245 H       1  UNL1        0.1437
     18 H         -11.9471  -14.9253   23.5011 H       1  UNL1        0.1437
     19 C          -3.5843  -18.7242   20.3712 C.ar    1  UNL1        0.0027
     20 C          -2.7326  -18.6482   21.6036 C.ar    1  UNL1        0.0010
     21 C          -1.3489  -18.0747   21.5248 C.ar    1  UNL1        0.0114
     22 C          -0.8167  -17.5772   20.2135 C.ar    1  UNL1        0.0577
     23 CL          0.5671  -17.0037   20.1347 Cl      1  UNL1       -0.0822
     24 C          -1.6684  -17.6532   18.9811 C.ar    1  UNL1        0.0114
     25 C          -3.0522  -18.2268   19.0599 C.ar    1  UNL1        0.0010
@<TRIPOS>BOND
     1    10    11    1
     2    11    12   ar
     3    12    13   ar
     4    13    14   ar
     5    14     1    1
     6     1     2   ar
     7     2     3   ar
     8     3     4   ar
     9     4     5    1
    10     4     6   ar
    11     6    19    1
    12    19    20   ar
    13    20    21   ar
    14    21    22   ar
    15    22    23    1
    16    22    24   ar
    17    24    25   ar
    18     6     7   ar
    19    14    15   ar
    20    15    16   ar
    21    16    11   ar
    22     7     1   ar
    23    25    19   ar
    24    10    17    1
    25    10    18    1
    26     5     8    1
    27     5     9    1
@<TRIPOS>MOLECULE
*****
 25 27 0 0 0
SMALL
GASTEIGER

@<TRIPOS>ATOM
      1 C           7.4393   -4.4904   23.2554 C.ar    1  UNL1        0.0208
      2 C           8.6913   -4.0685   22.5451 C.ar    1  UNL1        0.1003
      3 N           8.6269   -3.0297   21.4649 N.ar    1  UNL1       -0.2296
      4 C           7.3107   -2.4128   21.0950 C.ar    1  UNL1        0.1253
      5 N           7.2464   -1.3741   20.0148 N.pl3   1  UNL1       -0.3426
      6 C           6.0588   -2.8347   21.8054 C.ar    1  UNL1        0.0312
      7 C           6.1231   -3.8734   22.8856 C.ar    1  UNL1        0.0044
      8 H           8.0681   -1.0972   19.5486 H       1  UNL1        0.1437
      9 H           6.3824   -0.9692   19.7721 H       1  UNL1        0.1437
     10 N           7.6967   -8.6454   27.5762 N.pl3   1  UNL1       -0.3426
     11 C           7.6323   -7.6067   26.4960 C.ar    1  UNL1        0.1254
     12 C           8.2487   -7.8790   25.1560 C.ar    1  UNL1        0.0339
     13 C           8.1844   -6.8402   24.0758 C.ar    1  UNL1        0.0044
     14 C           7.5037   -5.5291   24.3356 C.ar    1  UNL1        0.0208
     15 C           6.8873   -5.2568   25.6757 C.ar    1  UNL1        0.1003
     16 N           6.9516   -6.2956   26.7559 N.ar    1  UNL1       -0.2296
     17 H           8.1435   -9.5059   27.4056 H       1  UNL1        0.1437
     18 H           7.2921   -8.4667   28.4558 H       1  UNL1        0.1437
     19 C           4.7424   -2.2178   21.4356 C.ar    1  UNL1        0.0027
     20 C           4.0574   -1.2841   22.3891 C.ar    1  UNL1        0.0010
     21 C           2.7411   -0.6672   22.0193 C.ar    1  UNL1        0.0114
     22 C           2.1098   -0.9839   20.6960 C.ar    1  UNL1        0.0577
     23 CL          0.7935   -0.3670   20.3262 Cl      1  UNL1       -0.0822
     24 C           2.7947   -1.9175   19.7425 C.ar    1  UNL1        0.0114
     25 C           4.1111   -2.5344   20.1123 C.ar    1  UNL1        0.0010
@<TRIPOS>BOND
     1    10    11    1
     2    11    12   ar
     3    12    13   ar
     4    13    14   ar
     5    14     1    1
     6     1     2   ar
     7     2     3   ar
     8     3     4   ar
     9     4     5    1
    10     4     6   ar
    11     6    19    1
    12    19    20   ar
    13    20    21   ar
    14    21    22   ar
    15    22    23    1
    16    22    24   ar
    17    24    25   ar
    18     6     7   ar
    19    14    15   ar
    20    15    16   ar
    21    16    11   ar
    22     7     1   ar
    23    25    19   ar
    24    10    17    1
    25    10    18    1
    26     5     8    1
    27     5     9    1
@<TRIPOS>MOLECULE
*****
 25 27 0 0 0
SMALL
GASTEIGER

@<TRIPOS>ATOM
      1 C           5.6627   -2.7737   20.3419 C.ar    1  UNL1        0.0208
      2 C           6.1219   -3.1755   18.9716 C.ar    1  UNL1        0.1003
      3 N           5.4575   -2.5960   17.7580 N.ar    1  UNL1       -0.2296
      4 C           4.3340   -1.6147   17.9147 C.ar    1  UNL1        0.1253
      5 N           3.6696   -1.0351   16.7011 N.pl3   1  UNL1       -0.3426
      6 C           3.8748   -1.2129   19.2849 C.ar    1  UNL1        0.0312
      7 C           4.5391   -1.7924   20.4985 C.ar    1  UNL1        0.0044
      8 H           3.9711   -1.2989   15.8017 H       1  UNL1        0.1437
      9 H           2.9322   -0.3911   16.8039 H       1  UNL1        0.1437
     10 N           8.3201   -5.0918   25.1962 N.pl3   1  UNL1       -0.3426
     11 C           7.6557   -4.5122   23.9826 C.ar    1  UNL1        0.1254
     12 C           6.2566   -3.9797   24.0759 C.ar    1  UNL1        0.0339
     13 C           5.5922   -3.4002   22.8623 C.ar    1  UNL1        0.0044
     14 C           6.3270   -3.3532   21.5555 C.ar    1  UNL1        0.0208
     15 C           7.7262   -3.8857   21.4622 C.ar    1  UNL1        0.1003
     16 N           8.3905   -4.4653   22.6758 N.ar    1  UNL1       -0.2296
     17 H           7.8378   -5.1226   26.0539 H       1  UNL1        0.1437
     18 H           9.2384   -5.4413   25.1350 H       1  UNL1        0.1437
     19 C           2.7511   -0.2315   19.4416 C.ar    1  UNL1        0.0027
     20 C           2.9201    1.1832   18.9727 C.ar    1  UNL1        0.0010
     21 C           1.7966    2.1646   19.1294 C.ar    1  UNL1        0.0114
     22 C           0.5040    1.7312   19.7550 C.ar    1  UNL1        0.0577
     23 CL         -0.6196    2.7125   19.9117 Cl      1  UNL1       -0.0822
     24 C           0.3350    0.3164   20.2240 C.ar    1  UNL1        0.0114
     25 C           1.4586   -0.6649   20.0673 C.ar    1  UNL1        0.0010
@<TRIPOS>BOND
     1    10    11    1
     2    11    12   ar
     3    12    13   ar
     4    13    14   ar
     5    14     1    1
     6     1     2   ar
     7     2     3   ar
     8     3     4   ar
     9     4     5    1
    10     4     6   ar
    11     6    19    1
    12    19    20   ar
    13    20    21   ar
    14    21    22   ar
    15    22    23    1
    16    22    24   ar
    17    24    25   ar
    18     6     7   ar
    19    14    15   ar
    20    15    16   ar
    21    16    11   ar
    22     7     1   ar
    23    25    19   ar
    24    10    17    1
    25    10    18    1
    26     5     8    1
    27     5     9    1
