@<TRIPOS>MOLECULE
*****
 48 51 0 0 0
SMALL
GASTEIGER

@<TRIPOS>ATOM
      1 C           5.3592   -0.8934   29.2193 C.3     1  UNL1        0.1541
      2 N           5.8690    1.0733   32.6285 N.am    1  UNL1       -0.2683
      3 C           5.2879    0.1531   31.5963 C.2     1  UNL1        0.3048
      4 O           4.0541   -0.6409   31.9088 O.2     1  UNL1       -0.2525
      5 N           5.9404    0.0269   30.2516 N.am    1  UNL1       -0.2821
      6 H           6.6787    1.5944   32.4234 H       1  UNL1        0.1564
      7 H           6.7501    0.5480   30.0465 H       1  UNL1        0.1514
      8 C           3.9114    1.4520   36.6627 C.ar    1  UNL1        0.0757
      9 C           3.6818    2.5017   35.6161 C.ar    1  UNL1        0.0077
     10 C           4.3343    2.3754   34.2714 C.ar    1  UNL1        0.0149
     11 C           5.2165    1.1995   33.9732 C.ar    1  UNL1        0.0516
     12 C           5.4461    0.1499   35.0198 C.ar    1  UNL1        0.0149
     13 C           4.7936    0.2761   36.3645 C.ar    1  UNL1        0.0077
     14 C           3.2589    1.5783   38.0074 C.2     1  UNL1        0.3411
     15 O           4.1018    1.6551   39.2458 O.2     1  UNL1       -0.2449
     16 O           1.7635    1.6276   38.1137 O.3     1  UNL1       -0.4492
     17 C           1.0710   -0.2424   39.7791 C.3     1  UNL1        0.0473
     18 C           1.0876    1.2046   39.3843 C.3     1  UNL1        0.1694
     19 C           0.4283    2.2286   40.2599 C.3     1  UNL1        0.0473
     20 C           3.9776   -0.6485   28.6891 C.2     1  UNL1        0.2408
     21 O           3.3656   -1.6129   27.7167 O.2     1  UNL1       -0.2733
     22 N           3.2079    0.5607   29.1311 N.am    1  UNL1       -0.2994
     23 H           3.6096    1.1937   29.7693 H       1  UNL1        0.1496
     24 C           1.8263    0.8056   28.6008 C.3     1  UNL1        0.1274
     25 C           0.6439    0.1631   29.2634 C.3     1  UNL1        0.0317
     26 C          -0.7377    0.4080   28.7331 C.3     1  UNL1        0.0630
     27 C          -0.9369    1.2953   27.5402 C.3     1  UNL1        0.1092
     28 N           0.2456    1.9377   26.8776 N.4     1  UNL1        0.3062
     29 C           1.0446    2.7649   25.9147 C.3     1  UNL1        0.1709
     30 C           1.6272    1.6928   27.4079 C.3     1  UNL1        0.1288
     31 C          -0.8585    2.4699   26.0128 C.3     1  UNL1        0.1364
     32 C          -1.6930    3.6226   26.4868 C.ar    1  UNL1        0.0358
     33 C          -1.0651    4.7228   27.2901 C.ar    1  UNL1        0.0016
     34 C          -1.8997    5.8756   27.7641 C.ar    1  UNL1        0.0030
     35 C          -3.3621    5.9282   27.4347 C.ar    1  UNL1        0.0366
     36 C          -3.9900    4.8280   26.6314 C.ar    1  UNL1        0.1336
     37 O          -5.4525    4.8806   26.3020 O.3     1  UNL1       -0.5055
     38 C          -3.1554    3.6752   26.1575 C.ar    1  UNL1        0.0380
     39 H          -5.9738    5.6007   26.5981 H       1  UNL1        0.2922
     40 C           6.1596   -2.0585   28.7175 C.3     1  UNL1        0.0553
     41 C           6.4366   -3.2231   29.6212 C.ar    1  UNL1       -0.0198
     42 C           6.6858   -4.5825   29.0379 C.ar    1  UNL1       -0.0011
     43 C           6.9627   -5.7471   29.9417 C.ar    1  UNL1        0.0363
     44 C           6.9905   -5.5525   31.4288 C.ar    1  UNL1        0.1337
     45 O           7.2674   -6.7172   32.3325 O.3     1  UNL1       -0.5055
     46 C           6.7413   -4.1933   32.0121 C.ar    1  UNL1        0.0363
     47 C           6.4643   -3.0285   31.1083 C.ar    1  UNL1       -0.0011
     48 H           7.4231   -7.5663   31.9682 H       1  UNL1        0.2922
@<TRIPOS>UNITY_ATOM_ATTR
28 1
charge 1
@<TRIPOS>BOND
     1    17    18    1
     2    18    19    1
     3    18    16    1
     4    16    14    1
     5    14    15    2
     6    14     8    1
     7     8     9   ar
     8     9    10   ar
     9    10    11   ar
    10    11     2    1
    11     2     3   am
    12     3     4    2
    13     3     5   am
    14     5     1    1
    15     1    40    1
    16    40    41    1
    17    41    42   ar
    18    42    43   ar
    19    43    44   ar
    20    44    45    1
    21    44    46   ar
    22    46    47   ar
    23     1    20    1
    24    20    21    2
    25    20    22   am
    26    24    22    1
    27    24    25    1
    28    25    26    1
    29    26    27    1
    30    27    28    1
    31    28    29    1
    32    28    31    1
    33    31    32    1
    34    32    33   ar
    35    33    34   ar
    36    34    35   ar
    37    35    36   ar
    38    36    37    1
    39    36    38   ar
    40    28    30    1
    41    11    12   ar
    42    12    13   ar
    43    13     8   ar
    44    47    41   ar
    45    30    24    1
    46    38    32   ar
    47     2     6    1
    48     5     7    1
    49    45    48    1
    50    22    23    1
    51    37    39    1
@<TRIPOS>MOLECULE
*****
 48 51 0 0 0
SMALL
GASTEIGER

@<TRIPOS>ATOM
      1 C           5.3040   -1.8652   27.6297 C.3     1  UNL1        0.1541
      2 N           1.6355   -0.4015   28.0165 N.am    1  UNL1       -0.2683
      3 C           3.1039   -0.4863   27.7226 C.2     1  UNL1        0.3048
      4 O           3.8409    0.7228   27.2277 O.2     1  UNL1       -0.2525
      5 N           3.8355   -1.7803   27.9236 N.am    1  UNL1       -0.2821
      6 H           1.1518   -1.1951   28.3413 H       1  UNL1        0.1564
      7 H           3.3518   -2.5739   28.2485 H       1  UNL1        0.1514
      8 C          -0.5591    3.4805   27.4134 C.ar    1  UNL1        0.0757
      9 C           0.4448    3.3507   28.5203 C.ar    1  UNL1        0.0077
     10 C           1.1764    2.0567   28.7213 C.ar    1  UNL1        0.0149
     11 C           0.9040    0.8925   27.8155 C.ar    1  UNL1        0.0516
     12 C          -0.1000    1.0224   26.7086 C.ar    1  UNL1        0.0149
     13 C          -0.8316    2.3164   26.5076 C.ar    1  UNL1        0.0077
     14 C          -1.2907    4.7745   27.2124 C.2     1  UNL1        0.3411
     15 O          -1.2436    5.8352   28.2720 O.2     1  UNL1       -0.2449
     16 O          -2.0693    5.0079   25.9518 O.3     1  UNL1       -0.4492
     17 C          -4.1854    6.3271   25.2223 C.3     1  UNL1        0.0473
     18 C          -3.5526    5.2221   26.0152 C.3     1  UNL1        0.1694
     19 C          -4.4031    4.3313   26.8714 C.3     1  UNL1        0.0473
     20 C           5.7774   -2.0377   26.2169 C.2     1  UNL1        0.2408
     21 O           6.1784   -0.8394   25.4087 O.2     1  UNL1       -0.2733
     22 N           5.8498   -3.4086   25.6123 N.am    1  UNL1       -0.2994
     23 H           5.5866   -4.1951   26.1428 H       1  UNL1        0.1496
     24 C           6.3232   -3.5812   24.1995 C.3     1  UNL1        0.1274
     25 C           7.7752   -3.8338   23.9206 C.3     1  UNL1        0.0317
     26 C           8.2486   -4.0063   22.5077 C.3     1  UNL1        0.0630
     27 C           7.2699   -3.9262   21.3737 C.3     1  UNL1        0.1092
     28 N           5.8179   -3.6736   21.6527 N.4     1  UNL1        0.3062
     29 C           4.3537   -3.4545   21.4119 C.3     1  UNL1        0.1709
     30 C           5.3445   -3.5011   23.0656 C.3     1  UNL1        0.1288
     31 C           5.7827   -3.7701   20.1562 C.3     1  UNL1        0.1364
     32 C           5.6109   -2.5310   19.3286 C.ar    1  UNL1        0.0358
     33 C           6.3901   -1.2930   19.6609 C.ar    1  UNL1        0.0016
     34 C           6.2182   -0.0539   18.8333 C.ar    1  UNL1        0.0030
     35 C           5.2672   -0.0526   17.6733 C.ar    1  UNL1        0.0366
     36 C           4.4879   -1.2905   17.3410 C.ar    1  UNL1        0.1336
     37 O           3.5369   -1.2892   16.1811 O.3     1  UNL1       -0.5055
     38 C           4.6598   -2.5297   18.1687 C.ar    1  UNL1        0.0380
     39 H           3.4295   -0.5152   15.6641 H       1  UNL1        0.2922
     40 C           6.2991   -1.7775   28.7487 C.3     1  UNL1        0.0553
     41 C           6.5019   -2.9473   29.6654 C.ar    1  UNL1       -0.0198
     42 C           6.7501   -4.3125   29.0956 C.ar    1  UNL1       -0.0011
     43 C           6.9529   -5.4823   30.0123 C.ar    1  UNL1        0.0363
     44 C           6.9076   -5.2869   31.4989 C.ar    1  UNL1        0.1337
     45 O           7.1104   -6.4567   32.4156 O.3     1  UNL1       -0.5055
     46 C           6.6594   -3.9218   32.0687 C.ar    1  UNL1        0.0363
     47 C           6.4566   -2.7519   31.1520 C.ar    1  UNL1       -0.0011
     48 H           7.2654   -7.3095   32.0596 H       1  UNL1        0.2922
@<TRIPOS>UNITY_ATOM_ATTR
28 1
charge 1
@<TRIPOS>BOND
     1    17    18    1
     2    18    19    1
     3    18    16    1
     4    16    14    1
     5    14    15    2
     6    14     8    1
     7     8     9   ar
     8     9    10   ar
     9    10    11   ar
    10    11     2    1
    11     2     3   am
    12     3     4    2
    13     3     5   am
    14     5     1    1
    15     1    40    1
    16    40    41    1
    17    41    42   ar
    18    42    43   ar
    19    43    44   ar
    20    44    45    1
    21    44    46   ar
    22    46    47   ar
    23     1    20    1
    24    20    21    2
    25    20    22   am
    26    24    22    1
    27    24    25    1
    28    25    26    1
    29    26    27    1
    30    27    28    1
    31    28    29    1
    32    28    31    1
    33    31    32    1
    34    32    33   ar
    35    33    34   ar
    36    34    35   ar
    37    35    36   ar
    38    36    37    1
    39    36    38   ar
    40    28    30    1
    41    11    12   ar
    42    12    13   ar
    43    13     8   ar
    44    47    41   ar
    45    30    24    1
    46    38    32   ar
    47     2     6    1
    48     5     7    1
    49    45    48    1
    50    22    23    1
    51    37    39    1
@<TRIPOS>MOLECULE
*****
 48 51 0 0 0
SMALL
GASTEIGER

@<TRIPOS>ATOM
      1 C           3.5946   -0.5428   29.4450 C.3     1  UNL1        0.1541
      2 N           5.5382   -0.2253   32.8905 N.am    1  UNL1       -0.2683
      3 C           4.4552   -0.1143   31.8587 C.2     1  UNL1        0.3048
      4 O           3.1496    0.5360   32.2087 O.2     1  UNL1       -0.2525
      5 N           4.6777   -0.6538   30.4769 N.am    1  UNL1       -0.2821
      6 H           6.3951   -0.6521   32.6608 H       1  UNL1        0.1564
      7 H           5.5346   -1.0806   30.2471 H       1  UNL1        0.1514
      8 C           4.8707    1.3930   37.0361 C.ar    1  UNL1        0.0757
      9 C           5.3383    2.3053   35.9411 C.ar    1  UNL1        0.0077
     10 C           5.5608    1.7659   34.5593 C.ar    1  UNL1        0.0149
     11 C           5.3157    0.3141   34.2724 C.ar    1  UNL1        0.0516
     12 C           4.8481   -0.5982   35.3673 C.ar    1  UNL1        0.0149
     13 C           4.6256   -0.0588   36.7492 C.ar    1  UNL1        0.0077
     14 C           4.6482    1.9324   38.4180 C.2     1  UNL1        0.3411
     15 O           5.4537    3.0997   38.9061 O.2     1  UNL1       -0.2449
     16 O           3.6201    1.3044   39.3117 O.3     1  UNL1       -0.4492
     17 C           1.6472    2.7473   38.4309 C.3     1  UNL1        0.0473
     18 C           2.1610    1.4579   38.9998 C.3     1  UNL1        0.1694
     19 C           1.2155    0.3222   39.2569 C.3     1  UNL1        0.0473
     20 C           3.9517   -0.3988   27.9953 C.2     1  UNL1        0.2408
     21 O           4.8339    0.7292   27.5486 O.2     1  UNL1       -0.2733
     22 N           3.4268   -1.3828   26.9922 N.am    1  UNL1       -0.2994
     23 H           2.8478   -2.1232   27.2853 H       1  UNL1        0.1496
     24 C           3.7839   -1.2388   25.5425 C.3     1  UNL1        0.1274
     25 C           2.9734   -0.3403   24.6561 C.3     1  UNL1        0.0317
     26 C           3.3305   -0.1963   23.2064 C.3     1  UNL1        0.0630
     27 C           4.4982   -0.9508   22.6430 C.3     1  UNL1        0.1092
     28 N           5.3087   -1.8493   23.5295 N.4     1  UNL1        0.3062
     29 C           6.3714   -2.8142   23.9649 C.3     1  UNL1        0.1709
     30 C           4.9515   -1.9933   24.9792 C.3     1  UNL1        0.1288
     31 C           6.0349   -2.0404   22.2310 C.3     1  UNL1        0.1364
     32 C           5.3558   -2.7326   21.0866 C.ar    1  UNL1        0.0358
     33 C           4.5668   -3.9851   21.3294 C.ar    1  UNL1        0.0016
     34 C           3.8876   -4.6772   20.1849 C.ar    1  UNL1        0.0030
     35 C           3.9974   -4.1170   18.7978 C.ar    1  UNL1        0.0366
     36 C           4.7865   -2.8645   18.5551 C.ar    1  UNL1        0.1336
     37 O           4.8963   -2.3043   17.1680 O.3     1  UNL1       -0.5055
     38 C           5.4656   -2.1724   19.6995 C.ar    1  UNL1        0.0380
     39 H           4.4720   -2.7367   16.4531 H       1  UNL1        0.2922
     40 C           2.1544   -0.5758   29.8630 C.3     1  UNL1        0.0553
     41 C           1.1477    0.2801   29.1532 C.ar    1  UNL1       -0.0198
     42 C           1.4847    1.6987   28.8009 C.ar    1  UNL1       -0.0011
     43 C           0.4779    2.5546   28.0911 C.ar    1  UNL1        0.0363
     44 C          -0.8659    1.9920   27.7337 C.ar    1  UNL1        0.1337
     45 O          -1.8726    2.8480   27.0239 O.3     1  UNL1       -0.5055
     46 C          -1.2029    0.5735   28.0859 C.ar    1  UNL1        0.0363
     47 C          -0.1961   -0.2825   28.7957 C.ar    1  UNL1       -0.0011
     48 H          -1.6621    3.7341   26.8038 H       1  UNL1        0.2922
@<TRIPOS>UNITY_ATOM_ATTR
28 1
charge 1
@<TRIPOS>BOND
     1    17    18    1
     2    18    19    1
     3    18    16    1
     4    16    14    1
     5    14    15    2
     6    14     8    1
     7     8     9   ar
     8     9    10   ar
     9    10    11   ar
    10    11     2    1
    11     2     3   am
    12     3     4    2
    13     3     5   am
    14     5     1    1
    15     1    40    1
    16    40    41    1
    17    41    42   ar
    18    42    43   ar
    19    43    44   ar
    20    44    45    1
    21    44    46   ar
    22    46    47   ar
    23     1    20    1
    24    20    21    2
    25    20    22   am
    26    24    22    1
    27    24    25    1
    28    25    26    1
    29    26    27    1
    30    27    28    1
    31    28    29    1
    32    28    31    1
    33    31    32    1
    34    32    33   ar
    35    33    34   ar
    36    34    35   ar
    37    35    36   ar
    38    36    37    1
    39    36    38   ar
    40    28    30    1
    41    11    12   ar
    42    12    13   ar
    43    13     8   ar
    44    47    41   ar
    45    30    24    1
    46    38    32   ar
    47     2     6    1
    48     5     7    1
    49    45    48    1
    50    22    23    1
    51    37    39    1
@<TRIPOS>MOLECULE
*****
 48 51 0 0 0
SMALL
GASTEIGER

@<TRIPOS>ATOM
      1 C          -1.3743    3.0409   24.9492 C.3     1  UNL1        0.1541
      2 N          -0.6138    1.0512   28.2977 N.am    1  UNL1       -0.2683
      3 C          -0.4753    2.0243   27.1646 C.2     1  UNL1        0.3048
      4 O           0.7010    2.9539   27.1138 O.2     1  UNL1       -0.2525
      5 N          -1.5129    2.0678   26.0823 N.am    1  UNL1       -0.2821
      6 H          -1.3857    0.4411   28.3311 H       1  UNL1        0.1564
      7 H          -2.2848    1.4577   26.1156 H       1  UNL1        0.1514
      8 C           2.4991    0.9206   31.5447 C.ar    1  UNL1        0.0757
      9 C           1.4225    1.9644   31.5795 C.ar    1  UNL1        0.0077
     10 C           0.3848    2.0079   30.4971 C.ar    1  UNL1        0.0149
     11 C           0.4239    1.0077   29.3800 C.ar    1  UNL1        0.0516
     12 C           1.5005   -0.0361   29.3453 C.ar    1  UNL1        0.0149
     13 C           2.5382   -0.0796   30.4276 C.ar    1  UNL1        0.0077
     14 C           3.5368    0.8771   32.6270 C.2     1  UNL1        0.3411
     15 O           4.4869    2.0245   32.8017 O.2     1  UNL1       -0.2449
     16 O           3.6242   -0.3139   33.5347 O.3     1  UNL1       -0.4492
     17 C           4.7772   -2.5225   32.7981 C.3     1  UNL1        0.0473
     18 C           4.8360   -1.1972   33.4983 C.3     1  UNL1        0.1694
     19 C           6.1064   -0.7553   34.1620 C.3     1  UNL1        0.0473
     20 C          -0.3777    2.7844   23.8579 C.2     1  UNL1        0.2408
     21 O          -0.3481    3.6682   22.6463 O.2     1  UNL1       -0.2733
     22 N           0.5893    1.6440   23.9782 N.am    1  UNL1       -0.2994
     23 H           0.5699    1.0639   24.7734 H       1  UNL1        0.1496
     24 C           1.5859    1.3875   22.8869 C.3     1  UNL1        0.1274
     25 C           3.0382    1.6884   23.1115 C.3     1  UNL1        0.0317
     26 C           4.0347    1.4318   22.0202 C.3     1  UNL1        0.0630
     27 C           3.5791    0.8744   20.7042 C.3     1  UNL1        0.1092
     28 N           2.1268    0.5735   20.4796 N.4     1  UNL1        0.3062
     29 C           0.8690    0.1300   19.7933 C.3     1  UNL1        0.1709
     30 C           1.1302    0.8300   21.5710 C.3     1  UNL1        0.1288
     31 C           2.6866    0.1629   19.1499 C.3     1  UNL1        0.1364
     32 C           3.5084   -1.0867   19.0357 C.ar    1  UNL1        0.0358
     33 C           3.0595   -2.3446   19.7186 C.ar    1  UNL1        0.0016
     34 C           3.8814   -3.5942   19.6042 C.ar    1  UNL1        0.0030
     35 C           5.1520   -3.5860   18.8071 C.ar    1  UNL1        0.0366
     36 C           5.6008   -2.3281   18.1242 C.ar    1  UNL1        0.1336
     37 O           6.8714   -2.3199   17.3270 O.3     1  UNL1       -0.5055
     38 C           4.7790   -1.0785   18.2385 C.ar    1  UNL1        0.0380
     39 H           7.3847   -3.1005   17.2556 H       1  UNL1        0.2922
     40 C          -2.2324    4.2706   24.9074 C.3     1  UNL1        0.0553
     41 C          -3.6459    4.1823   24.4133 C.ar    1  UNL1       -0.0198
     42 C          -3.9304    3.6252   23.0500 C.ar    1  UNL1       -0.0011
     43 C          -5.3439    3.5370   22.5559 C.ar    1  UNL1        0.0363
     44 C          -6.4729    4.0059   23.4251 C.ar    1  UNL1        0.1337
     45 O          -7.8864    3.9176   22.9310 O.3     1  UNL1       -0.5055
     46 C          -6.1884    4.5630   24.7884 C.ar    1  UNL1        0.0363
     47 C          -4.7749    4.6512   25.2825 C.ar    1  UNL1       -0.0011
     48 H          -8.0642    3.5696   22.0794 H       1  UNL1        0.2922
@<TRIPOS>UNITY_ATOM_ATTR
28 1
charge 1
@<TRIPOS>BOND
     1    17    18    1
     2    18    19    1
     3    18    16    1
     4    16    14    1
     5    14    15    2
     6    14     8    1
     7     8     9   ar
     8     9    10   ar
     9    10    11   ar
    10    11     2    1
    11     2     3   am
    12     3     4    2
    13     3     5   am
    14     5     1    1
    15     1    40    1
    16    40    41    1
    17    41    42   ar
    18    42    43   ar
    19    43    44   ar
    20    44    45    1
    21    44    46   ar
    22    46    47   ar
    23     1    20    1
    24    20    21    2
    25    20    22   am
    26    24    22    1
    27    24    25    1
    28    25    26    1
    29    26    27    1
    30    27    28    1
    31    28    29    1
    32    28    31    1
    33    31    32    1
    34    32    33   ar
    35    33    34   ar
    36    34    35   ar
    37    35    36   ar
    38    36    37    1
    39    36    38   ar
    40    28    30    1
    41    11    12   ar
    42    12    13   ar
    43    13     8   ar
    44    47    41   ar
    45    30    24    1
    46    38    32   ar
    47     2     6    1
    48     5     7    1
    49    45    48    1
    50    22    23    1
    51    37    39    1
@<TRIPOS>MOLECULE
*****
 48 51 0 0 0
SMALL
GASTEIGER

@<TRIPOS>ATOM
      1 C           6.9111   -3.9459   26.5297 C.3     1  UNL1        0.1541
      2 N           6.0297   -1.0163   29.0576 N.am    1  UNL1       -0.2683
      3 C           5.8681   -2.1132   28.0474 C.2     1  UNL1        0.3048
      4 O           4.5018   -2.4743   27.5444 O.2     1  UNL1       -0.2525
      5 N           7.0727   -2.8489   27.5400 N.am    1  UNL1       -0.2821
      6 H           6.9264   -0.7792   29.3877 H       1  UNL1        0.1564
      7 H           7.9695   -2.6119   27.8701 H       1  UNL1        0.1514
      8 C           2.4157    1.1911   30.5797 C.ar    1  UNL1        0.0757
      9 C           3.3005    1.8232   29.5466 C.ar    1  UNL1        0.0077
     10 C           4.5052    1.0874   29.0392 C.ar    1  UNL1        0.0149
     11 C           4.8250   -0.2805   29.5650 C.ar    1  UNL1        0.0516
     12 C           3.9402   -0.9126   30.5982 C.ar    1  UNL1        0.0149
     13 C           2.7355   -0.1768   31.1055 C.ar    1  UNL1        0.0077
     14 C           1.2110    1.9269   31.0871 C.2     1  UNL1        0.3411
     15 O           1.3788    3.0759   32.0366 O.2     1  UNL1       -0.2449
     16 O          -0.1614    1.5137   30.6450 O.3     1  UNL1       -0.4492
     17 C          -0.1638    1.9698   28.0872 C.3     1  UNL1        0.0473
     18 C          -0.3851    1.0365   29.2406 C.3     1  UNL1        0.1694
     19 C          -0.8300   -0.3737   28.9895 C.3     1  UNL1        0.0473
     20 C           6.6788   -3.6083   25.0868 C.2     1  UNL1        0.2408
     21 O           7.8088   -3.6976   24.1043 O.2     1  UNL1       -0.2733
     22 N           5.3165   -3.1814   24.6262 N.am    1  UNL1       -0.2994
     23 H           4.5749   -3.1228   25.2710 H       1  UNL1        0.1496
     24 C           5.0843   -2.8438   23.1833 C.3     1  UNL1        0.1274
     25 C           4.7921   -3.9342   22.1956 C.3     1  UNL1        0.0317
     26 C           4.5599   -3.5966   20.7527 C.3     1  UNL1        0.0630
     27 C           4.6198   -2.1685   20.2974 C.3     1  UNL1        0.1092
     28 N           4.9119   -1.0781   21.2852 N.4     1  UNL1        0.3062
     29 C           5.1524    0.2951   21.8386 C.3     1  UNL1        0.1709
     30 C           5.1442   -1.4158   22.7282 C.3     1  UNL1        0.1288
     31 C           4.7632   -0.2636   20.0344 C.3     1  UNL1        0.1364
     32 C           3.4311    0.3264   19.6777 C.ar    1  UNL1        0.0358
     33 C           3.3514    1.4637   18.7028 C.ar    1  UNL1        0.0016
     34 C           2.0193    2.0537   18.3461 C.ar    1  UNL1        0.0030
     35 C           0.7668    1.5065   18.9641 C.ar    1  UNL1        0.0366
     36 C           0.8465    0.3692   19.9390 C.ar    1  UNL1        0.1336
     37 O          -0.4059   -0.1780   20.5570 O.3     1  UNL1       -0.5055
     38 C           2.1787   -0.2208   20.2957 C.ar    1  UNL1        0.0380
     39 H          -1.2380    0.1906   20.3341 H       1  UNL1        0.2922
     40 C           6.9817   -5.3804   26.9624 C.3     1  UNL1        0.0553
     41 C           7.5738   -5.7337   28.2945 C.ar    1  UNL1       -0.0198
     42 C           6.8043   -5.4620   29.5531 C.ar    1  UNL1       -0.0011
     43 C           7.3964   -5.8153   30.8852 C.ar    1  UNL1        0.0363
     44 C           8.7581   -6.4403   30.9588 C.ar    1  UNL1        0.1337
     45 O           9.3502   -6.7936   32.2909 O.3     1  UNL1       -0.5055
     46 C           9.5276   -6.7119   29.7002 C.ar    1  UNL1        0.0363
     47 C           8.9355   -6.3586   28.3680 C.ar    1  UNL1       -0.0011
     48 H           8.8695   -6.6239   33.0771 H       1  UNL1        0.2922
@<TRIPOS>UNITY_ATOM_ATTR
28 1
charge 1
@<TRIPOS>BOND
     1    17    18    1
     2    18    19    1
     3    18    16    1
     4    16    14    1
     5    14    15    2
     6    14     8    1
     7     8     9   ar
     8     9    10   ar
     9    10    11   ar
    10    11     2    1
    11     2     3   am
    12     3     4    2
    13     3     5   am
    14     5     1    1
    15     1    40    1
    16    40    41    1
    17    41    42   ar
    18    42    43   ar
    19    43    44   ar
    20    44    45    1
    21    44    46   ar
    22    46    47   ar
    23     1    20    1
    24    20    21    2
    25    20    22   am
    26    24    22    1
    27    24    25    1
    28    25    26    1
    29    26    27    1
    30    27    28    1
    31    28    29    1
    32    28    31    1
    33    31    32    1
    34    32    33   ar
    35    33    34   ar
    36    34    35   ar
    37    35    36   ar
    38    36    37    1
    39    36    38   ar
    40    28    30    1
    41    11    12   ar
    42    12    13   ar
    43    13     8   ar
    44    47    41   ar
    45    30    24    1
    46    38    32   ar
    47     2     6    1
    48     5     7    1
    49    45    48    1
    50    22    23    1
    51    37    39    1
@<TRIPOS>MOLECULE
*****
 48 51 0 0 0
SMALL
GASTEIGER

@<TRIPOS>ATOM
      1 C           5.2780   -0.9725   29.6192 C.3     1  UNL1        0.1541
      2 N           3.5698   -1.6893   26.1094 N.am    1  UNL1       -0.2683
      3 C           4.5514   -1.2065   27.1357 C.2     1  UNL1        0.3048
      4 O           5.7882   -0.4750   26.7050 O.2     1  UNL1       -0.2525
      5 N           4.2963   -1.4553   28.5928 N.am    1  UNL1       -0.2821
      6 H           2.7581   -2.1694   26.3920 H       1  UNL1        0.1564
      7 H           3.4846   -1.9354   28.8755 H       1  UNL1        0.1514
      8 C           4.3352   -0.9430   21.7382 C.ar    1  UNL1        0.0757
      9 C           4.9091   -2.1588   22.4032 C.ar    1  UNL1        0.0077
     10 C           4.6540   -2.4076   23.8602 C.ar    1  UNL1        0.0149
     11 C           3.8249   -1.4405   24.6523 C.ar    1  UNL1        0.0516
     12 C           3.2510   -0.2247   23.9873 C.ar    1  UNL1        0.0149
     13 C           3.5061    0.0241   22.5302 C.ar    1  UNL1        0.0077
     14 C           4.5903   -0.6942   20.2811 C.2     1  UNL1        0.3411
     15 O           3.4432   -0.4146   19.3559 O.2     1  UNL1       -0.2449
     16 O           5.9924   -0.7252   19.7492 O.3     1  UNL1       -0.4492
     17 C           5.6526   -2.8114   18.2384 C.3     1  UNL1        0.0473
     18 C           6.5304   -1.9786   19.1251 C.3     1  UNL1        0.1694
     19 C           7.9460   -2.3993   19.3876 C.3     1  UNL1        0.0473
     20 C           4.8470    0.0143   30.6633 C.2     1  UNL1        0.2408
     21 O           5.2876    1.4451   30.5704 O.2     1  UNL1       -0.2733
     22 N           3.9752   -0.4296   31.8005 N.am    1  UNL1       -0.2994
     23 H           3.6860   -1.3687   31.8615 H       1  UNL1        0.1496
     24 C           3.5442    0.5572   32.8447 C.3     1  UNL1        0.1274
     25 C           2.3708    1.4558   32.5885 C.3     1  UNL1        0.0317
     26 C           1.9398    2.4426   33.6327 C.3     1  UNL1        0.0630
     27 C           2.6822    2.5310   34.9331 C.3     1  UNL1        0.1092
     28 N           3.8557    1.6324   35.1893 N.4     1  UNL1        0.3062
     29 C           5.0198    1.0003   35.8930 C.3     1  UNL1        0.1709
     30 C           4.2867    0.6455   34.1450 C.3     1  UNL1        0.1288
     31 C           3.8290    2.3997   36.4779 C.3     1  UNL1        0.1364
     32 C           2.7390    2.1494   37.4774 C.ar    1  UNL1        0.0358
     33 C           1.8135    3.2619   37.8724 C.ar    1  UNL1        0.0016
     34 C           0.7235    3.0114   38.8719 C.ar    1  UNL1        0.0030
     35 C           0.5589    1.6486   39.4766 C.ar    1  UNL1        0.0366
     36 C           1.4843    0.5361   39.0816 C.ar    1  UNL1        0.1336
     37 O           1.3197   -0.8267   39.6862 O.3     1  UNL1       -0.5055
     38 C           2.5743    0.7866   38.0820 C.ar    1  UNL1        0.0380
     39 H           0.6388   -0.9831   40.3106 H       1  UNL1        0.2922
     40 C           6.6906   -1.4767   29.6013 C.3     1  UNL1        0.0553
     41 C           6.9662   -2.9265   29.3331 C.ar    1  UNL1       -0.0198
     42 C           7.5523   -3.3478   28.0181 C.ar    1  UNL1       -0.0011
     43 C           7.8279   -4.7976   27.7499 C.ar    1  UNL1        0.0363
     44 C           7.5173   -5.8262   28.7965 C.ar    1  UNL1        0.1337
     45 O           7.7929   -7.2761   28.5282 O.3     1  UNL1       -0.5055
     46 C           6.9312   -5.4051   30.1114 C.ar    1  UNL1        0.0363
     47 C           6.6556   -3.9552   30.3797 C.ar    1  UNL1       -0.0011
     48 H           8.1591   -7.5392   27.7069 H       1  UNL1        0.2922
@<TRIPOS>UNITY_ATOM_ATTR
28 1
charge 1
@<TRIPOS>BOND
     1    17    18    1
     2    18    19    1
     3    18    16    1
     4    16    14    1
     5    14    15    2
     6    14     8    1
     7     8     9   ar
     8     9    10   ar
     9    10    11   ar
    10    11     2    1
    11     2     3   am
    12     3     4    2
    13     3     5   am
    14     5     1    1
    15     1    40    1
    16    40    41    1
    17    41    42   ar
    18    42    43   ar
    19    43    44   ar
    20    44    45    1
    21    44    46   ar
    22    46    47   ar
    23     1    20    1
    24    20    21    2
    25    20    22   am
    26    24    22    1
    27    24    25    1
    28    25    26    1
    29    26    27    1
    30    27    28    1
    31    28    29    1
    32    28    31    1
    33    31    32    1
    34    32    33   ar
    35    33    34   ar
    36    34    35   ar
    37    35    36   ar
    38    36    37    1
    39    36    38   ar
    40    28    30    1
    41    11    12   ar
    42    12    13   ar
    43    13     8   ar
    44    47    41   ar
    45    30    24    1
    46    38    32   ar
    47     2     6    1
    48     5     7    1
    49    45    48    1
    50    22    23    1
    51    37    39    1
@<TRIPOS>MOLECULE
*****
 48 51 0 0 0
SMALL
GASTEIGER

@<TRIPOS>ATOM
      1 C           5.3831   -1.7814   27.5614 C.3     1  UNL1        0.1541
      2 N           5.0812   -3.3522   23.9294 N.am    1  UNL1       -0.2683
      3 C           5.3015   -2.3560   25.0290 C.2     1  UNL1        0.3048
      4 O           5.6608   -0.9383   24.6958 O.2     1  UNL1       -0.2525
      5 N           5.1627   -2.7776   26.4618 N.am    1  UNL1       -0.2821
      6 H           4.8454   -4.2827   24.1481 H       1  UNL1        0.1564
      7 H           4.9269   -3.7081   26.6805 H       1  UNL1        0.1514
      8 C           5.4977   -2.0875   19.6309 C.ar    1  UNL1        0.0757
      9 C           4.1895   -1.9075   20.3423 C.ar    1  UNL1        0.0077
     10 C           4.0507   -2.3290   21.7751 C.ar    1  UNL1        0.0149
     11 C           5.2200   -2.9306   22.4966 C.ar    1  UNL1        0.0516
     12 C           6.5283   -3.1107   21.7852 C.ar    1  UNL1        0.0149
     13 C           6.6671   -2.6891   20.3524 C.ar    1  UNL1        0.0077
     14 C           5.6366   -1.6659   18.1981 C.2     1  UNL1        0.3411
     15 O           6.9099   -1.9424   17.4550 O.2     1  UNL1       -0.2449
     16 O           4.5021   -0.9680   17.5083 O.3     1  UNL1       -0.4492
     17 C           5.2752    1.4940   17.8101 C.3     1  UNL1        0.0473
     18 C           4.1881    0.4609   17.8397 C.3     1  UNL1        0.1694
     19 C           2.7870    0.8566   18.2007 C.3     1  UNL1        0.0473
     20 C           4.3945   -0.6747   27.7801 C.2     1  UNL1        0.2408
     21 O           4.8476    0.6319   28.3609 O.2     1  UNL1       -0.2733
     22 N           2.9526   -0.8746   27.4179 N.am    1  UNL1       -0.2994
     23 H           2.6551   -1.7322   27.0367 H       1  UNL1        0.1496
     24 C           1.9640    0.2321   27.6365 C.3     1  UNL1        0.1274
     25 C           0.9696    0.1392   28.7557 C.3     1  UNL1        0.0317
     26 C          -0.0190    1.2459   28.9743 C.3     1  UNL1        0.0630
     27 C          -0.0133    2.4455   28.0737 C.3     1  UNL1        0.1092
     28 N           0.9811    2.5384   26.9546 N.4     1  UNL1        0.3062
     29 C           1.7215    3.0810   25.7683 C.3     1  UNL1        0.1709
     30 C           1.9698    1.4316   26.7360 C.3     1  UNL1        0.1288
     31 C           0.2496    3.8335   26.7612 C.3     1  UNL1        0.1364
     32 C          -1.1666    3.8285   26.2671 C.ar    1  UNL1        0.0358
     33 C          -1.4883    3.2568   24.9180 C.ar    1  UNL1        0.0016
     34 C          -2.9045    3.2518   24.4240 C.ar    1  UNL1        0.0030
     35 C          -3.9992    3.8184   25.2788 C.ar    1  UNL1        0.0366
     36 C          -3.6775    4.3901   26.6278 C.ar    1  UNL1        0.1336
     37 O          -4.7722    4.9566   27.4826 O.3     1  UNL1       -0.5055
     38 C          -2.2613    4.3951   27.1219 C.ar    1  UNL1        0.0380
     39 H          -5.6569    4.9535   27.1739 H       1  UNL1        0.2922
     40 C           6.5921   -1.8919   28.4424 C.3     1  UNL1        0.0553
     41 C           6.7053   -3.0220   29.4222 C.ar    1  UNL1       -0.0198
     42 C           6.9885   -4.4120   28.9345 C.ar    1  UNL1       -0.0011
     43 C           7.1017   -5.5421   29.9144 C.ar    1  UNL1        0.0363
     44 C           6.9318   -5.2822   31.3819 C.ar    1  UNL1        0.1337
     45 O           7.0451   -6.4122   32.3617 O.3     1  UNL1       -0.5055
     46 C           6.6487   -3.8922   31.8696 C.ar    1  UNL1        0.0363
     47 C           6.5355   -2.7621   30.8897 C.ar    1  UNL1       -0.0011
     48 H           7.2219   -7.2805   32.0571 H       1  UNL1        0.2922
@<TRIPOS>UNITY_ATOM_ATTR
28 1
charge 1
@<TRIPOS>BOND
     1    17    18    1
     2    18    19    1
     3    18    16    1
     4    16    14    1
     5    14    15    2
     6    14     8    1
     7     8     9   ar
     8     9    10   ar
     9    10    11   ar
    10    11     2    1
    11     2     3   am
    12     3     4    2
    13     3     5   am
    14     5     1    1
    15     1    40    1
    16    40    41    1
    17    41    42   ar
    18    42    43   ar
    19    43    44   ar
    20    44    45    1
    21    44    46   ar
    22    46    47   ar
    23     1    20    1
    24    20    21    2
    25    20    22   am
    26    24    22    1
    27    24    25    1
    28    25    26    1
    29    26    27    1
    30    27    28    1
    31    28    29    1
    32    28    31    1
    33    31    32    1
    34    32    33   ar
    35    33    34   ar
    36    34    35   ar
    37    35    36   ar
    38    36    37    1
    39    36    38   ar
    40    28    30    1
    41    11    12   ar
    42    12    13   ar
    43    13     8   ar
    44    47    41   ar
    45    30    24    1
    46    38    32   ar
    47     2     6    1
    48     5     7    1
    49    45    48    1
    50    22    23    1
    51    37    39    1
@<TRIPOS>MOLECULE
*****
 48 51 0 0 0
SMALL
GASTEIGER

@<TRIPOS>ATOM
      1 C           0.0030    2.0767   24.2679 C.3     1  UNL1        0.1541
      2 N           0.3960    0.2463   27.7672 N.am    1  UNL1       -0.2683
      3 C           0.5383    1.2679   26.6781 C.2     1  UNL1        0.3048
      4 O           1.3582    2.5024   26.9103 O.2     1  UNL1       -0.2525
      5 N          -0.1393    1.0550   25.3569 N.am    1  UNL1       -0.2821
      6 H          -0.1421   -0.5639   27.6148 H       1  UNL1        0.1564
      7 H          -0.6774    0.2448   25.2046 H       1  UNL1        0.1514
      8 C           2.4287    0.8848   31.7308 C.ar    1  UNL1        0.0757
      9 C           1.2966    1.7772   31.3162 C.ar    1  UNL1        0.0077
     10 C           0.6190    1.5643   29.9950 C.ar    1  UNL1        0.0149
     11 C           1.0735    0.4591   29.0884 C.ar    1  UNL1        0.0516
     12 C           2.2056   -0.4332   29.5031 C.ar    1  UNL1        0.0149
     13 C           2.8832   -0.2204   30.8243 C.ar    1  UNL1        0.0077
     14 C           3.1062    1.0977   33.0520 C.2     1  UNL1        0.3411
     15 O           2.4275    1.8999   34.1224 O.2     1  UNL1       -0.2449
     16 O           4.4626    0.5083   33.3029 O.3     1  UNL1       -0.4492
     17 C           4.9866   -0.3876   35.6847 C.3     1  UNL1        0.0473
     18 C           4.6164   -0.6418   34.2534 C.3     1  UNL1        0.1694
     19 C           4.4002   -2.0461   33.7727 C.3     1  UNL1        0.0473
     20 C           0.8379    1.7732   23.0592 C.2     1  UNL1        0.2408
     21 O           2.2646    2.2324   22.9986 O.2     1  UNL1       -0.2733
     22 N           0.2461    1.0104   21.9112 N.am    1  UNL1       -0.2994
     23 H          -0.6903    0.7090   21.9509 H       1  UNL1        0.1496
     24 C           1.0809    0.7069   20.7025 C.3     1  UNL1        0.1274
     25 C           1.0266    1.6113   19.5071 C.3     1  UNL1        0.0317
     26 C           1.8615    1.3078   18.2985 C.3     1  UNL1        0.0630
     27 C           2.7507    0.0998   18.2852 C.3     1  UNL1        0.1092
     28 N           2.8049   -0.8047   19.4806 N.4     1  UNL1        0.3062
     29 C           3.1964   -1.9530   20.3626 C.3     1  UNL1        0.1709
     30 C           1.9700   -0.5011   20.6893 C.3     1  UNL1        0.1288
     31 C           3.7758   -1.5070   18.5783 C.3     1  UNL1        0.1364
     32 C           5.2511   -1.3161   18.7702 C.ar    1  UNL1        0.0358
     33 C           6.2049   -2.4085   18.3868 C.ar    1  UNL1        0.0016
     34 C           7.6802   -2.2175   18.5787 C.ar    1  UNL1        0.0030
     35 C           8.2018   -0.9342   19.1541 C.ar    1  UNL1        0.0366
     36 C           7.2480    0.1582   19.5375 C.ar    1  UNL1        0.1336
     37 O           7.7696    1.4416   20.1128 O.3     1  UNL1       -0.5055
     38 C           5.7727   -0.0328   19.3455 C.ar    1  UNL1        0.0380
     39 H           8.6912    1.5608   20.2326 H       1  UNL1        0.2922
     40 C          -0.6895    3.4018   24.3875 C.3     1  UNL1        0.0553
     41 C          -2.1715    3.4954   24.1758 C.ar    1  UNL1       -0.0198
     42 C          -2.7290    3.5406   22.7840 C.ar    1  UNL1       -0.0011
     43 C          -4.2110    3.6342   22.5723 C.ar    1  UNL1        0.0363
     44 C          -5.1356    3.6825   23.7525 C.ar    1  UNL1        0.1337
     45 O          -6.6176    3.7760   23.5408 O.3     1  UNL1       -0.5055
     46 C          -4.5782    3.6372   25.1443 C.ar    1  UNL1        0.0363
     47 C          -3.0961    3.5437   25.3560 C.ar    1  UNL1       -0.0011
     48 H          -6.9658    3.8043   22.6714 H       1  UNL1        0.2922
@<TRIPOS>UNITY_ATOM_ATTR
28 1
charge 1
@<TRIPOS>BOND
     1    17    18    1
     2    18    19    1
     3    18    16    1
     4    16    14    1
     5    14    15    2
     6    14     8    1
     7     8     9   ar
     8     9    10   ar
     9    10    11   ar
    10    11     2    1
    11     2     3   am
    12     3     4    2
    13     3     5   am
    14     5     1    1
    15     1    40    1
    16    40    41    1
    17    41    42   ar
    18    42    43   ar
    19    43    44   ar
    20    44    45    1
    21    44    46   ar
    22    46    47   ar
    23     1    20    1
    24    20    21    2
    25    20    22   am
    26    24    22    1
    27    24    25    1
    28    25    26    1
    29    26    27    1
    30    27    28    1
    31    28    29    1
    32    28    31    1
    33    31    32    1
    34    32    33   ar
    35    33    34   ar
    36    34    35   ar
    37    35    36   ar
    38    36    37    1
    39    36    38   ar
    40    28    30    1
    41    11    12   ar
    42    12    13   ar
    43    13     8   ar
    44    47    41   ar
    45    30    24    1
    46    38    32   ar
    47     2     6    1
    48     5     7    1
    49    45    48    1
    50    22    23    1
    51    37    39    1
@<TRIPOS>MOLECULE
*****
 48 51 0 0 0
SMALL
GASTEIGER

@<TRIPOS>ATOM
      1 C           6.3301   -2.7530   24.1602 C.3     1  UNL1        0.1541
      2 N           3.9332    0.4100   24.1666 N.am    1  UNL1       -0.2683
      3 C           4.5153   -0.9279   24.5145 C.2     1  UNL1        0.3048
      4 O           3.8647   -1.7788   25.5647 O.2     1  UNL1       -0.2525
      5 N           5.7480   -1.4150   23.8122 N.am    1  UNL1       -0.2821
      6 H           4.3602    0.9685   23.4774 H       1  UNL1        0.1564
      7 H           6.1750   -0.8565   23.1230 H       1  UNL1        0.1514
      8 C           0.2351    1.8713   26.2734 C.ar    1  UNL1        0.0757
      9 C           1.5672    1.9445   26.9590 C.ar    1  UNL1        0.0077
     10 C           2.7999    1.4574   26.2568 C.ar    1  UNL1        0.0149
     11 C           2.7005    0.8971   24.8689 C.ar    1  UNL1        0.0516
     12 C           1.3684    0.8240   24.1833 C.ar    1  UNL1        0.0149
     13 C           0.1357    1.3111   24.8856 C.ar    1  UNL1        0.0077
     14 C          -0.9976    2.3584   26.9757 C.2     1  UNL1        0.3411
     15 O          -1.6394    1.5144   28.0367 O.2     1  UNL1       -0.2449
     16 O          -1.5886    3.6896   26.6170 O.3     1  UNL1       -0.4492
     17 C          -3.0505    3.4794   24.4795 C.3     1  UNL1        0.0473
     18 C          -2.9295    3.7592   25.9482 C.3     1  UNL1        0.1694
     19 C          -4.1493    4.1086   26.7482 C.3     1  UNL1        0.0473
     20 C           6.8010   -3.0255   25.5580 C.2     1  UNL1        0.2408
     21 O           8.2458   -2.8349   25.9133 O.2     1  UNL1       -0.2733
     22 N           5.8270   -3.4886   26.6006 N.am    1  UNL1       -0.2994
     23 H           4.8787   -3.6136   26.3675 H       1  UNL1        0.1496
     24 C           6.2978   -3.7611   27.9985 C.3     1  UNL1        0.1274
     25 C           6.4364   -5.1745   28.4811 C.3     1  UNL1        0.0317
     26 C           6.9072   -5.4470   29.8789 C.3     1  UNL1        0.0630
     27 C           7.2395   -4.3060   30.7942 C.3     1  UNL1        0.1092
     28 N           7.1010   -2.8925   30.3116 N.4     1  UNL1        0.3062
     29 C           7.1294   -1.3929   30.3149 C.3     1  UNL1        0.1709
     30 C           6.6301   -2.6201   28.9137 C.3     1  UNL1        0.1288
     31 C           7.5817   -2.6442   31.7107 C.3     1  UNL1        0.1364
     32 C           6.6543   -2.0479   32.7276 C.ar    1  UNL1        0.0358
     33 C           5.2490   -2.5579   32.8514 C.ar    1  UNL1        0.0016
     34 C           4.3217   -1.9616   33.8684 C.ar    1  UNL1        0.0030
     35 C           4.7994   -0.8553   34.7616 C.ar    1  UNL1        0.0366
     36 C           6.2046   -0.3453   34.6378 C.ar    1  UNL1        0.1336
     37 O           6.6824    0.7610   35.5311 O.3     1  UNL1       -0.5055
     38 C           7.1320   -0.9416   33.6208 C.ar    1  UNL1        0.0380
     39 H           6.1030    1.1335   36.1663 H       1  UNL1        0.2922
     40 C           6.4414   -3.8184   23.1102 C.3     1  UNL1        0.0553
     41 C           6.0253   -3.5269   21.6989 C.ar    1  UNL1       -0.0198
     42 C           7.0250   -2.9901   20.7178 C.ar    1  UNL1       -0.0011
     43 C           6.6089   -2.6986   19.3065 C.ar    1  UNL1        0.0363
     44 C           5.1931   -2.9439   18.8762 C.ar    1  UNL1        0.1337
     45 O           4.7770   -2.6524   17.4649 O.3     1  UNL1       -0.5055
     46 C           4.1934   -3.4807   19.8571 C.ar    1  UNL1        0.0363
     47 C           4.6095   -3.7723   21.2685 C.ar    1  UNL1       -0.0011
     48 H           5.4015   -2.3171   16.8521 H       1  UNL1        0.2922
@<TRIPOS>UNITY_ATOM_ATTR
28 1
charge 1
@<TRIPOS>BOND
     1    17    18    1
     2    18    19    1
     3    18    16    1
     4    16    14    1
     5    14    15    2
     6    14     8    1
     7     8     9   ar
     8     9    10   ar
     9    10    11   ar
    10    11     2    1
    11     2     3   am
    12     3     4    2
    13     3     5   am
    14     5     1    1
    15     1    40    1
    16    40    41    1
    17    41    42   ar
    18    42    43   ar
    19    43    44   ar
    20    44    45    1
    21    44    46   ar
    22    46    47   ar
    23     1    20    1
    24    20    21    2
    25    20    22   am
    26    24    22    1
    27    24    25    1
    28    25    26    1
    29    26    27    1
    30    27    28    1
    31    28    29    1
    32    28    31    1
    33    31    32    1
    34    32    33   ar
    35    33    34   ar
    36    34    35   ar
    37    35    36   ar
    38    36    37    1
    39    36    38   ar
    40    28    30    1
    41    11    12   ar
    42    12    13   ar
    43    13     8   ar
    44    47    41   ar
    45    30    24    1
    46    38    32   ar
    47     2     6    1
    48     5     7    1
    49    45    48    1
    50    22    23    1
    51    37    39    1
