@<TRIPOS>MOLECULE
*****
 24 26 0 0 0
SMALL
GASTEIGER

@<TRIPOS>ATOM
      1 C           5.0561   -2.7889   23.9652 C.3     1  UNL1        0.0952
      2 C           4.7619   -1.5633   24.7785 C.3     1  UNL1        0.0245
      3 C           3.9842   -0.4316   24.1749 C.3     1  UNL1        0.0067
      4 C           3.5006   -0.5254   22.7582 C.3     1  UNL1        0.0263
      5 C           3.7948   -1.7509   21.9449 C.ar    1  UNL1       -0.0216
      6 C           3.3113   -1.8448   20.5280 C.ar    1  UNL1        0.0150
      7 C           3.6055   -3.0703   19.7148 C.ar    1  UNL1        0.0985
      8 N           4.3832   -4.2021   20.3183 N.ar    1  UNL1       -0.2426
      9 C           4.8668   -4.1083   21.7351 C.ar    1  UNL1        0.0959
     10 C           4.5726   -2.8827   22.5484 C.ar    1  UNL1        0.0107
     11 C           2.5335   -0.7130   19.9245 C.ar    1  UNL1        0.0012
     12 C           1.1144   -0.4699   20.3451 C.ar    1  UNL1        0.0007
     13 C           0.3366    0.6618   19.7416 C.ar    1  UNL1        0.0103
     14 C           0.9780    1.5504   18.7174 C.ar    1  UNL1        0.0684
     15 C           2.3972    1.3074   18.2968 C.ar    1  UNL1        0.0103
     16 C           3.1749    0.1756   18.9003 C.ar    1  UNL1        0.0007
     17 C           0.2002    2.6822   18.1139 C.1     1  UNL1        0.1004
     18 N          -0.5775    3.8139   17.5104 N.1     1  UNL1       -0.1908
     19 C           7.3159   -4.0099   24.3555 C.2     1  UNL1        0.2226
     20 O           8.0203   -2.9674   23.5387 O.2     1  UNL1       -0.2751
     21 N           5.8339   -3.9206   24.5688 N.am    1  UNL1       -0.3022
     22 H           5.3716   -4.6048   25.1048 H       1  UNL1        0.1497
     23 C           8.0764   -6.4938   24.3098 C.3     1  UNL1        0.0101
     24 C           8.0937   -5.1417   24.9590 C.3     1  UNL1        0.0851
@<TRIPOS>BOND
     1    23    24    1
     2    24    19    1
     3    19    20    2
     4    19    21   am
     5     1    21    1
     6     1     2    1
     7     2     3    1
     8     3     4    1
     9     4     5    1
    10     5     6   ar
    11     6    11    1
    12    11    12   ar
    13    12    13   ar
    14    13    14   ar
    15    14    17    1
    16    17    18    3
    17    14    15   ar
    18    15    16   ar
    19     6     7   ar
    20     7     8   ar
    21     8     9   ar
    22     9    10   ar
    23    10     1    1
    24    10     5   ar
    25    16    11   ar
    26    21    22    1
@<TRIPOS>MOLECULE
*****
 24 26 0 0 0
SMALL
GASTEIGER

@<TRIPOS>ATOM
      1 C         -11.0071   -2.2825   18.4844 C.3     1  UNL1        0.0952
      2 C         -10.4434   -1.3921   17.4170 C.3     1  UNL1        0.0245
      3 C         -11.2825   -0.2922   16.8374 C.3     1  UNL1        0.0067
      4 C         -12.6854   -0.0826   17.3251 C.3     1  UNL1        0.0263
      5 C         -13.2492   -0.9730   18.3924 C.ar    1  UNL1       -0.0216
      6 C         -14.6521   -0.7635   18.8802 C.ar    1  UNL1        0.0150
      7 C         -15.2159   -1.6539   19.9476 C.ar    1  UNL1        0.0985
      8 N         -14.3768   -2.7539   20.5272 N.ar    1  UNL1       -0.2426
      9 C         -12.9739   -2.9634   20.0395 C.ar    1  UNL1        0.0959
     10 C         -12.4100   -2.0730   18.9721 C.ar    1  UNL1        0.0107
     11 C         -15.4913    0.3364   18.3006 C.ar    1  UNL1        0.0012
     12 C         -16.3514    0.0708   17.1008 C.ar    1  UNL1        0.0007
     13 C         -17.1905    1.1708   16.5211 C.ar    1  UNL1        0.0103
     14 C         -17.1695    2.5364   17.1413 C.ar    1  UNL1        0.0684
     15 C         -16.3094    2.8021   18.3412 C.ar    1  UNL1        0.0103
     16 C         -15.4702    1.7021   18.9208 C.ar    1  UNL1        0.0007
     17 C         -18.0086    3.6363   16.5617 C.1     1  UNL1        0.1004
     18 N         -18.8477    4.7363   15.9820 N.1     1  UNL1       -0.1908
     19 C         -10.2991   -4.7816   18.5395 C.2     1  UNL1        0.2226
     20 O         -11.2693   -5.0809   17.4353 O.2     1  UNL1       -0.2751
     21 N         -10.1680   -3.3825   19.0640 N.am    1  UNL1       -0.3022
     22 H          -9.5313   -3.1861   19.7887 H       1  UNL1        0.1497
     23 C          -9.6401   -7.2926   18.6431 C.3     1  UNL1        0.0101
     24 C          -9.4600   -5.8816   19.1191 C.3     1  UNL1        0.0851
@<TRIPOS>BOND
     1    23    24    1
     2    24    19    1
     3    19    20    2
     4    19    21   am
     5     1    21    1
     6     1     2    1
     7     2     3    1
     8     3     4    1
     9     4     5    1
    10     5     6   ar
    11     6    11    1
    12    11    12   ar
    13    12    13   ar
    14    13    14   ar
    15    14    17    1
    16    17    18    3
    17    14    15   ar
    18    15    16   ar
    19     6     7   ar
    20     7     8   ar
    21     8     9   ar
    22     9    10   ar
    23    10     1    1
    24    10     5   ar
    25    16    11   ar
    26    21    22    1
@<TRIPOS>MOLECULE
*****
 24 26 0 0 0
SMALL
GASTEIGER

@<TRIPOS>ATOM
      1 C         -11.8797   -3.8924   18.9712 C.3     1  UNL1        0.0952
      2 C         -11.0531   -2.6928   18.6141 C.3     1  UNL1        0.0245
      3 C         -11.6973   -1.3422   18.5095 C.3     1  UNL1        0.0067
      4 C         -13.1681   -1.1913   18.7620 C.3     1  UNL1        0.0263
      5 C         -13.9948   -2.3908   19.1191 C.ar    1  UNL1       -0.0216
      6 C         -15.4657   -2.2399   19.3716 C.ar    1  UNL1        0.0150
      7 C         -16.2923   -3.4395   19.7287 C.ar    1  UNL1        0.0985
      8 N         -15.6481   -4.7901   19.8334 N.ar    1  UNL1       -0.2426
      9 C         -14.1773   -4.9411   19.5809 C.ar    1  UNL1        0.0959
     10 C         -13.3506   -3.7414   19.2237 C.ar    1  UNL1        0.0107
     11 C         -16.1099   -0.8893   19.2670 C.ar    1  UNL1        0.0012
     12 C         -16.5456   -0.3678   17.9298 C.ar    1  UNL1        0.0007
     13 C         -17.1898    0.9828   17.8252 C.ar    1  UNL1        0.0103
     14 C         -17.3983    1.8118   19.0577 C.ar    1  UNL1        0.0684
     15 C         -16.9625    1.2903   20.3950 C.ar    1  UNL1        0.0103
     16 C         -16.3183   -0.0603   20.4996 C.ar    1  UNL1        0.0007
     17 C         -18.0425    3.1624   18.9531 C.1     1  UNL1        0.1004
     18 N         -18.6867    4.5130   18.8484 N.1     1  UNL1       -0.1908
     19 C         -11.1137   -6.1121   17.8594 C.2     1  UNL1        0.2226
     20 O         -11.6361   -5.6306   16.5382 O.2     1  UNL1       -0.2751
     21 N         -11.2356   -5.2430   19.0759 N.am    1  UNL1       -0.3022
     22 H         -10.8927   -5.5590   19.9429 H       1  UNL1        0.1497
     23 C          -9.3355   -7.6806   18.9215 C.3     1  UNL1        0.0101
     24 C         -10.4695   -7.4627   17.9641 C.3     1  UNL1        0.0851
@<TRIPOS>BOND
     1    23    24    1
     2    24    19    1
     3    19    20    2
     4    19    21   am
     5     1    21    1
     6     1     2    1
     7     2     3    1
     8     3     4    1
     9     4     5    1
    10     5     6   ar
    11     6    11    1
    12    11    12   ar
    13    12    13   ar
    14    13    14   ar
    15    14    17    1
    16    17    18    3
    17    14    15   ar
    18    15    16   ar
    19     6     7   ar
    20     7     8   ar
    21     8     9   ar
    22     9    10   ar
    23    10     1    1
    24    10     5   ar
    25    16    11   ar
    26    21    22    1
@<TRIPOS>MOLECULE
*****
 24 26 0 0 0
SMALL
GASTEIGER

@<TRIPOS>ATOM
      1 C           6.3612   -3.9132   27.3907 C.3     1  UNL1        0.0952
      2 C           6.0143   -2.5043   27.0105 C.3     1  UNL1        0.0245
      3 C           5.8499   -1.4593   28.0739 C.3     1  UNL1        0.0067
      4 C           6.0323   -1.8232   29.5176 C.3     1  UNL1        0.0263
      5 C           6.3791   -3.2321   29.8978 C.ar    1  UNL1       -0.0216
      6 C           6.5615   -3.5960   31.3416 C.ar    1  UNL1        0.0150
      7 C           6.9084   -5.0049   31.7218 C.ar    1  UNL1        0.0985
      8 N           7.0728   -6.0499   30.6584 N.ar    1  UNL1       -0.2426
      9 C           6.8904   -5.6861   29.2147 C.ar    1  UNL1        0.0959
     10 C           6.5436   -4.2771   28.8344 C.ar    1  UNL1        0.0107
     11 C           6.3971   -2.5510   32.4050 C.ar    1  UNL1        0.0012
     12 C           7.5723   -1.7208   32.8288 C.ar    1  UNL1        0.0007
     13 C           7.4079   -0.6758   33.8923 C.ar    1  UNL1        0.0103
     14 C           6.0682   -0.4610   34.5319 C.ar    1  UNL1        0.0684
     15 C           4.8929   -1.2911   34.1081 C.ar    1  UNL1        0.0103
     16 C           5.0574   -2.3362   33.0446 C.ar    1  UNL1        0.0007
     17 C           5.9038    0.5841   35.5953 C.1     1  UNL1        0.1004
     18 N           5.7393    1.6291   36.6588 N.1     1  UNL1       -0.1908
     19 C           7.8706   -5.1900   25.7052 C.2     1  UNL1        0.2226
     20 O           9.0513   -4.3768   26.1465 O.2     1  UNL1       -0.2751
     21 N           6.5256   -4.9582   26.3273 N.am    1  UNL1       -0.3022
     22 H           5.7507   -5.4920   26.0376 H       1  UNL1        0.1497
     23 C           8.2758   -7.6649   25.0262 C.3     1  UNL1        0.0101
     24 C           8.0351   -6.2350   24.6417 C.3     1  UNL1        0.0851
@<TRIPOS>BOND
     1    23    24    1
     2    24    19    1
     3    19    20    2
     4    19    21   am
     5     1    21    1
     6     1     2    1
     7     2     3    1
     8     3     4    1
     9     4     5    1
    10     5     6   ar
    11     6    11    1
    12    11    12   ar
    13    12    13   ar
    14    13    14   ar
    15    14    17    1
    16    17    18    3
    17    14    15   ar
    18    15    16   ar
    19     6     7   ar
    20     7     8   ar
    21     8     9   ar
    22     9    10   ar
    23    10     1    1
    24    10     5   ar
    25    16    11   ar
    26    21    22    1
@<TRIPOS>MOLECULE
*****
 24 26 0 0 0
SMALL
GASTEIGER

@<TRIPOS>ATOM
      1 C         -12.2764   -3.5174   19.3850 C.3     1  UNL1        0.0952
      2 C         -13.4619   -4.0546   20.1306 C.3     1  UNL1        0.0245
      3 C         -14.7222   -3.2461   20.2180 C.3     1  UNL1        0.0067
      4 C         -14.7971   -1.9003   19.5599 C.3     1  UNL1        0.0263
      5 C         -13.6116   -1.3630   18.8144 C.ar    1  UNL1       -0.0216
      6 C         -13.6865   -0.0172   18.1562 C.ar    1  UNL1        0.0150
      7 C         -12.5010    0.5201   17.4106 C.ar    1  UNL1        0.0985
      8 N         -11.2406   -0.2885   17.3232 N.ar    1  UNL1       -0.2426
      9 C         -11.1657   -1.6343   17.9813 C.ar    1  UNL1        0.0959
     10 C         -12.3513   -2.1716   18.7269 C.ar    1  UNL1        0.0107
     11 C         -14.9469    0.7914   18.2437 C.ar    1  UNL1        0.0012
     12 C         -16.0487    0.5727   17.2497 C.ar    1  UNL1        0.0007
     13 C         -17.3091    1.3813   17.3372 C.ar    1  UNL1        0.0103
     14 C         -17.4676    2.4086   18.4186 C.ar    1  UNL1        0.0684
     15 C         -16.3657    2.6273   19.4127 C.ar    1  UNL1        0.0103
     16 C         -15.1054    1.8187   19.3252 C.ar    1  UNL1        0.0007
     17 C         -18.7280    3.2171   18.5061 C.1     1  UNL1        0.1004
     18 N         -19.9884    4.0257   18.5936 N.1     1  UNL1       -0.1908
     19 C         -10.8847   -5.4003   18.2590 C.2     1  UNL1        0.2226
     20 O         -12.0138   -5.6662   17.3080 O.2     1  UNL1       -0.2751
     21 N         -11.0160   -4.3260   19.2975 N.am    1  UNL1       -0.3022
     22 H         -10.2749   -4.1515   19.9217 H       1  UNL1        0.1497
     23 C          -9.5747   -7.5868   18.7624 C.3     1  UNL1        0.0101
     24 C          -9.6243   -6.2089   18.1716 C.3     1  UNL1        0.0851
@<TRIPOS>BOND
     1    23    24    1
     2    24    19    1
     3    19    20    2
     4    19    21   am
     5     1    21    1
     6     1     2    1
     7     2     3    1
     8     3     4    1
     9     4     5    1
    10     5     6   ar
    11     6    11    1
    12    11    12   ar
    13    12    13   ar
    14    13    14   ar
    15    14    17    1
    16    17    18    3
    17    14    15   ar
    18    15    16   ar
    19     6     7   ar
    20     7     8   ar
    21     8     9   ar
    22     9    10   ar
    23    10     1    1
    24    10     5   ar
    25    16    11   ar
    26    21    22    1
@<TRIPOS>MOLECULE
*****
 24 26 0 0 0
SMALL
GASTEIGER

@<TRIPOS>ATOM
      1 C           5.6299   -1.7049   20.4431 C.3     1  UNL1        0.0952
      2 C           4.3180   -2.1872   20.9874 C.3     1  UNL1        0.0245
      3 C           4.2884   -3.2792   22.0153 C.3     1  UNL1        0.0067
      4 C           5.5707   -3.8889   22.4989 C.3     1  UNL1        0.0263
      5 C           6.8826   -3.4066   21.9546 C.ar    1  UNL1       -0.0216
      6 C           8.1649   -4.0164   22.4382 C.ar    1  UNL1        0.0150
      7 C           9.4768   -3.5341   21.8939 C.ar    1  UNL1        0.0985
      8 N           9.5064   -2.4421   20.8660 N.ar    1  UNL1       -0.2426
      9 C           8.2241   -1.8323   20.3823 C.ar    1  UNL1        0.0959
     10 C           6.9122   -2.3146   20.9267 C.ar    1  UNL1        0.0107
     11 C           8.1353   -5.1084   23.4661 C.ar    1  UNL1        0.0012
     12 C           8.6207   -6.4833   23.1139 C.ar    1  UNL1        0.0007
     13 C           8.5911   -7.5753   24.1418 C.ar    1  UNL1        0.0103
     14 C           8.0761   -7.2924   25.5219 C.ar    1  UNL1        0.0684
     15 C           7.5907   -5.9175   25.8742 C.ar    1  UNL1        0.0103
     16 C           7.6203   -4.8255   24.8463 C.ar    1  UNL1        0.0007
     17 C           8.0465   -8.3845   26.5499 C.1     1  UNL1        0.1004
     18 N           8.0169   -9.4765   27.5778 N.1     1  UNL1       -0.1908
     19 C           5.5440   -0.9508   17.9583 C.2     1  UNL1        0.2226
     20 O           5.3989   -2.3809   17.5293 O.2     1  UNL1       -0.2751
     21 N           5.6595   -0.6129   19.4151 N.am    1  UNL1       -0.3022
     22 H           5.7547    0.3257   19.6967 H       1  UNL1        0.1497
     23 C           6.8618    0.8441   16.6198 C.3     1  UNL1        0.0101
     24 C           5.5736    0.1412   16.9304 C.3     1  UNL1        0.0851
@<TRIPOS>BOND
     1    23    24    1
     2    24    19    1
     3    19    20    2
     4    19    21   am
     5     1    21    1
     6     1     2    1
     7     2     3    1
     8     3     4    1
     9     4     5    1
    10     5     6   ar
    11     6    11    1
    12    11    12   ar
    13    12    13   ar
    14    13    14   ar
    15    14    17    1
    16    17    18    3
    17    14    15   ar
    18    15    16   ar
    19     6     7   ar
    20     7     8   ar
    21     8     9   ar
    22     9    10   ar
    23    10     1    1
    24    10     5   ar
    25    16    11   ar
    26    21    22    1
@<TRIPOS>MOLECULE
*****
 24 26 0 0 0
SMALL
GASTEIGER

@<TRIPOS>ATOM
      1 C           7.3063   -2.8003   21.3239 C.3     1  UNL1        0.0952
      2 C           7.5914   -1.4955   22.0067 C.3     1  UNL1        0.0245
      3 C           6.6127   -0.3637   21.9001 C.3     1  UNL1        0.0067
      4 C           5.3490   -0.5368   21.1108 C.3     1  UNL1        0.0263
      5 C           5.0640   -1.8416   20.4281 C.ar    1  UNL1       -0.0216
      6 C           3.8002   -2.0147   19.6387 C.ar    1  UNL1        0.0150
      7 C           3.5151   -3.3195   18.9560 C.ar    1  UNL1        0.0985
      8 N           4.4938   -4.4512   19.0626 N.ar    1  UNL1       -0.2426
      9 C           5.7575   -4.2782   19.8519 C.ar    1  UNL1        0.0959
     10 C           6.0426   -2.9733   20.5346 C.ar    1  UNL1        0.0107
     11 C           2.8215   -0.8829   19.5322 C.ar    1  UNL1        0.0012
     12 C           3.0360    0.2010   18.5178 C.ar    1  UNL1        0.0007
     13 C           2.0573    1.3328   18.4112 C.ar    1  UNL1        0.0103
     14 C           0.8642    1.3806   19.3190 C.ar    1  UNL1        0.0684
     15 C           0.6497    0.2966   20.3335 C.ar    1  UNL1        0.0103
     16 C           1.6284   -0.8351   20.4401 C.ar    1  UNL1        0.0007
     17 C          -0.1144    2.5123   19.2125 C.1     1  UNL1        0.1004
     18 N          -1.0931    3.6441   19.1059 N.1     1  UNL1       -0.1908
     19 C           8.0988   -4.9883   22.4791 C.2     1  UNL1        0.2226
     20 O           6.9340   -4.9128   23.4212 O.2     1  UNL1       -0.2751
     21 N           8.2850   -3.9320   21.4305 N.am    1  UNL1       -0.3022
     22 H           9.0495   -3.9816   20.8122 H       1  UNL1        0.1497
     23 C           8.7649   -7.3026   23.4540 C.3     1  UNL1        0.0101
     24 C           9.0775   -6.1200   22.5857 C.3     1  UNL1        0.0851
@<TRIPOS>BOND
     1    23    24    1
     2    24    19    1
     3    19    20    2
     4    19    21   am
     5     1    21    1
     6     1     2    1
     7     2     3    1
     8     3     4    1
     9     4     5    1
    10     5     6   ar
    11     6    11    1
    12    11    12   ar
    13    12    13   ar
    14    13    14   ar
    15    14    17    1
    16    17    18    3
    17    14    15   ar
    18    15    16   ar
    19     6     7   ar
    20     7     8   ar
    21     8     9   ar
    22     9    10   ar
    23    10     1    1
    24    10     5   ar
    25    16    11   ar
    26    21    22    1
@<TRIPOS>MOLECULE
*****
 24 26 0 0 0
SMALL
GASTEIGER

@<TRIPOS>ATOM
      1 C           2.2083   -1.0117   20.4942 C.3     1  UNL1        0.0952
      2 C           1.1270   -0.2718   19.7638 C.3     1  UNL1        0.0245
      3 C           0.3233    0.7762   20.4750 C.3     1  UNL1        0.0067
      4 C           0.6009    1.0843   21.9165 C.3     1  UNL1        0.0263
      5 C           1.6821    0.3444   22.6468 C.ar    1  UNL1       -0.0216
      6 C           1.9597    0.6525   24.0884 C.ar    1  UNL1        0.0150
      7 C           3.0409   -0.0873   24.8188 C.ar    1  UNL1        0.0985
      8 N           3.8446   -1.1354   24.1076 N.ar    1  UNL1       -0.2426
      9 C           3.5671   -1.4435   22.6661 C.ar    1  UNL1        0.0959
     10 C           2.4858   -0.7036   21.9357 C.ar    1  UNL1        0.0107
     11 C           1.1560    1.7006   24.7996 C.ar    1  UNL1        0.0012
     12 C           1.6088    3.1305   24.7860 C.ar    1  UNL1        0.0007
     13 C           0.8051    4.1785   25.4972 C.ar    1  UNL1        0.0103
     14 C          -0.4514    3.7966   26.2219 C.ar    1  UNL1        0.0684
     15 C          -0.9043    2.3666   26.2354 C.ar    1  UNL1        0.0103
     16 C          -0.1006    1.3186   25.5243 C.ar    1  UNL1        0.0007
     17 C          -1.2551    4.8446   26.9330 C.1     1  UNL1        0.1004
     18 N          -2.0588    5.8926   27.6442 N.1     1  UNL1       -0.1908
     19 C           4.2316   -1.6683   19.0026 C.2     1  UNL1        0.2226
     20 O           4.6476   -0.2287   18.9332 O.2     1  UNL1       -0.2751
     21 N           3.0120   -2.0597   19.7830 N.am    1  UNL1       -0.3022
     22 H           2.7389   -3.0045   19.8285 H       1  UNL1        0.1497
     23 C           4.8735   -4.1620   18.6572 C.3     1  UNL1        0.0101
     24 C           5.0353   -2.7163   18.2914 C.3     1  UNL1        0.0851
@<TRIPOS>BOND
     1    23    24    1
     2    24    19    1
     3    19    20    2
     4    19    21   am
     5     1    21    1
     6     1     2    1
     7     2     3    1
     8     3     4    1
     9     4     5    1
    10     5     6   ar
    11     6    11    1
    12    11    12   ar
    13    12    13   ar
    14    13    14   ar
    15    14    17    1
    16    17    18    3
    17    14    15   ar
    18    15    16   ar
    19     6     7   ar
    20     7     8   ar
    21     8     9   ar
    22     9    10   ar
    23    10     1    1
    24    10     5   ar
    25    16    11   ar
    26    21    22    1
@<TRIPOS>MOLECULE
*****
 24 26 0 0 0
SMALL
GASTEIGER

@<TRIPOS>ATOM
      1 C           1.1321    1.0562   29.3954 C.3     1  UNL1        0.0952
      2 C           0.2534   -0.1490   29.2361 C.3     1  UNL1        0.0245
      3 C          -0.9677   -0.0774   28.3680 C.3     1  UNL1        0.0067
      4 C          -1.3103    1.1994   27.6592 C.3     1  UNL1        0.0263
      5 C          -0.4316    2.4046   27.8185 C.ar    1  UNL1       -0.0216
      6 C          -0.7742    3.6815   27.1097 C.ar    1  UNL1        0.0150
      7 C           0.1045    4.8867   27.2690 C.ar    1  UNL1        0.0985
      8 N           1.3256    4.8151   28.1371 N.ar    1  UNL1       -0.2426
      9 C           1.6682    3.5383   28.8459 C.ar    1  UNL1        0.0959
     10 C           0.7895    2.3330   28.6866 C.ar    1  UNL1        0.0107
     11 C          -1.9953    3.7530   26.2416 C.ar    1  UNL1        0.0012
     12 C          -1.8762    3.5446   24.7609 C.ar    1  UNL1        0.0007
     13 C          -3.0974    3.6162   23.8928 C.ar    1  UNL1        0.0103
     14 C          -4.4377    3.8962   24.5053 C.ar    1  UNL1        0.0684
     15 C          -4.5568    4.1046   25.9860 C.ar    1  UNL1        0.0103
     16 C          -3.3357    4.0330   26.8542 C.ar    1  UNL1        0.0007
     17 C          -5.6588    3.9677   23.6372 C.1     1  UNL1        0.1004
     18 N          -6.8800    4.0393   22.7691 N.1     1  UNL1       -0.1908
     19 C           2.2609    1.3376   31.7185 C.2     1  UNL1        0.2226
     20 O           0.9473    1.7621   32.3054 O.2     1  UNL1       -0.2751
     21 N           2.3532    0.9847   30.2635 N.am    1  UNL1       -0.3022
     22 H           3.2154    0.7061   29.8784 H       1  UNL1        0.1497
     23 C           3.8750   -0.0345   33.2226 C.3     1  UNL1        0.0101
     24 C           3.4820    1.2660   32.5866 C.3     1  UNL1        0.0851
@<TRIPOS>BOND
     1    23    24    1
     2    24    19    1
     3    19    20    2
     4    19    21   am
     5     1    21    1
     6     1     2    1
     7     2     3    1
     8     3     4    1
     9     4     5    1
    10     5     6   ar
    11     6    11    1
    12    11    12   ar
    13    12    13   ar
    14    13    14   ar
    15    14    17    1
    16    17    18    3
    17    14    15   ar
    18    15    16   ar
    19     6     7   ar
    20     7     8   ar
    21     8     9   ar
    22     9    10   ar
    23    10     1    1
    24    10     5   ar
    25    16    11   ar
    26    21    22    1
