@<TRIPOS>MOLECULE
*****
 33 36 0 0 0
SMALL
GASTEIGER

@<TRIPOS>ATOM
      1 C          -9.0800  -18.4861   21.0938 C.ar    1  UNL1        0.0949
      2 C          -9.7963  -18.9174   19.8485 C.ar    1  UNL1        0.1454
      3 F         -11.1740  -18.4001   19.5583 F       1  UNL1       -0.2040
      4 C          -9.1348  -19.8662   18.8934 C.ar    1  UNL1        0.0312
      5 C          -7.7571  -20.3836   19.1835 C.ar    1  UNL1        0.0204
      6 C          -7.0408  -19.9522   20.4289 C.ar    1  UNL1        0.0924
      7 C          -7.7023  -19.0035   21.3840 C.ar    1  UNL1        0.1598
      8 F          -6.9860  -18.5720   22.6293 F       1  UNL1       -0.2026
      9 C          -9.7415  -17.5373   22.0490 C.2     1  UNL1        0.2007
     10 O         -11.2371  -17.5026   22.1565 O.2     1  UNL1       -0.2866
     11 C          -9.3907  -17.5843   25.4173 C.2     1  UNL1        0.1360
     12 C          -9.0703  -17.3948   26.8703 C.2     1  UNL1        0.0837
     13 C          -8.1384  -16.2993   27.2963 C.2     1  UNL1        0.2385
     14 N          -7.5269  -15.3933   26.2692 N.2     1  UNL1       -0.0338
     15 C          -7.8472  -15.5827   24.8161 C.2     1  UNL1        0.3626
     16 N          -7.3993  -14.8507   23.5859 N.2     1  UNL1       -0.0341
     17 C          -8.0544  -15.4937   22.3995 C.2     1  UNL1        0.2355
     18 C          -8.9071  -16.6232   22.8966 C.2     1  UNL1        0.0823
     19 C          -8.7791  -16.6782   24.3902 C.3     1  UNL1        0.1973
     20 C          -9.7783  -20.0320   24.6373 C.3     1  UNL1        0.2520
     21 O         -10.3225  -18.6798   24.9913 O.2     1  UNL1       -0.4746
     22 N          -5.6631  -20.4696   20.7190 N.pl3   1  UNL1       -0.2127
     23 H          -5.5332  -21.4149   20.9617 H       1  UNL1        0.1738
     24 S          -4.4832  -19.5468   20.6395 S.O2    1  UNL1        0.0758
     25 O          -3.7245  -20.4359   21.5796 O.2     1  UNL1       -0.1499
     26 O          -5.2420  -18.6577   19.6994 O.2     1  UNL1       -0.1499
     27 C          -3.3035  -18.6239   20.5598 C.ar    1  UNL1        0.1524
     28 C          -2.3917  -18.6731   19.3697 C.ar    1  UNL1        0.0225
     29 C          -1.2119  -17.7503   19.2900 C.ar    1  UNL1        0.0015
     30 C          -0.9437  -16.7782   20.4005 C.ar    1  UNL1        0.0024
     31 C          -1.8555  -16.7290   21.5906 C.ar    1  UNL1        0.0310
     32 C          -3.0353  -17.6518   21.6703 C.ar    1  UNL1        0.1589
     33 F          -3.9470  -17.6026   22.8604 F       1  UNL1       -0.2027
@<TRIPOS>BOND
     1    20    21    1
     2    21    11    1
     3    11    12    2
     4    12    13    1
     5    13    14    2
     6    14    15    1
     7    15    16    2
     8    16    17    1
     9    17    18    2
    10    18     9    1
    11     9    10    2
    12     9     1    1
    13     1     2   ar
    14     2     3    1
    15     2     4   ar
    16     4     5   ar
    17     5     6   ar
    18     6    22    1
    19    22    24    1
    20    24    25    2
    21    24    26    2
    22    24    27    1
    23    27    28   ar
    24    28    29   ar
    25    29    30   ar
    26    30    31   ar
    27    31    32   ar
    28    32    33    1
    29     6     7   ar
    30     7     8    1
    31    18    19    1
    32    19    11    1
    33    19    15    1
    34     7     1   ar
    35    32    27   ar
    36    22    23    1
@<TRIPOS>MOLECULE
*****
 33 36 0 0 0
SMALL
GASTEIGER

@<TRIPOS>ATOM
      1 C          -8.7513  -18.4760   21.0028 C.ar    1  UNL1        0.0949
      2 C          -9.5399  -18.9982   19.8385 C.ar    1  UNL1        0.1454
      3 F         -10.9347  -18.5032   19.5950 F       1  UNL1       -0.2040
      4 C          -8.9336  -20.0154   18.9179 C.ar    1  UNL1        0.0312
      5 C          -7.5387  -20.5104   19.1614 C.ar    1  UNL1        0.0204
      6 C          -6.7501  -19.9882   20.3257 C.ar    1  UNL1        0.0924
      7 C          -7.3564  -18.9710   21.2463 C.ar    1  UNL1        0.1598
      8 F          -6.5679  -18.4487   22.4106 F       1  UNL1       -0.2026
      9 C          -9.3576  -17.4587   21.9235 C.2     1  UNL1        0.2007
     10 O          -9.6845  -16.0864   21.4138 O.2     1  UNL1       -0.2866
     11 C          -7.9973  -16.0801   24.7019 C.2     1  UNL1        0.1360
     12 C          -7.5513  -15.6444   26.0661 C.2     1  UNL1        0.0837
     13 C          -8.1188  -16.3052   27.2873 C.2     1  UNL1        0.2385
     14 N          -9.1322  -17.4017   27.1443 N.2     1  UNL1       -0.0338
     15 C          -9.5782  -17.8374   25.7801 C.2     1  UNL1        0.3626
     16 N         -10.5550  -18.8830   25.3297 N.2     1  UNL1       -0.0341
     17 C         -10.5913  -18.8684   23.8303 C.2     1  UNL1        0.2355
     18 C          -9.6369  -17.8138   23.3538 C.2     1  UNL1        0.0823
     19 C          -9.0108  -17.1766   24.5589 C.3     1  UNL1        0.1973
     20 C          -5.9590  -15.1384   23.3950 C.3     1  UNL1        0.2520
     21 O          -7.4299  -15.4193   23.4807 O.2     1  UNL1       -0.4746
     22 N          -5.3553  -20.4832   20.5692 N.pl3   1  UNL1       -0.2127
     23 H          -5.1973  -21.4361   20.7597 H       1  UNL1        0.1738
     24 S          -4.2010  -19.5264   20.5225 S.O2    1  UNL1        0.0758
     25 O          -4.9411  -18.6822   19.5276 O.2     1  UNL1       -0.1499
     26 O          -3.4610  -20.3705   21.5173 O.2     1  UNL1       -0.1499
     27 C          -3.0468  -18.5696   20.4758 C.ar    1  UNL1        0.1524
     28 C          -2.0850  -18.6102   19.3254 C.ar    1  UNL1        0.0225
     29 C          -0.9307  -17.6534   19.2786 C.ar    1  UNL1        0.0015
     30 C          -0.7381  -16.6561   20.3823 C.ar    1  UNL1        0.0024
     31 C          -1.6998  -16.6155   21.5328 C.ar    1  UNL1        0.0310
     32 C          -2.8542  -17.5723   21.5795 C.ar    1  UNL1        0.1589
     33 F          -3.8158  -17.5316   22.7300 F       1  UNL1       -0.2027
@<TRIPOS>BOND
     1    20    21    1
     2    21    11    1
     3    11    12    2
     4    12    13    1
     5    13    14    2
     6    14    15    1
     7    15    16    2
     8    16    17    1
     9    17    18    2
    10    18     9    1
    11     9    10    2
    12     9     1    1
    13     1     2   ar
    14     2     3    1
    15     2     4   ar
    16     4     5   ar
    17     5     6   ar
    18     6    22    1
    19    22    24    1
    20    24    25    2
    21    24    26    2
    22    24    27    1
    23    27    28   ar
    24    28    29   ar
    25    29    30   ar
    26    30    31   ar
    27    31    32   ar
    28    32    33    1
    29     6     7   ar
    30     7     8    1
    31    18    19    1
    32    19    11    1
    33    19    15    1
    34     7     1   ar
    35    32    27   ar
    36    22    23    1
@<TRIPOS>MOLECULE
*****
 33 36 0 0 0
SMALL
GASTEIGER

@<TRIPOS>ATOM
      1 C          -8.0106  -19.0772   21.0706 C.ar    1  UNL1        0.0949
      2 C          -8.7733  -19.6825   19.9295 C.ar    1  UNL1        0.1454
      3 F         -10.2176  -19.3337   19.7240 F       1  UNL1       -0.2040
      4 C          -8.0916  -20.6364   18.9941 C.ar    1  UNL1        0.0312
      5 C          -6.6473  -20.9852   19.1996 C.ar    1  UNL1        0.0204
      6 C          -5.8845  -20.3800   20.3406 C.ar    1  UNL1        0.0924
      7 C          -6.5662  -19.4260   21.2761 C.ar    1  UNL1        0.1598
      8 F          -5.8036  -18.8207   22.4172 F       1  UNL1       -0.2026
      9 C          -8.6923  -18.1232   22.0062 C.2     1  UNL1        0.2007
     10 O          -8.4427  -16.6490   21.8870 O.2     1  UNL1       -0.2866
     11 C         -11.9132  -17.2276   22.5479 C.2     1  UNL1        0.1360
     12 C         -13.3301  -17.0101   22.9895 C.2     1  UNL1        0.0837
     13 C         -13.8810  -17.7839   24.1505 C.2     1  UNL1        0.2385
     14 N         -13.0150  -18.7752   24.8697 N.2     1  UNL1       -0.0338
     15 C         -11.5981  -18.9927   24.4280 C.2     1  UNL1        0.3626
     16 N         -10.5147  -19.8955   24.9392 N.2     1  UNL1       -0.0341
     17 C          -9.2943  -19.6797   24.0942 C.2     1  UNL1        0.2355
     18 C          -9.6234  -18.6435   23.0608 C.2     1  UNL1        0.0823
     19 C         -11.0472  -18.2189   23.2671 C.3     1  UNL1        0.1973
     20 C         -11.8286  -16.7578   19.9940 C.3     1  UNL1        0.2520
     21 O         -11.3624  -16.4538   21.3869 O.2     1  UNL1       -0.4746
     22 N          -4.4402  -20.7287   20.5461 N.pl3   1  UNL1       -0.2127
     23 H          -4.1739  -21.6679   20.6735 H       1  UNL1        0.1738
     24 S          -3.4016  -19.6465   20.5575 S.O2    1  UNL1        0.0758
     25 O          -3.9516  -19.1051   19.2713 O.2     1  UNL1       -0.1499
     26 O          -2.8516  -20.1879   21.8438 O.2     1  UNL1       -0.1499
     27 C          -2.3630  -18.5643   20.5691 C.ar    1  UNL1        0.1524
     28 C          -1.1598  -18.6701   19.6797 C.ar    1  UNL1        0.0225
     29 C          -0.1211  -17.5880   19.6911 C.ar    1  UNL1        0.0015
     30 C          -0.2857  -16.4000   20.5919 C.ar    1  UNL1        0.0024
     31 C          -1.4890  -16.2942   21.4813 C.ar    1  UNL1        0.0310
     32 C          -2.5276  -17.3763   21.4699 C.ar    1  UNL1        0.1589
     33 F          -3.7309  -17.2705   22.3593 F       1  UNL1       -0.2027
@<TRIPOS>BOND
     1    20    21    1
     2    21    11    1
     3    11    12    2
     4    12    13    1
     5    13    14    2
     6    14    15    1
     7    15    16    2
     8    16    17    1
     9    17    18    2
    10    18     9    1
    11     9    10    2
    12     9     1    1
    13     1     2   ar
    14     2     3    1
    15     2     4   ar
    16     4     5   ar
    17     5     6   ar
    18     6    22    1
    19    22    24    1
    20    24    25    2
    21    24    26    2
    22    24    27    1
    23    27    28   ar
    24    28    29   ar
    25    29    30   ar
    26    30    31   ar
    27    31    32   ar
    28    32    33    1
    29     6     7   ar
    30     7     8    1
    31    18    19    1
    32    19    11    1
    33    19    15    1
    34     7     1   ar
    35    32    27   ar
    36    22    23    1
@<TRIPOS>MOLECULE
*****
 33 36 0 0 0
SMALL
GASTEIGER

@<TRIPOS>ATOM
      1 C          -6.7758  -19.9756   20.4633 C.ar    1  UNL1        0.0949
      2 C          -7.0087  -21.0288   19.4210 C.ar    1  UNL1        0.1454
      3 F          -5.9509  -22.0552   19.1424 F       1  UNL1       -0.2040
      4 C          -8.2994  -21.0555   18.6573 C.ar    1  UNL1        0.0312
      5 C          -9.3572  -20.0291   18.9358 C.ar    1  UNL1        0.0204
      6 C          -9.1242  -18.9759   19.9782 C.ar    1  UNL1        0.0924
      7 C          -7.8335  -18.9492   20.7419 C.ar    1  UNL1        0.1598
      8 F          -7.6005  -17.8960   21.7843 F       1  UNL1       -0.2026
      9 C          -5.4850  -19.9487   21.2271 C.2     1  UNL1        0.2007
     10 O          -5.4479  -20.4111   22.6535 O.2     1  UNL1       -0.2866
     11 C          -3.5350  -17.3403   22.1566 C.2     1  UNL1        0.1360
     12 C          -2.5209  -16.2529   22.3545 C.2     1  UNL1        0.0837
     13 C          -1.3668  -16.1219   21.4054 C.2     1  UNL1        0.2385
     14 N          -1.2267  -17.0784   20.2584 N.2     1  UNL1       -0.0338
     15 C          -2.2407  -18.1658   20.0605 C.2     1  UNL1        0.3626
     16 N          -2.3640  -19.2476   19.0288 N.2     1  UNL1       -0.0341
     17 C          -3.5943  -20.0472   19.3402 C.2     1  UNL1        0.2355
     18 C          -4.2314  -19.4595   20.5644 C.2     1  UNL1        0.0823
     19 C          -3.3949  -18.2968   21.0096 C.3     1  UNL1        0.1973
     20 C          -5.1691  -16.2748   23.8724 C.3     1  UNL1        0.2520
     21 O          -4.6891  -17.4713   23.1057 O.2     1  UNL1       -0.4746
     22 N         -10.1820  -17.9495   20.2568 N.pl3   1  UNL1       -0.2127
     23 H         -10.3095  -17.1938   19.6389 H       1  UNL1        0.1738
     24 S         -11.0456  -18.0747   21.4768 S.O2    1  UNL1        0.0758
     25 O         -10.6169  -16.7074   21.9205 O.2     1  UNL1       -0.1499
     26 O         -11.4743  -19.4419   21.0331 O.2     1  UNL1       -0.1499
     27 C         -11.9093  -18.1999   22.6968 C.ar    1  UNL1        0.1524
     28 C         -13.3375  -17.7434   22.6547 C.ar    1  UNL1        0.0225
     29 C         -14.2012  -17.8686   23.8747 C.ar    1  UNL1        0.0015
     30 C         -13.6367  -18.4503   25.1368 C.ar    1  UNL1        0.0024
     31 C         -12.2085  -18.9068   25.1789 C.ar    1  UNL1        0.0310
     32 C         -11.3447  -18.7816   23.9589 C.ar    1  UNL1        0.1589
     33 F          -9.9165  -19.2381   24.0011 F       1  UNL1       -0.2027
@<TRIPOS>BOND
     1    20    21    1
     2    21    11    1
     3    11    12    2
     4    12    13    1
     5    13    14    2
     6    14    15    1
     7    15    16    2
     8    16    17    1
     9    17    18    2
    10    18     9    1
    11     9    10    2
    12     9     1    1
    13     1     2   ar
    14     2     3    1
    15     2     4   ar
    16     4     5   ar
    17     5     6   ar
    18     6    22    1
    19    22    24    1
    20    24    25    2
    21    24    26    2
    22    24    27    1
    23    27    28   ar
    24    28    29   ar
    25    29    30   ar
    26    30    31   ar
    27    31    32   ar
    28    32    33    1
    29     6     7   ar
    30     7     8    1
    31    18    19    1
    32    19    11    1
    33    19    15    1
    34     7     1   ar
    35    32    27   ar
    36    22    23    1
@<TRIPOS>MOLECULE
*****
 33 36 0 0 0
SMALL
GASTEIGER

@<TRIPOS>ATOM
      1 C         -11.9376   -5.3968   18.1381 C.ar    1  UNL1        0.0949
      2 C         -11.3943   -5.7510   16.7856 C.ar    1  UNL1        0.1454
      3 F         -10.5077   -4.7852   16.0569 F       1  UNL1       -0.2040
      4 C         -11.7377   -7.0712   16.1618 C.ar    1  UNL1        0.0312
      5 C         -12.6243   -8.0371   16.8905 C.ar    1  UNL1        0.0204
      6 C         -13.1675   -7.6828   18.2430 C.ar    1  UNL1        0.0924
      7 C         -12.8242   -6.3627   18.8668 C.ar    1  UNL1        0.1598
      8 F         -13.3674   -6.0083   20.2194 F       1  UNL1       -0.2026
      9 C         -11.5942   -4.0765   18.7620 C.2     1  UNL1        0.2007
     10 O         -10.1586   -3.7018   18.9821 O.2     1  UNL1       -0.2866
     11 C         -12.7889   -1.4291   17.0200 C.2     1  UNL1        0.1360
     12 C         -13.4836   -0.2238   16.4593 C.2     1  UNL1        0.0837
     13 C         -14.5765    0.4432   17.2407 C.2     1  UNL1        0.2385
     14 N         -14.9747   -0.0951   18.5829 N.2     1  UNL1       -0.0338
     15 C         -14.2800   -1.3005   19.1437 C.2     1  UNL1        0.3626
     16 N         -14.4548   -2.0518   20.4301 N.2     1  UNL1       -0.0341
     17 C         -13.4701   -3.1832   20.4438 C.2     1  UNL1        0.2355
     18 C         -12.6865   -3.1311   19.1657 C.2     1  UNL1        0.0823
     19 C         -13.1871   -1.9675   18.3623 C.3     1  UNL1        0.1973
     20 C         -10.3395   -1.4614   16.1542 C.3     1  UNL1        0.2520
     21 O         -11.6960   -2.0961   16.2386 O.2     1  UNL1       -0.4746
     22 N         -14.0541   -8.6487   18.9717 N.pl3   1  UNL1       -0.2127
     23 H         -13.7287   -9.0987   19.7846 H       1  UNL1        0.1738
     24 S         -15.4367   -8.9291   18.4618 S.O2    1  UNL1        0.0758
     25 O         -15.8710   -7.5572   18.8853 O.2     1  UNL1       -0.1499
     26 O         -15.0023  -10.3009   18.0383 O.2     1  UNL1       -0.1499
     27 C         -16.8191   -9.2095   17.9518 C.ar    1  UNL1        0.1524
     28 C         -17.3741   -8.4098   16.8106 C.ar    1  UNL1        0.0225
     29 C         -18.7566   -8.6901   16.3006 C.ar    1  UNL1        0.0015
     30 C         -19.5842   -9.7702   16.9318 C.ar    1  UNL1        0.0024
     31 C         -19.0292  -10.5700   18.0731 C.ar    1  UNL1        0.0310
     32 C         -17.6467  -10.2896   18.5831 C.ar    1  UNL1        0.1589
     33 F         -17.0918  -11.0894   19.7243 F       1  UNL1       -0.2027
@<TRIPOS>BOND
     1    20    21    1
     2    21    11    1
     3    11    12    2
     4    12    13    1
     5    13    14    2
     6    14    15    1
     7    15    16    2
     8    16    17    1
     9    17    18    2
    10    18     9    1
    11     9    10    2
    12     9     1    1
    13     1     2   ar
    14     2     3    1
    15     2     4   ar
    16     4     5   ar
    17     5     6   ar
    18     6    22    1
    19    22    24    1
    20    24    25    2
    21    24    26    2
    22    24    27    1
    23    27    28   ar
    24    28    29   ar
    25    29    30   ar
    26    30    31   ar
    27    31    32   ar
    28    32    33    1
    29     6     7   ar
    30     7     8    1
    31    18    19    1
    32    19    11    1
    33    19    15    1
    34     7     1   ar
    35    32    27   ar
    36    22    23    1
@<TRIPOS>MOLECULE
*****
 33 36 0 0 0
SMALL
GASTEIGER

@<TRIPOS>ATOM
      1 C         -15.2039   -2.7352   19.2671 C.ar    1  UNL1        0.0949
      2 C         -16.1268   -1.6325   19.6941 C.ar    1  UNL1        0.1454
      3 F         -15.6164   -0.5216   20.5632 F       1  UNL1       -0.2040
      4 C         -17.5602   -1.6409   19.2521 C.ar    1  UNL1        0.0312
      5 C         -18.0706   -2.7519   18.3830 C.ar    1  UNL1        0.0204
      6 C         -17.1476   -3.8545   17.9559 C.ar    1  UNL1        0.0924
      7 C         -15.7143   -3.8461   18.3980 C.ar    1  UNL1        0.1598
      8 F         -14.7912   -4.9487   17.9710 F       1  UNL1       -0.2026
      9 C         -13.7704   -2.7268   19.7091 C.2     1  UNL1        0.2007
     10 O         -13.4116   -3.1636   21.0984 O.2     1  UNL1       -0.2866
     11 C         -11.2455   -4.5823   18.4238 C.2     1  UNL1        0.1360
     12 C         -10.0568   -5.1762   17.7280 C.2     1  UNL1        0.0837
     13 C          -9.2152   -4.3259   16.8232 C.2     1  UNL1        0.2385
     14 N          -9.5623   -2.8817   16.6142 N.2     1  UNL1       -0.0338
     15 C         -10.7510   -2.2878   17.3100 C.2     1  UNL1        0.3626
     16 N         -11.3343   -0.9059   17.2977 N.2     1  UNL1       -0.0341
     17 C         -12.5364   -0.9021   18.1950 C.2     1  UNL1        0.2355
     18 C         -12.6960   -2.2817   18.7617 C.2     1  UNL1        0.0823
     19 C         -11.5926   -3.1381   18.2148 C.3     1  UNL1        0.1973
     20 C         -12.3463   -6.8687   18.9813 C.3     1  UNL1        0.2520
     21 O         -12.0871   -5.4327   19.3286 O.2     1  UNL1       -0.4746
     22 N         -17.6580   -4.9654   17.0869 N.pl3   1  UNL1       -0.2127
     23 H         -18.0586   -4.7609   16.2111 H       1  UNL1        0.1738
     24 S         -17.5580   -6.3879   17.5521 S.O2    1  UNL1        0.0758
     25 O         -16.7080   -6.7177   16.3610 O.2     1  UNL1       -0.1499
     26 O         -18.4079   -6.0581   18.7432 O.2     1  UNL1       -0.1499
     27 C         -17.4580   -7.8104   18.0174 C.ar    1  UNL1        0.1524
     28 C         -18.3208   -8.8664   17.3923 C.ar    1  UNL1        0.0225
     29 C         -18.2209  -10.2889   17.8576 C.ar    1  UNL1        0.0015
     30 C         -17.2582  -10.6555   18.9479 C.ar    1  UNL1        0.0024
     31 C         -16.3955   -9.5995   19.5730 C.ar    1  UNL1        0.0310
     32 C         -16.4954   -8.1770   19.1077 C.ar    1  UNL1        0.1589
     33 F         -15.6326   -7.1211   19.7328 F       1  UNL1       -0.2027
@<TRIPOS>BOND
     1    20    21    1
     2    21    11    1
     3    11    12    2
     4    12    13    1
     5    13    14    2
     6    14    15    1
     7    15    16    2
     8    16    17    1
     9    17    18    2
    10    18     9    1
    11     9    10    2
    12     9     1    1
    13     1     2   ar
    14     2     3    1
    15     2     4   ar
    16     4     5   ar
    17     5     6   ar
    18     6    22    1
    19    22    24    1
    20    24    25    2
    21    24    26    2
    22    24    27    1
    23    27    28   ar
    24    28    29   ar
    25    29    30   ar
    26    30    31   ar
    27    31    32   ar
    28    32    33    1
    29     6     7   ar
    30     7     8    1
    31    18    19    1
    32    19    11    1
    33    19    15    1
    34     7     1   ar
    35    32    27   ar
    36    22    23    1
@<TRIPOS>MOLECULE
*****
 33 36 0 0 0
SMALL
GASTEIGER

@<TRIPOS>ATOM
      1 C           5.3645   -3.2517   22.9828 C.ar    1  UNL1        0.0949
      2 C           4.5851   -2.0958   23.5362 C.ar    1  UNL1        0.1454
      3 F           3.6096   -1.3627   22.6639 F       1  UNL1       -0.2040
      4 C           4.7812   -1.6730   24.9619 C.ar    1  UNL1        0.0312
      5 C           5.7567   -2.4061   25.8342 C.ar    1  UNL1        0.0204
      6 C           6.5361   -3.5620   25.2808 C.ar    1  UNL1        0.0924
      7 C           6.3400   -3.9848   23.8551 C.ar    1  UNL1        0.1598
      8 F           7.1194   -5.1408   23.3016 F       1  UNL1       -0.2026
      9 C           5.1684   -3.6746   21.5570 C.2     1  UNL1        0.2007
     10 O           4.1367   -4.7089   21.2166 O.2     1  UNL1       -0.2866
     11 C           4.1413   -1.6396   19.0521 C.2     1  UNL1        0.1360
     12 C           3.9461   -0.7392   17.8685 C.2     1  UNL1        0.0837
     13 C           5.1177   -0.3637   17.0104 C.2     1  UNL1        0.2385
     14 N           6.4846   -0.8886   17.3360 N.2     1  UNL1       -0.0338
     15 C           6.6799   -1.7890   18.5197 C.2     1  UNL1        0.3626
     16 N           7.8997   -2.4557   19.0833 N.2     1  UNL1       -0.0341
     17 C           7.4820   -3.2432   20.2897 C.2     1  UNL1        0.2355
     18 C           6.0040   -3.0632   20.4716 C.2     1  UNL1        0.0823
     19 C           5.5082   -2.1645   19.3777 C.3     1  UNL1        0.1973
     20 C           1.8098   -1.0743   20.0492 C.3     1  UNL1        0.2520
     21 O           2.9697   -2.0151   19.9102 O.2     1  UNL1       -0.4746
     22 N           7.5116   -4.2951   26.1531 N.pl3   1  UNL1       -0.2127
     23 H           8.2918   -4.7418   25.7518 H       1  UNL1        0.1738
     24 S           7.2984   -4.3477   27.6369 S.O2    1  UNL1        0.0758
     25 O           6.1644   -5.3095   27.4399 O.2     1  UNL1       -0.1499
     26 O           8.4325   -3.3860   27.8340 O.2     1  UNL1       -0.1499
     27 C           7.0853   -4.4002   29.1208 C.ar    1  UNL1        0.1524
     28 C           6.5835   -3.1891   29.8497 C.ar    1  UNL1        0.0225
     29 C           6.3704   -3.2415   31.3336 C.ar    1  UNL1        0.0015
     30 C           6.6591   -4.5051   32.0885 C.ar    1  UNL1        0.0024
     31 C           7.1609   -5.7162   31.3596 C.ar    1  UNL1        0.0310
     32 C           7.3741   -5.6638   29.8757 C.ar    1  UNL1        0.1589
     33 F           7.8759   -6.8750   29.1469 F       1  UNL1       -0.2027
@<TRIPOS>BOND
     1    20    21    1
     2    21    11    1
     3    11    12    2
     4    12    13    1
     5    13    14    2
     6    14    15    1
     7    15    16    2
     8    16    17    1
     9    17    18    2
    10    18     9    1
    11     9    10    2
    12     9     1    1
    13     1     2   ar
    14     2     3    1
    15     2     4   ar
    16     4     5   ar
    17     5     6   ar
    18     6    22    1
    19    22    24    1
    20    24    25    2
    21    24    26    2
    22    24    27    1
    23    27    28   ar
    24    28    29   ar
    25    29    30   ar
    26    30    31   ar
    27    31    32   ar
    28    32    33    1
    29     6     7   ar
    30     7     8    1
    31    18    19    1
    32    19    11    1
    33    19    15    1
    34     7     1   ar
    35    32    27   ar
    36    22    23    1
@<TRIPOS>MOLECULE
*****
 33 36 0 0 0
SMALL
GASTEIGER

@<TRIPOS>ATOM
      1 C          -6.8953  -19.4566   21.1298 C.ar    1  UNL1        0.0949
      2 C          -7.6960  -20.0610   20.0147 C.ar    1  UNL1        0.1454
      3 F          -7.1266  -21.1913   19.2096 F       1  UNL1       -0.2040
      4 C          -9.0661  -19.5350   19.7047 C.ar    1  UNL1        0.0312
      5 C          -9.6355  -18.4047   20.5097 C.ar    1  UNL1        0.0204
      6 C          -8.8348  -17.8003   21.6249 C.ar    1  UNL1        0.0924
      7 C          -7.4647  -18.3263   21.9349 C.ar    1  UNL1        0.1598
      8 F          -6.6639  -17.7219   23.0501 F       1  UNL1       -0.2026
      9 C          -5.5251  -19.9826   21.4399 C.2     1  UNL1        0.2007
     10 O          -5.3183  -20.8882   22.6176 O.2     1  UNL1       -0.2866
     11 C          -3.2077  -17.5817   22.0193 C.2     1  UNL1        0.1360
     12 C          -2.0765  -16.5968   22.0397 C.2     1  UNL1        0.0837
     13 C          -1.0934  -16.5602   20.9074 C.2     1  UNL1        0.2385
     14 N          -1.2415  -17.5085   19.7547 N.2     1  UNL1       -0.0338
     15 C          -2.3726  -18.4934   19.7343 C.2     1  UNL1        0.3626
     16 N          -2.7713  -19.5436   18.7402 N.2     1  UNL1       -0.0341
     17 C          -4.0007  -20.2293   19.2581 C.2     1  UNL1        0.2355
     18 C          -4.3619  -19.6028   20.5723 C.2     1  UNL1        0.0823
     19 C          -3.3557  -18.5300   20.8666 C.3     1  UNL1        0.1973
     20 C          -3.7044  -17.5596   24.5694 C.3     1  UNL1        0.2520
     21 O          -4.1908  -17.6184   23.1517 O.2     1  UNL1       -0.4746
     22 N          -9.4042  -16.6700   22.4300 N.pl3   1  UNL1       -0.2127
     23 H         -10.2147  -16.2046   22.1206 H       1  UNL1        0.1738
     24 S          -8.7386  -16.2486   23.7065 S.O2    1  UNL1        0.0758
     25 O          -8.0758  -15.1123   22.9858 O.2     1  UNL1       -0.1499
     26 O          -9.4015  -17.3850   24.4272 O.2     1  UNL1       -0.1499
     27 C          -8.0731  -15.8274   24.9830 C.ar    1  UNL1        0.1524
     28 C          -8.8175  -15.9178   26.2822 C.ar    1  UNL1        0.0225
     29 C          -8.1520  -15.4966   27.5588 C.ar    1  UNL1        0.0015
     30 C          -6.7422  -14.9849   27.5363 C.ar    1  UNL1        0.0024
     31 C          -5.9979  -14.8945   26.2371 C.ar    1  UNL1        0.0310
     32 C          -6.6633  -15.3157   24.9605 C.ar    1  UNL1        0.1589
     33 F          -5.9189  -15.2253   23.6614 F       1  UNL1       -0.2027
@<TRIPOS>BOND
     1    20    21    1
     2    21    11    1
     3    11    12    2
     4    12    13    1
     5    13    14    2
     6    14    15    1
     7    15    16    2
     8    16    17    1
     9    17    18    2
    10    18     9    1
    11     9    10    2
    12     9     1    1
    13     1     2   ar
    14     2     3    1
    15     2     4   ar
    16     4     5   ar
    17     5     6   ar
    18     6    22    1
    19    22    24    1
    20    24    25    2
    21    24    26    2
    22    24    27    1
    23    27    28   ar
    24    28    29   ar
    25    29    30   ar
    26    30    31   ar
    27    31    32   ar
    28    32    33    1
    29     6     7   ar
    30     7     8    1
    31    18    19    1
    32    19    11    1
    33    19    15    1
    34     7     1   ar
    35    32    27   ar
    36    22    23    1
@<TRIPOS>MOLECULE
*****
 33 36 0 0 0
SMALL
GASTEIGER

@<TRIPOS>ATOM
      1 C         -13.8240   -1.8678   18.0331 C.ar    1  UNL1        0.0949
      2 C         -12.5068   -1.3921   18.5705 C.ar    1  UNL1        0.1454
      3 F         -12.2886    0.0679   18.8367 F       1  UNL1       -0.2040
      4 C         -11.4080   -2.3764   18.8418 C.ar    1  UNL1        0.0312
      5 C         -11.6263   -3.8364   18.5757 C.ar    1  UNL1        0.0204
      6 C         -12.9434   -4.3121   18.0382 C.ar    1  UNL1        0.0924
      7 C         -14.0422   -3.3277   17.7670 C.ar    1  UNL1        0.1598
      8 F         -15.3595   -3.8034   17.2295 F       1  UNL1       -0.2026
      9 C         -14.9229   -0.8834   17.7618 C.2     1  UNL1        0.2007
     10 O         -15.0227   -0.2220   16.4193 O.2     1  UNL1       -0.2866
     11 C         -15.3352    2.0581   19.3890 C.2     1  UNL1        0.1360
     12 C         -15.7159    3.2325   20.2408 C.2     1  UNL1        0.0837
     13 C         -16.8331    3.1080   21.2339 C.2     1  UNL1        0.2385
     14 N         -17.5697    1.8090   21.3752 N.2     1  UNL1       -0.0338
     15 C         -17.1890    0.6345   20.5233 C.2     1  UNL1        0.3626
     16 N         -17.7297   -0.7622   20.4399 N.2     1  UNL1       -0.0341
     17 C         -16.9466   -1.5008   19.3953 C.2     1  UNL1        0.2355
     18 C         -15.9220   -0.5606   18.8331 C.2     1  UNL1        0.0823
     19 C         -16.0718    0.7591   19.5302 C.3     1  UNL1        0.1973
     20 C         -14.3311    3.1529   17.2575 C.3     1  UNL1        0.2520
     21 O         -14.2180    2.1827   18.3958 O.2     1  UNL1       -0.4746
     22 N         -13.1617   -5.7720   17.7721 N.pl3   1  UNL1       -0.2127
     23 H         -12.5134   -6.2756   17.2285 H       1  UNL1        0.1738
     24 S         -14.3676   -6.4648   18.3341 S.O2    1  UNL1        0.0758
     25 O         -14.8203   -6.8037   16.9448 O.2     1  UNL1       -0.1499
     26 O         -13.9149   -6.1258   19.7234 O.2     1  UNL1       -0.1499
     27 C         -15.5735   -7.1574   18.8962 C.ar    1  UNL1        0.1524
     28 C         -16.7679   -6.3563   19.3225 C.ar    1  UNL1        0.0225
     29 C         -17.9738   -7.0489   19.8846 C.ar    1  UNL1        0.0015
     30 C         -17.9854   -8.5427   20.0205 C.ar    1  UNL1        0.0024
     31 C         -16.7910   -9.3438   19.5942 C.ar    1  UNL1        0.0310
     32 C         -15.5851   -8.6512   19.0321 C.ar    1  UNL1        0.1589
     33 F         -14.3908   -9.4524   18.6058 F       1  UNL1       -0.2027
@<TRIPOS>BOND
     1    20    21    1
     2    21    11    1
     3    11    12    2
     4    12    13    1
     5    13    14    2
     6    14    15    1
     7    15    16    2
     8    16    17    1
     9    17    18    2
    10    18     9    1
    11     9    10    2
    12     9     1    1
    13     1     2   ar
    14     2     3    1
    15     2     4   ar
    16     4     5   ar
    17     5     6   ar
    18     6    22    1
    19    22    24    1
    20    24    25    2
    21    24    26    2
    22    24    27    1
    23    27    28   ar
    24    28    29   ar
    25    29    30   ar
    26    30    31   ar
    27    31    32   ar
    28    32    33    1
    29     6     7   ar
    30     7     8    1
    31    18    19    1
    32    19    11    1
    33    19    15    1
    34     7     1   ar
    35    32    27   ar
    36    22    23    1
