@<TRIPOS>MOLECULE
*****
 25 28 0 0 0
SMALL
GASTEIGER

@<TRIPOS>ATOM
      1 C          -8.0842  -16.2101   23.3925 C.ar    1  UNL1        0.1581
      2 N          -6.7368  -16.3670   22.7522 N.ar    1  UNL1       -0.1641
      3 N          -5.6936  -16.1209   23.8015 N.ar    1  UNL1       -0.2463
      4 C          -6.3962  -15.8119   25.0903 C.ar    1  UNL1        0.0799
      5 C          -5.8814  -15.4874   26.4613 C.ar    1  UNL1        0.0188
      6 C          -6.8442  -15.2181   27.5795 C.ar    1  UNL1        0.0015
      7 C          -8.3217  -15.2731   27.3267 C.ar    1  UNL1        0.0001
      8 C          -8.8365  -15.5976   25.9557 C.ar    1  UNL1        0.0032
      9 C          -7.8737  -15.8670   24.8375 C.ar    1  UNL1        0.0413
     10 C         -11.1084  -16.5770   20.9873 C.ar    1  UNL1        0.1965
     11 N         -11.7894  -16.6471   22.3220 N.ar    1  UNL1       -0.0587
     12 O         -10.7394  -16.5182   23.3854 O.2     1  UNL1       -0.3311
     13 C          -9.4095  -16.3684   22.7080 C.ar    1  UNL1        0.2792
     14 N          -9.6376  -16.4047   21.2259 N.ar    1  UNL1       -0.1884
     15 N         -12.3297  -15.4262   19.0039 N.3     1  UNL1       -0.3147
     16 C         -11.7803  -16.6639   19.6491 C.3     1  UNL1        0.1355
     17 H         -12.7482  -15.6681   18.1057 H       1  UNL1        0.1192
     18 H         -11.5752  -14.7555   18.8577 H       1  UNL1        0.1192
     19 C          -4.2084  -16.1745   23.5979 C.3     1  UNL1        0.1538
     20 C          -3.5992  -17.2972   22.8114 C.ar    1  UNL1        0.0021
     21 C          -2.3481  -17.0643   22.0174 C.ar    1  UNL1       -0.0023
     22 C          -1.7389  -18.1869   21.2310 C.ar    1  UNL1       -0.0003
     23 C          -2.3809  -19.5426   21.2386 C.ar    1  UNL1       -0.0000
     24 C          -3.6319  -19.7756   22.0327 C.ar    1  UNL1       -0.0003
     25 C          -4.2411  -18.6529   22.8191 C.ar    1  UNL1       -0.0023
@<TRIPOS>BOND
     1    15    16    1
     2    16    10    1
     3    10    11   ar
     4    11    12   ar
     5    12    13   ar
     6    13     1    1
     7     1     2   ar
     8     2     3   ar
     9     3    19    1
    10    19    20    1
    11    20    21   ar
    12    21    22   ar
    13    22    23   ar
    14    23    24   ar
    15    24    25   ar
    16     3     4   ar
    17     4     5   ar
    18     5     6   ar
    19     6     7   ar
    20     7     8   ar
    21     8     9   ar
    22    13    14   ar
    23    14    10   ar
    24     9     1   ar
    25    25    20   ar
    26     9     4   ar
    27    15    17    1
    28    15    18    1
@<TRIPOS>MOLECULE
*****
 25 28 0 0 0
SMALL
GASTEIGER

@<TRIPOS>ATOM
      1 C          -5.8802  -18.5109   21.6798 C.ar    1  UNL1        0.1581
      2 N          -6.4177  -17.6427   22.7785 N.ar    1  UNL1       -0.1641
      3 N          -7.9076  -17.5667   22.6223 N.ar    1  UNL1       -0.2463
      4 C          -8.2909  -18.3880   21.4271 C.ar    1  UNL1        0.0799
      5 C          -9.6190  -18.6799   20.7939 C.ar    1  UNL1        0.0188
      6 C          -9.6940  -19.5554   19.5783 C.ar    1  UNL1        0.0015
      7 C          -8.4410  -20.1389   18.9957 C.ar    1  UNL1        0.0001
      8 C          -7.1129  -19.8470   19.6289 C.ar    1  UNL1        0.0032
      9 C          -7.0378  -18.9716   20.8446 C.ar    1  UNL1        0.0413
     10 C          -2.1620  -18.8327   20.6134 C.ar    1  UNL1        0.1965
     11 N          -2.2761  -19.9498   21.6080 N.ar    1  UNL1       -0.0587
     12 O          -3.6828  -19.9652   22.1285 O.2     1  UNL1       -0.3311
     13 C          -4.4381  -18.8576   21.4556 C.ar    1  UNL1        0.2792
     14 N          -3.4982  -18.1578   20.5194 N.ar    1  UNL1       -0.1884
     15 N          -1.0499  -17.8409   18.4852 N.3     1  UNL1       -0.3147
     16 C          -0.9284  -18.4566   19.8476 C.3     1  UNL1        0.1355
     17 H          -0.1192  -17.6508   18.1137 H       1  UNL1        0.1192
     18 H          -1.5741  -16.9684   18.5520 H       1  UNL1        0.1192
     19 C          -8.8490  -16.8035   23.5062 C.3     1  UNL1        0.1538
     20 C         -10.3119  -17.1357   23.5079 C.ar    1  UNL1        0.0021
     21 C         -10.8147  -18.3040   24.3030 C.ar    1  UNL1       -0.0023
     22 C         -12.2774  -18.6363   24.3047 C.ar    1  UNL1       -0.0003
     23 C         -13.2373  -17.8001   23.5113 C.ar    1  UNL1       -0.0000
     24 C         -12.7345  -16.6318   22.7162 C.ar    1  UNL1       -0.0003
     25 C         -11.2718  -16.2996   22.7145 C.ar    1  UNL1       -0.0023
@<TRIPOS>BOND
     1    15    16    1
     2    16    10    1
     3    10    11   ar
     4    11    12   ar
     5    12    13   ar
     6    13     1    1
     7     1     2   ar
     8     2     3   ar
     9     3    19    1
    10    19    20    1
    11    20    21   ar
    12    21    22   ar
    13    22    23   ar
    14    23    24   ar
    15    24    25   ar
    16     3     4   ar
    17     4     5   ar
    18     5     6   ar
    19     6     7   ar
    20     7     8   ar
    21     8     9   ar
    22    13    14   ar
    23    14    10   ar
    24     9     1   ar
    25    25    20   ar
    26     9     4   ar
    27    15    17    1
    28    15    18    1
@<TRIPOS>MOLECULE
*****
 25 28 0 0 0
SMALL
GASTEIGER

@<TRIPOS>ATOM
      1 C          -6.5048  -18.5814   21.2892 C.ar    1  UNL1        0.1581
      2 N          -6.7431  -17.6638   22.4516 N.ar    1  UNL1       -0.1641
      3 N          -8.2203  -17.4272   22.5601 N.ar    1  UNL1       -0.2463
      4 C          -8.8950  -18.1985   21.4647 C.ar    1  UNL1        0.0799
      5 C         -10.3378  -18.3435   21.0810 C.ar    1  UNL1        0.0188
      6 C         -10.7204  -19.2018   19.9119 C.ar    1  UNL1        0.0015
      7 C          -9.6601  -19.9152   19.1264 C.ar    1  UNL1        0.0001
      8 C          -8.2173  -19.7702   19.5101 C.ar    1  UNL1        0.0032
      9 C          -7.8348  -18.9119   20.6792 C.ar    1  UNL1        0.0413
     10 C          -2.8276  -19.1647   20.1921 C.ar    1  UNL1        0.1965
     11 N          -3.4082  -20.5344   19.9999 N.ar    1  UNL1       -0.0587
     12 O          -4.8564  -20.4826   20.3874 O.2     1  UNL1       -0.3311
     13 C          -5.1708  -19.0809   20.8192 C.ar    1  UNL1        0.2792
     14 N          -3.9170  -18.2665   20.6986 N.ar    1  UNL1       -0.1884
     15 N          -1.0736  -17.9487   18.7107 N.3     1  UNL1       -0.3147
     16 C          -1.4072  -18.7638   19.9250 C.3     1  UNL1        0.1355
     17 H          -0.0699  -17.7689   18.6872 H       1  UNL1        0.1192
     18 H          -1.5771  -17.0624   18.7473 H       1  UNL1        0.1192
     19 C          -8.9031  -16.5698   23.5841 C.3     1  UNL1        0.1538
     20 C          -8.1820  -16.1861   24.8423 C.ar    1  UNL1        0.0021
     21 C          -8.7590  -16.5499   26.1782 C.ar    1  UNL1       -0.0023
     22 C          -8.0380  -16.1663   27.4363 C.ar    1  UNL1       -0.0003
     23 C          -6.7398  -15.4188   27.3585 C.ar    1  UNL1       -0.0000
     24 C          -6.1627  -15.0550   26.0226 C.ar    1  UNL1       -0.0003
     25 C          -6.8838  -15.4386   24.7645 C.ar    1  UNL1       -0.0023
@<TRIPOS>BOND
     1    15    16    1
     2    16    10    1
     3    10    11   ar
     4    11    12   ar
     5    12    13   ar
     6    13     1    1
     7     1     2   ar
     8     2     3   ar
     9     3    19    1
    10    19    20    1
    11    20    21   ar
    12    21    22   ar
    13    22    23   ar
    14    23    24   ar
    15    24    25   ar
    16     3     4   ar
    17     4     5   ar
    18     5     6   ar
    19     6     7   ar
    20     7     8   ar
    21     8     9   ar
    22    13    14   ar
    23    14    10   ar
    24     9     1   ar
    25    25    20   ar
    26     9     4   ar
    27    15    17    1
    28    15    18    1
@<TRIPOS>MOLECULE
*****
 25 28 0 0 0
SMALL
GASTEIGER

@<TRIPOS>ATOM
      1 C          -5.4204  -18.7040   22.1499 C.ar    1  UNL1        0.1581
      2 N          -6.5853  -19.5953   21.8359 N.ar    1  UNL1       -0.1641
      3 N          -7.8100  -18.9943   22.4594 N.ar    1  UNL1       -0.2463
      4 C          -7.4021  -17.7315   23.1587 C.ar    1  UNL1        0.0799
      5 C          -8.1846  -16.7218   23.9449 C.ar    1  UNL1        0.0188
      6 C          -7.4902  -15.5328   24.5398 C.ar    1  UNL1        0.0015
      7 C          -6.0133  -15.3534   24.3485 C.ar    1  UNL1        0.0001
      8 C          -5.2308  -16.3631   23.5623 C.ar    1  UNL1        0.0032
      9 C          -5.9252  -17.5521   22.9674 C.ar    1  UNL1        0.0413
     10 C          -1.8112  -18.5967   20.7257 C.ar    1  UNL1        0.1965
     11 N          -1.8174  -19.9371   21.3991 N.ar    1  UNL1       -0.0587
     12 O          -3.1702  -20.1404   22.0146 O.2     1  UNL1       -0.3311
     13 C          -4.0000  -18.9257   21.7216 C.ar    1  UNL1        0.2792
     14 N          -3.1602  -17.9717   20.9251 N.ar    1  UNL1       -0.1884
     15 N          -0.7138  -17.8563   18.4903 N.3     1  UNL1       -0.3147
     16 C          -0.6586  -17.9882   19.9835 C.3     1  UNL1        0.1355
     17 H           0.1475  -17.4247   18.1551 H       1  UNL1        0.1192
     18 H          -1.5097  -17.2740   18.2296 H       1  UNL1        0.1192
     19 C          -9.1989  -19.5571   22.3950 C.3     1  UNL1        0.1538
     20 C         -10.3409  -18.6880   21.9582 C.ar    1  UNL1        0.0021
     21 C         -11.4288  -18.3352   22.9288 C.ar    1  UNL1       -0.0023
     22 C         -12.5707  -17.4661   22.4922 C.ar    1  UNL1       -0.0003
     23 C         -12.6247  -16.9499   21.0848 C.ar    1  UNL1       -0.0000
     24 C         -11.5369  -17.3027   20.1142 C.ar    1  UNL1       -0.0003
     25 C         -10.3949  -18.1718   20.5509 C.ar    1  UNL1       -0.0023
@<TRIPOS>BOND
     1    15    16    1
     2    16    10    1
     3    10    11   ar
     4    11    12   ar
     5    12    13   ar
     6    13     1    1
     7     1     2   ar
     8     2     3   ar
     9     3    19    1
    10    19    20    1
    11    20    21   ar
    12    21    22   ar
    13    22    23   ar
    14    23    24   ar
    15    24    25   ar
    16     3     4   ar
    17     4     5   ar
    18     5     6   ar
    19     6     7   ar
    20     7     8   ar
    21     8     9   ar
    22    13    14   ar
    23    14    10   ar
    24     9     1   ar
    25    25    20   ar
    26     9     4   ar
    27    15    17    1
    28    15    18    1
@<TRIPOS>MOLECULE
*****
 25 28 0 0 0
SMALL
GASTEIGER

@<TRIPOS>ATOM
      1 C          -7.9073  -17.8409   22.1061 C.ar    1  UNL1        0.1581
      2 N          -6.8581  -18.8074   21.6427 N.ar    1  UNL1       -0.1641
      3 N          -5.5729  -18.4637   22.3357 N.ar    1  UNL1       -0.2463
      4 C          -5.8279  -17.2848   23.2274 C.ar    1  UNL1        0.0799
      5 C          -4.9328  -16.5122   24.1503 C.ar    1  UNL1        0.0188
      6 C          -5.4804  -15.3545   24.9312 C.ar    1  UNL1        0.0015
      7 C          -6.9232  -14.9696   24.7893 C.ar    1  UNL1        0.0001
      8 C          -7.8184  -15.7422   23.8665 C.ar    1  UNL1        0.0032
      9 C          -7.2707  -16.8999   23.0856 C.ar    1  UNL1        0.0413
     10 C         -11.4863  -17.0573   20.8244 C.ar    1  UNL1        0.1965
     11 N         -11.6108  -18.5141   21.1594 N.ar    1  UNL1       -0.0587
     12 O         -10.2853  -18.9849   21.6803 O.2     1  UNL1       -0.3311
     13 C          -9.3415  -17.8191   21.6672 C.ar    1  UNL1        0.2792
     14 N         -10.0838  -16.6278   21.1383 N.ar    1  UNL1       -0.1884
     15 N         -12.3720  -15.4690   18.9690 N.3     1  UNL1       -0.3147
     16 C         -12.5733  -16.1835   20.2724 C.3     1  UNL1        0.1355
     17 H         -13.2057  -14.9246   18.7474 H       1  UNL1        0.1192
     18 H         -12.2051  -16.1513   18.2295 H       1  UNL1        0.1192
     19 C          -4.2627  -19.1742   22.1667 C.3     1  UNL1        0.1538
     20 C          -3.2249  -18.6222   21.2347 C.ar    1  UNL1        0.0021
     21 C          -2.2227  -17.6243   21.7346 C.ar    1  UNL1       -0.0023
     22 C          -1.1850  -17.0723   20.8029 C.ar    1  UNL1       -0.0003
     23 C          -1.1494  -17.5181   19.3711 C.ar    1  UNL1       -0.0000
     24 C          -2.1516  -18.5160   18.8712 C.ar    1  UNL1       -0.0003
     25 C          -3.1893  -19.0680   19.8030 C.ar    1  UNL1       -0.0023
@<TRIPOS>BOND
     1    15    16    1
     2    16    10    1
     3    10    11   ar
     4    11    12   ar
     5    12    13   ar
     6    13     1    1
     7     1     2   ar
     8     2     3   ar
     9     3    19    1
    10    19    20    1
    11    20    21   ar
    12    21    22   ar
    13    22    23   ar
    14    23    24   ar
    15    24    25   ar
    16     3     4   ar
    17     4     5   ar
    18     5     6   ar
    19     6     7   ar
    20     7     8   ar
    21     8     9   ar
    22    13    14   ar
    23    14    10   ar
    24     9     1   ar
    25    25    20   ar
    26     9     4   ar
    27    15    17    1
    28    15    18    1
@<TRIPOS>MOLECULE
*****
 25 28 0 0 0
SMALL
GASTEIGER

@<TRIPOS>ATOM
      1 C          -9.1620  -17.9277   22.8559 C.ar    1  UNL1        0.1581
      2 N          -8.5530  -19.1544   22.2440 N.ar    1  UNL1       -0.1641
      3 N          -7.0611  -19.0180   22.3192 N.ar    1  UNL1       -0.2463
      4 C          -6.7481  -17.7071   22.9776 C.ar    1  UNL1        0.0799
      5 C          -5.4485  -17.0399   23.3179 C.ar    1  UNL1        0.0188
      6 C          -5.4473  -15.6989   23.9899 C.ar    1  UNL1        0.0015
      7 C          -6.7457  -15.0250   24.3216 C.ar    1  UNL1        0.0001
      8 C          -8.0453  -15.6922   23.9813 C.ar    1  UNL1        0.0032
      9 C          -8.0465  -17.0332   23.3093 C.ar    1  UNL1        0.0413
     10 C         -12.9555  -17.7921   23.6665 C.ar    1  UNL1        0.1965
     11 N         -12.8173  -16.6284   22.7300 N.ar    1  UNL1       -0.0587
     12 O         -11.3795  -16.5376   22.3125 O.2     1  UNL1       -0.3311
     13 C         -10.6290  -17.6452   22.9908 C.ar    1  UNL1        0.2792
     14 N         -11.6029  -18.4204   23.8275 N.ar    1  UNL1       -0.1884
     15 N         -14.2381  -18.5492   25.7951 N.3     1  UNL1       -0.3147
     16 C         -14.2234  -18.2474   24.3259 C.3     1  UNL1        0.1355
     17 H         -15.1747  -18.8430   26.0725 H       1  UNL1        0.1192
     18 H         -13.9757  -17.7129   26.3167 H       1  UNL1        0.1192
     19 C          -6.0583  -20.0171   21.8232 C.3     1  UNL1        0.1538
     20 C          -4.7578  -19.5486   21.2406 C.ar    1  UNL1        0.0021
     21 C          -3.4913  -19.6761   22.0342 C.ar    1  UNL1       -0.0023
     22 C          -2.1908  -19.2076   21.4518 C.ar    1  UNL1       -0.0003
     23 C          -2.1569  -18.6116   20.0757 C.ar    1  UNL1       -0.0000
     24 C          -3.4234  -18.4841   19.2821 C.ar    1  UNL1       -0.0003
     25 C          -4.7238  -18.9526   19.8646 C.ar    1  UNL1       -0.0023
@<TRIPOS>BOND
     1    15    16    1
     2    16    10    1
     3    10    11   ar
     4    11    12   ar
     5    12    13   ar
     6    13     1    1
     7     1     2   ar
     8     2     3   ar
     9     3    19    1
    10    19    20    1
    11    20    21   ar
    12    21    22   ar
    13    22    23   ar
    14    23    24   ar
    15    24    25   ar
    16     3     4   ar
    17     4     5   ar
    18     5     6   ar
    19     6     7   ar
    20     7     8   ar
    21     8     9   ar
    22    13    14   ar
    23    14    10   ar
    24     9     1   ar
    25    25    20   ar
    26     9     4   ar
    27    15    17    1
    28    15    18    1
@<TRIPOS>MOLECULE
*****
 25 28 0 0 0
SMALL
GASTEIGER

@<TRIPOS>ATOM
      1 C          -6.5087  -18.4961   22.0793 C.ar    1  UNL1        0.1581
      2 N          -7.5595  -19.5664   22.0996 N.ar    1  UNL1       -0.1641
      3 N          -8.6628  -19.1154   23.0103 N.ar    1  UNL1       -0.2463
      4 C          -8.2940  -17.7664   23.5527 C.ar    1  UNL1        0.0799
      5 C          -8.9984  -16.8372   24.4963 C.ar    1  UNL1        0.0188
      6 C          -8.3715  -15.5252   24.8644 C.ar    1  UNL1        0.0015
      7 C          -7.0401  -15.1424   24.2890 C.ar    1  UNL1        0.0001
      8 C          -6.3357  -16.0717   23.3455 C.ar    1  UNL1        0.0032
      9 C          -6.9627  -17.3837   22.9774 C.ar    1  UNL1        0.0413
     10 C          -2.8805  -18.3707   20.7061 C.ar    1  UNL1        0.1965
     11 N          -3.6376  -18.8034   19.4856 N.ar    1  UNL1       -0.0587
     12 O          -5.0889  -18.9030   19.8514 O.2     1  UNL1       -0.3311
     13 C          -5.2287  -18.5319   21.2981 C.ar    1  UNL1        0.2792
     14 N          -3.8639  -18.2029   21.8262 N.ar    1  UNL1       -0.1884
     15 N          -0.8641  -16.7654   21.0338 N.3     1  UNL1       -0.3147
     16 C          -1.4000  -18.1453   20.7914 C.3     1  UNL1        0.1355
     17 H           0.1550  -16.7966   21.0622 H       1  UNL1        0.1192
     18 H          -1.2185  -16.4145   21.9235 H       1  UNL1        0.1192
     19 C          -9.9151  -19.8793   23.3235 C.3     1  UNL1        0.1538
     20 C         -11.2311  -19.1633   23.3998 C.ar    1  UNL1        0.0021
     21 C         -11.7726  -18.4584   22.1916 C.ar    1  UNL1       -0.0023
     22 C         -13.0885  -17.7425   22.2678 C.ar    1  UNL1       -0.0003
     23 C         -13.8629  -17.7315   23.5524 C.ar    1  UNL1       -0.0000
     24 C         -13.3214  -18.4364   24.7606 C.ar    1  UNL1       -0.0003
     25 C         -12.0056  -19.1524   24.6844 C.ar    1  UNL1       -0.0023
@<TRIPOS>BOND
     1    15    16    1
     2    16    10    1
     3    10    11   ar
     4    11    12   ar
     5    12    13   ar
     6    13     1    1
     7     1     2   ar
     8     2     3   ar
     9     3    19    1
    10    19    20    1
    11    20    21   ar
    12    21    22   ar
    13    22    23   ar
    14    23    24   ar
    15    24    25   ar
    16     3     4   ar
    17     4     5   ar
    18     5     6   ar
    19     6     7   ar
    20     7     8   ar
    21     8     9   ar
    22    13    14   ar
    23    14    10   ar
    24     9     1   ar
    25    25    20   ar
    26     9     4   ar
    27    15    17    1
    28    15    18    1
@<TRIPOS>MOLECULE
*****
 25 28 0 0 0
SMALL
GASTEIGER

@<TRIPOS>ATOM
      1 C          -7.6879  -17.8626   22.3259 C.ar    1  UNL1        0.1581
      2 N          -6.2723  -18.3038   22.0991 N.ar    1  UNL1       -0.1641
      3 N          -6.2507  -19.1867   20.8867 N.ar    1  UNL1       -0.2463
      4 C          -7.6528  -19.2911   20.3641 C.ar    1  UNL1        0.0799
      5 C          -8.2355  -20.0256   19.1933 C.ar    1  UNL1        0.0188
      6 C          -9.7065  -19.9418   18.9120 C.ar    1  UNL1        0.0015
      7 C         -10.5948  -19.1234   19.8015 C.ar    1  UNL1        0.0001
      8 C         -10.0121  -18.3889   20.9724 C.ar    1  UNL1        0.0032
      9 C          -8.5411  -18.4727   21.2537 C.ar    1  UNL1        0.0413
     10 C          -8.2975  -15.7697   25.5375 C.ar    1  UNL1        0.1965
     11 N          -9.5076  -15.4139   24.7255 N.ar    1  UNL1       -0.0587
     12 O          -9.4265  -16.1546   23.4237 O.2     1  UNL1       -0.3311
     13 C          -8.1663  -16.9682   23.4310 C.ar    1  UNL1        0.2792
     14 N          -7.4686  -16.7303   24.7373 N.ar    1  UNL1       -0.1884
     15 N          -6.5636  -14.8766   27.2537 N.3     1  UNL1       -0.3147
     16 C          -7.9734  -15.2553   26.9086 C.3     1  UNL1        0.1355
     17 H          -6.5259  -14.5501   28.2193 H       1  UNL1        0.1192
     18 H          -6.2492  -14.1327   26.6307 H       1  UNL1        0.1192
     19 C          -5.0395  -19.8489   20.2997 C.3     1  UNL1        0.1538
     20 C          -3.7202  -19.1349   20.2997 C.ar    1  UNL1        0.0021
     21 C          -3.2885  -18.3569   19.0922 C.ar    1  UNL1       -0.0023
     22 C          -1.9694  -17.6429   19.0921 C.ar    1  UNL1       -0.0003
     23 C          -1.0819  -17.7070   20.2997 C.ar    1  UNL1       -0.0000
     24 C          -1.5136  -18.4850   21.5073 C.ar    1  UNL1       -0.0003
     25 C          -2.8327  -19.1990   21.5073 C.ar    1  UNL1       -0.0023
@<TRIPOS>BOND
     1    15    16    1
     2    16    10    1
     3    10    11   ar
     4    11    12   ar
     5    12    13   ar
     6    13     1    1
     7     1     2   ar
     8     2     3   ar
     9     3    19    1
    10    19    20    1
    11    20    21   ar
    12    21    22   ar
    13    22    23   ar
    14    23    24   ar
    15    24    25   ar
    16     3     4   ar
    17     4     5   ar
    18     5     6   ar
    19     6     7   ar
    20     7     8   ar
    21     8     9   ar
    22    13    14   ar
    23    14    10   ar
    24     9     1   ar
    25    25    20   ar
    26     9     4   ar
    27    15    17    1
    28    15    18    1
@<TRIPOS>MOLECULE
*****
 25 28 0 0 0
SMALL
GASTEIGER

@<TRIPOS>ATOM
      1 C          -7.7949  -17.8083   21.9615 C.ar    1  UNL1        0.1581
      2 N          -6.6074  -17.3543   22.7575 N.ar    1  UNL1       -0.1641
      3 N          -5.4552  -18.2559   22.4262 N.ar    1  UNL1       -0.2463
      4 C          -5.9307  -19.2670   21.4254 C.ar    1  UNL1        0.0799
      5 C          -5.2337  -20.4039   20.7386 C.ar    1  UNL1        0.0188
      6 C          -5.9828  -21.2641   19.7645 C.ar    1  UNL1        0.0015
      7 C          -7.4288  -20.9875   19.4773 C.ar    1  UNL1        0.0001
      8 C          -8.1258  -19.8506   20.1641 C.ar    1  UNL1        0.0032
      9 C          -7.3767  -18.9904   21.1382 C.ar    1  UNL1        0.0413
     10 C         -11.3323  -16.3613   21.2841 C.ar    1  UNL1        0.1965
     11 N         -11.1934  -16.1102   22.7564 N.ar    1  UNL1       -0.0587
     12 O          -9.8514  -16.6217   23.1894 O.2     1  UNL1       -0.3311
     13 C          -9.1609  -17.1889   21.9846 C.ar    1  UNL1        0.2792
     14 N         -10.0760  -17.0279   20.8072 N.ar    1  UNL1       -0.1884
     15 N         -12.3193  -15.5135   19.0353 N.3     1  UNL1       -0.3147
     16 C         -12.5189  -16.0077   20.4374 C.3     1  UNL1        0.1355
     17 H         -13.2264  -15.3227   18.6098 H       1  UNL1        0.1192
     18 H         -11.8309  -16.2242   18.4906 H       1  UNL1        0.1192
     19 C          -4.0707  -18.1627   22.9957 C.3     1  UNL1        0.1538
     20 C          -2.9079  -17.8661   22.0957 C.ar    1  UNL1        0.0021
     21 C          -2.2697  -18.9704   21.3063 C.ar    1  UNL1       -0.0023
     22 C          -1.1069  -18.6739   20.4062 C.ar    1  UNL1       -0.0003
     23 C          -0.5824  -17.2729   20.2957 C.ar    1  UNL1       -0.0000
     24 C          -1.2206  -16.1686   21.0851 C.ar    1  UNL1       -0.0003
     25 C          -2.3833  -16.4652   21.9851 C.ar    1  UNL1       -0.0023
@<TRIPOS>BOND
     1    15    16    1
     2    16    10    1
     3    10    11   ar
     4    11    12   ar
     5    12    13   ar
     6    13     1    1
     7     1     2   ar
     8     2     3   ar
     9     3    19    1
    10    19    20    1
    11    20    21   ar
    12    21    22   ar
    13    22    23   ar
    14    23    24   ar
    15    24    25   ar
    16     3     4   ar
    17     4     5   ar
    18     5     6   ar
    19     6     7   ar
    20     7     8   ar
    21     8     9   ar
    22    13    14   ar
    23    14    10   ar
    24     9     1   ar
    25    25    20   ar
    26     9     4   ar
    27    15    17    1
    28    15    18    1
