@<TRIPOS>MOLECULE
*****
 34 37 0 0 0
SMALL
GASTEIGER

@<TRIPOS>ATOM
      1 N           3.5695    0.4803   22.0378 N.am    1  UNL1       -0.2533
      2 C           2.2514    0.9795   22.5507 C.2     1  UNL1        0.3092
      3 O           0.9752    0.5262   21.9056 O.2     1  UNL1       -0.2521
      4 N           2.2092    1.9320   23.7087 N.am    1  UNL1       -0.2680
      5 H           4.4071    0.7779   22.4613 H       1  UNL1        0.1578
      6 H           3.0467    2.2296   24.1322 H       1  UNL1        0.1564
      7 C           0.8909    2.4312   24.2216 C.ar    1  UNL1        0.0517
      8 C           0.2264    1.7431   25.3770 C.ar    1  UNL1        0.0162
      9 C          -1.0918    2.2422   25.8898 C.ar    1  UNL1        0.0188
     10 C          -1.7456    3.4295   25.2474 C.ar    1  UNL1        0.0652
     11 C          -1.0812    4.1177   24.0920 C.ar    1  UNL1        0.0188
     12 C           0.2371    3.6185   23.5791 C.ar    1  UNL1        0.0162
     13 N          -3.0639    3.9287   25.7603 N.ar    1  UNL1       -0.2915
     14 C          -3.2930    4.6327   27.0648 C.ar    1  UNL1        0.1825
     15 N          -4.7552    4.9506   27.1694 N.ar    1  UNL1       -0.2224
     16 C          -5.4298    4.4430   25.9295 C.ar    1  UNL1        0.1137
     17 C          -4.3844    3.8114   25.0586 C.ar    1  UNL1        0.0623
     18 C          -4.6186    3.1745   23.7209 C.3     1  UNL1        0.0521
     19 N           3.1477   -0.1831   19.4831 N.ar    1  UNL1       -0.2162
     20 N           3.3746   -1.4133   18.6554 N.ar    1  UNL1       -0.1683
     21 C           3.9789   -2.4626   19.5406 C.ar    1  UNL1        0.0810
     22 C           4.1255   -1.8810   20.9154 C.ar    1  UNL1        0.0509
     23 C           3.6118   -0.4722   20.8799 C.ar    1  UNL1        0.1380
     24 C           0.7963    4.9863   17.5468 C.3     1  UNL1        0.0310
     25 C           1.3842    3.6939   18.0309 C.ar    1  UNL1       -0.0218
     26 C           0.5076    2.4889   18.2022 C.ar    1  UNL1       -0.0027
     27 C           1.0954    1.1965   18.6862 C.ar    1  UNL1        0.0189
     28 C           2.5598    1.1093   18.9990 C.ar    1  UNL1        0.0842
     29 C           3.4364    2.3143   18.8277 C.ar    1  UNL1        0.0189
     30 C           2.8486    3.6067   18.3437 C.ar    1  UNL1       -0.0027
     31 C           4.3683   -3.8500   19.1240 C.3     1  UNL1        0.0372
     32 C           5.8128   -3.4457   19.1277 C.3     1  UNL1        0.0060
     33 C           2.9239   -4.2543   19.1203 C.3     1  UNL1        0.0060
     34 C           4.7577   -5.2374   18.7075 C.3     1  UNL1        0.0060
@<TRIPOS>BOND
     1    24    25    1
     2    25    26   ar
     3    26    27   ar
     4    27    28   ar
     5    28    19    1
     6    19    20   ar
     7    20    21   ar
     8    21    31    1
     9    31    32    1
    10    31    33    1
    11    31    34    1
    12    21    22   ar
    13    22    23   ar
    14    23     1    1
    15     1     2   am
    16     2     3    2
    17     2     4   am
    18     4     7    1
    19     7     8   ar
    20     8     9   ar
    21     9    10   ar
    22    10    13    1
    23    13    14   ar
    24    14    15   ar
    25    15    16   ar
    26    16    17   ar
    27    17    18    1
    28    10    11   ar
    29    11    12   ar
    30    28    29   ar
    31    29    30   ar
    32    30    25   ar
    33    23    19   ar
    34    12     7   ar
    35    17    13   ar
    36     1     5    1
    37     4     6    1
@<TRIPOS>MOLECULE
*****
 34 37 0 0 0
SMALL
GASTEIGER

@<TRIPOS>ATOM
      1 N          -0.3909    4.2735   22.6982 N.am    1  UNL1       -0.2533
      2 C           0.3820    3.1801   22.0223 C.2     1  UNL1        0.3092
      3 O          -0.2298    1.8204   21.8579 O.2     1  UNL1       -0.2521
      4 N           1.7667    3.4462   21.5107 N.am    1  UNL1       -0.2680
      5 H           0.0106    5.1659   22.8060 H       1  UNL1        0.1578
      6 H           2.1683    4.3386   21.6186 H       1  UNL1        0.1564
      7 C           2.5396    2.3527   20.8349 C.ar    1  UNL1        0.0517
      8 C           3.5017    1.5157   21.6247 C.ar    1  UNL1        0.0162
      9 C           4.2746    0.4222   20.9488 C.ar    1  UNL1        0.0188
     10 C           4.0855    0.1656   19.4831 C.ar    1  UNL1        0.0652
     11 C           3.1234    1.0026   18.6933 C.ar    1  UNL1        0.0188
     12 C           2.3505    2.0961   19.3692 C.ar    1  UNL1        0.0162
     13 N           4.8584   -0.9279   18.8072 N.ar    1  UNL1       -0.2915
     14 C           6.0501   -0.7436   17.9150 C.ar    1  UNL1        0.1825
     15 N           6.5035   -2.0995   17.4613 N.ar    1  UNL1       -0.2224
     16 C           5.5921   -3.1218   18.0730 C.ar    1  UNL1        0.1137
     17 C           4.5753   -2.3977   18.9049 C.ar    1  UNL1        0.0623
     18 C           3.4697   -3.0320   19.6955 C.3     1  UNL1        0.0521
     19 N          -2.1238    3.3909   24.5321 N.ar    1  UNL1       -0.2162
     20 N          -3.6187    3.3136   24.6283 N.ar    1  UNL1       -0.1683
     21 C          -4.1945    3.8823   23.3653 C.ar    1  UNL1        0.0810
     22 C          -3.0555    4.3111   22.4886 C.ar    1  UNL1        0.0509
     23 C          -1.7757    4.0074   23.2097 C.ar    1  UNL1        0.1380
     24 C           1.7784    1.5562   28.7043 C.3     1  UNL1        0.0310
     25 C           0.8028    2.0149   27.6612 C.ar    1  UNL1       -0.0218
     26 C          -0.0170    3.2495   27.8924 C.ar    1  UNL1       -0.0027
     27 C          -0.9925    3.7082   26.8493 C.ar    1  UNL1        0.0189
     28 C          -1.1482    2.9322   25.5751 C.ar    1  UNL1        0.0842
     29 C          -0.3284    1.6976   25.3440 C.ar    1  UNL1        0.0189
     30 C           0.6472    1.2389   26.3871 C.ar    1  UNL1       -0.0027
     31 C          -5.6532    4.0013   23.0369 C.3     1  UNL1        0.0372
     32 C          -5.3604    3.6484   21.6087 C.3     1  UNL1        0.0060
     33 C          -5.9461    4.3542   24.4650 C.3     1  UNL1        0.0060
     34 C          -7.1120    4.1203   22.7084 C.3     1  UNL1        0.0060
@<TRIPOS>BOND
     1    24    25    1
     2    25    26   ar
     3    26    27   ar
     4    27    28   ar
     5    28    19    1
     6    19    20   ar
     7    20    21   ar
     8    21    31    1
     9    31    32    1
    10    31    33    1
    11    31    34    1
    12    21    22   ar
    13    22    23   ar
    14    23     1    1
    15     1     2   am
    16     2     3    2
    17     2     4   am
    18     4     7    1
    19     7     8   ar
    20     8     9   ar
    21     9    10   ar
    22    10    13    1
    23    13    14   ar
    24    14    15   ar
    25    15    16   ar
    26    16    17   ar
    27    17    18    1
    28    10    11   ar
    29    11    12   ar
    30    28    29   ar
    31    29    30   ar
    32    30    25   ar
    33    23    19   ar
    34    12     7   ar
    35    17    13   ar
    36     1     5    1
    37     4     6    1
@<TRIPOS>MOLECULE
*****
 34 37 0 0 0
SMALL
GASTEIGER

@<TRIPOS>ATOM
      1 N           4.3564    0.5677   23.7966 N.am    1  UNL1       -0.2533
      2 C           4.7312   -0.7757   24.3486 C.2     1  UNL1        0.3092
      3 O           3.6622   -1.7238   24.8051 O.2     1  UNL1       -0.2521
      4 N           6.1750   -1.1710   24.4442 N.am    1  UNL1       -0.2680
      5 H           5.0580    1.1899   23.4970 H       1  UNL1        0.1578
      6 H           6.8767   -0.5488   24.1447 H       1  UNL1        0.1564
      7 C           6.5498   -2.5144   24.9963 C.ar    1  UNL1        0.0517
      8 C           6.4932   -2.7600   26.4750 C.ar    1  UNL1        0.0162
      9 C           6.8680   -4.1034   27.0270 C.ar    1  UNL1        0.0188
     10 C           7.2993   -5.2013   26.1005 C.ar    1  UNL1        0.0652
     11 C           7.3559   -4.9557   24.6218 C.ar    1  UNL1        0.0188
     12 C           6.9811   -3.6123   24.0698 C.ar    1  UNL1        0.0162
     13 N           7.6741   -6.5447   26.6526 N.ar    1  UNL1       -0.2915
     14 C           7.1055   -7.8645   26.2226 C.ar    1  UNL1        0.1825
     15 N           7.7633   -8.9396   27.0358 N.ar    1  UNL1       -0.2224
     16 C           8.7384   -8.2843   27.9684 C.ar    1  UNL1        0.1137
     17 C           8.6833   -6.8041   27.7315 C.ar    1  UNL1        0.0623
     18 C           9.4949   -5.7658   28.4479 C.3     1  UNL1        0.0521
     19 N           2.0642    0.9108   22.4650 N.ar    1  UNL1       -0.2162
     20 N           0.6910    1.3955   22.8247 N.ar    1  UNL1       -0.1683
     21 C           0.6907    1.7473   24.2829 C.ar    1  UNL1        0.0810
     22 C           2.0638    1.4800   24.8244 C.ar    1  UNL1        0.0509
     23 C           2.9126    0.9630   23.7009 C.ar    1  UNL1        0.1380
     24 C           3.8497   -0.9160   17.0360 C.3     1  UNL1        0.0310
     25 C           3.4033   -0.4593   18.3932 C.ar    1  UNL1       -0.0218
     26 C           3.2347    1.0045   18.6741 C.ar    1  UNL1       -0.0027
     27 C           2.7884    1.4612   20.0314 C.ar    1  UNL1        0.0189
     28 C           2.5105    0.4541   21.1078 C.ar    1  UNL1        0.0842
     29 C           2.6791   -1.0096   20.8269 C.ar    1  UNL1        0.0189
     30 C           3.1255   -1.4663   19.4696 C.ar    1  UNL1       -0.0027
     31 C          -0.4775    2.2739   25.0626 C.3     1  UNL1        0.0372
     32 C          -0.1642    1.3196   26.1766 C.3     1  UNL1        0.0060
     33 C          -0.7909    3.2282   23.9486 C.3     1  UNL1        0.0060
     34 C          -1.6457    2.8005   25.8423 C.3     1  UNL1        0.0060
@<TRIPOS>BOND
     1    24    25    1
     2    25    26   ar
     3    26    27   ar
     4    27    28   ar
     5    28    19    1
     6    19    20   ar
     7    20    21   ar
     8    21    31    1
     9    31    32    1
    10    31    33    1
    11    31    34    1
    12    21    22   ar
    13    22    23   ar
    14    23     1    1
    15     1     2   am
    16     2     3    2
    17     2     4   am
    18     4     7    1
    19     7     8   ar
    20     8     9   ar
    21     9    10   ar
    22    10    13    1
    23    13    14   ar
    24    14    15   ar
    25    15    16   ar
    26    16    17   ar
    27    17    18    1
    28    10    11   ar
    29    11    12   ar
    30    28    29   ar
    31    29    30   ar
    32    30    25   ar
    33    23    19   ar
    34    12     7   ar
    35    17    13   ar
    36     1     5    1
    37     4     6    1
@<TRIPOS>MOLECULE
*****
 34 37 0 0 0
SMALL
GASTEIGER

@<TRIPOS>ATOM
      1 N           2.7145    1.1625   20.4349 N.am    1  UNL1       -0.2533
      2 C           1.2763    1.4868   20.1588 C.2     1  UNL1        0.3092
      3 O           0.2674    0.3827   20.0428 O.2     1  UNL1       -0.2521
      4 N           0.8467    2.9150   19.9986 N.am    1  UNL1       -0.2680
      5 H           3.3766    1.8871   20.5110 H       1  UNL1        0.1578
      6 H           1.5088    3.6396   20.0746 H       1  UNL1        0.1564
      7 C          -0.5915    3.2392   19.7225 C.ar    1  UNL1        0.0517
      8 C          -1.6182    3.0756   20.8038 C.ar    1  UNL1        0.0162
      9 C          -3.0565    3.3998   20.5276 C.ar    1  UNL1        0.0188
     10 C          -3.4682    3.8875   19.1703 C.ar    1  UNL1        0.0652
     11 C          -2.4415    4.0511   18.0890 C.ar    1  UNL1        0.0188
     12 C          -1.0032    3.7269   18.3651 C.ar    1  UNL1        0.0162
     13 N          -4.9065    4.2117   18.8942 N.ar    1  UNL1       -0.2915
     14 C          -6.0348    3.2258   18.8243 C.ar    1  UNL1        0.1825
     15 N          -7.2946    3.9834   18.5264 N.ar    1  UNL1       -0.2224
     16 C          -6.9449    5.4376   18.4121 C.ar    1  UNL1        0.1137
     17 C          -5.4689    5.5787   18.6394 C.ar    1  UNL1        0.0623
     18 C          -4.6919    6.8615   18.6161 C.3     1  UNL1        0.0521
     19 N           3.2754   -1.0066   21.8927 N.ar    1  UNL1       -0.2162
     20 N           3.7302   -2.4026   21.5853 N.ar    1  UNL1       -0.1683
     21 C           3.8798   -2.5244   20.0978 C.ar    1  UNL1        0.0810
     22 C           3.5175   -1.2038   19.4858 C.ar    1  UNL1        0.0509
     23 C           3.1440   -0.2657   20.5951 C.ar    1  UNL1        0.1380
     24 C           2.1753    1.2223   27.3536 C.3     1  UNL1        0.0310
     25 C           2.4504    0.6651   25.9884 C.ar    1  UNL1       -0.0218
     26 C           3.5940   -0.2832   25.7818 C.ar    1  UNL1       -0.0027
     27 C           3.8691   -0.8404   24.4166 C.ar    1  UNL1        0.0189
     28 C           3.0004   -0.4494   23.2579 C.ar    1  UNL1        0.0842
     29 C           1.8567    0.4989   23.4645 C.ar    1  UNL1        0.0189
     30 C           1.5817    1.0561   24.8298 C.ar    1  UNL1       -0.0027
     31 C           4.3152   -3.7515   19.3531 C.3     1  UNL1        0.0372
     32 C           3.7472   -4.6135   20.4413 C.3     1  UNL1        0.0060
     33 C           4.8832   -2.8895   18.2648 C.3     1  UNL1        0.0060
     34 C           4.7507   -4.9786   18.6083 C.3     1  UNL1        0.0060
@<TRIPOS>BOND
     1    24    25    1
     2    25    26   ar
     3    26    27   ar
     4    27    28   ar
     5    28    19    1
     6    19    20   ar
     7    20    21   ar
     8    21    31    1
     9    31    32    1
    10    31    33    1
    11    31    34    1
    12    21    22   ar
    13    22    23   ar
    14    23     1    1
    15     1     2   am
    16     2     3    2
    17     2     4   am
    18     4     7    1
    19     7     8   ar
    20     8     9   ar
    21     9    10   ar
    22    10    13    1
    23    13    14   ar
    24    14    15   ar
    25    15    16   ar
    26    16    17   ar
    27    17    18    1
    28    10    11   ar
    29    11    12   ar
    30    28    29   ar
    31    29    30   ar
    32    30    25   ar
    33    23    19   ar
    34    12     7   ar
    35    17    13   ar
    36     1     5    1
    37     4     6    1
@<TRIPOS>MOLECULE
*****
 34 37 0 0 0
SMALL
GASTEIGER

@<TRIPOS>ATOM
      1 N           6.9847   -1.6424   27.9630 N.am    1  UNL1       -0.2533
      2 C           5.8957   -1.3291   26.9803 C.2     1  UNL1        0.3092
      3 O           4.4578   -1.4518   27.3897 O.2     1  UNL1       -0.2521
      4 N           6.2444   -0.8929   25.5881 N.am    1  UNL1       -0.2680
      5 H           7.9283   -1.5618   27.6942 H       1  UNL1        0.1578
      6 H           7.1881   -0.8123   25.3193 H       1  UNL1        0.1564
      7 C           5.1553   -0.5796   24.6054 C.ar    1  UNL1        0.0517
      8 C           4.7568    0.8449   24.3564 C.ar    1  UNL1        0.0162
      9 C           3.6677    1.1582   23.3737 C.ar    1  UNL1        0.0188
     10 C           2.9771    0.0471   22.6399 C.ar    1  UNL1        0.0652
     11 C           3.3756   -1.3774   22.8889 C.ar    1  UNL1        0.0188
     12 C           4.4647   -1.6907   23.8716 C.ar    1  UNL1        0.0162
     13 N           1.8880    0.3605   21.6572 N.ar    1  UNL1       -0.2915
     14 C           0.5832    1.0306   21.9711 C.ar    1  UNL1        0.1825
     15 N          -0.1986    1.1429   20.6959 N.ar    1  UNL1       -0.2224
     16 C           0.6229    0.5423   19.5940 C.ar    1  UNL1        0.1137
     17 C           1.9126    0.0587   20.1881 C.ar    1  UNL1        0.0623
     18 C           3.0304   -0.6094   19.4438 C.3     1  UNL1        0.0521
     19 N           6.6608   -3.4871   29.8701 N.ar    1  UNL1       -0.2162
     20 N           6.2414   -3.4617   31.3100 N.ar    1  UNL1       -0.1683
     21 C           5.9573   -2.0374   31.6851 C.ar    1  UNL1        0.0810
     22 C           6.2012   -1.1825   30.4769 C.ar    1  UNL1        0.0509
     23 C           6.6360   -2.0785   29.3552 C.ar    1  UNL1        0.1380
     24 C           8.1724   -8.3665   26.7226 C.3     1  UNL1        0.0310
     25 C           7.7945   -7.1467   27.5095 C.ar    1  UNL1       -0.0218
     26 C           8.4776   -6.8532   28.8123 C.ar    1  UNL1       -0.0027
     27 C           8.0996   -5.6334   29.5991 C.ar    1  UNL1        0.0189
     28 C           7.0387   -4.7070   29.0832 C.ar    1  UNL1        0.0842
     29 C           6.3557   -5.0005   27.7804 C.ar    1  UNL1        0.0189
     30 C           6.7336   -6.2203   26.9936 C.ar    1  UNL1       -0.0027
     31 C           5.5083   -1.5530   33.0318 C.3     1  UNL1        0.0372
     32 C           4.5649   -2.7147   33.1350 C.3     1  UNL1        0.0060
     33 C           6.4516   -0.3914   32.9286 C.3     1  UNL1        0.0060
     34 C           5.0592   -1.0687   34.3785 C.3     1  UNL1        0.0060
@<TRIPOS>BOND
     1    24    25    1
     2    25    26   ar
     3    26    27   ar
     4    27    28   ar
     5    28    19    1
     6    19    20   ar
     7    20    21   ar
     8    21    31    1
     9    31    32    1
    10    31    33    1
    11    31    34    1
    12    21    22   ar
    13    22    23   ar
    14    23     1    1
    15     1     2   am
    16     2     3    2
    17     2     4   am
    18     4     7    1
    19     7     8   ar
    20     8     9   ar
    21     9    10   ar
    22    10    13    1
    23    13    14   ar
    24    14    15   ar
    25    15    16   ar
    26    16    17   ar
    27    17    18    1
    28    10    11   ar
    29    11    12   ar
    30    28    29   ar
    31    29    30   ar
    32    30    25   ar
    33    23    19   ar
    34    12     7   ar
    35    17    13   ar
    36     1     5    1
    37     4     6    1
@<TRIPOS>MOLECULE
*****
 34 37 0 0 0
SMALL
GASTEIGER

@<TRIPOS>ATOM
      1 N          -0.7403    3.9174   20.6579 N.am    1  UNL1       -0.2533
      2 C          -0.0723    2.5832   20.5049 C.2     1  UNL1        0.3092
      3 O          -0.8935    1.3279   20.5138 O.2     1  UNL1       -0.2521
      4 N           1.4168    2.5041   20.3429 N.am    1  UNL1       -0.2680
      5 H          -0.2014    4.7413   20.6520 H       1  UNL1        0.1578
      6 H           1.9558    3.3279   20.3371 H       1  UNL1        0.1564
      7 C           2.0848    1.1697   20.1899 C.ar    1  UNL1        0.0517
      8 C           2.2843    0.2892   21.3877 C.ar    1  UNL1        0.0162
      9 C           2.9523   -1.0452   21.2347 C.ar    1  UNL1        0.0188
     10 C           3.4207   -1.4990   19.8840 C.ar    1  UNL1        0.0652
     11 C           3.2211   -0.6184   18.6861 C.ar    1  UNL1        0.0188
     12 C           2.5532    0.7159   18.8392 C.ar    1  UNL1        0.0162
     13 N           4.0886   -2.8333   19.7309 N.ar    1  UNL1       -0.2915
     14 C           3.4485   -4.0849   19.2079 C.ar    1  UNL1        0.1825
     15 N           4.4782   -5.1754   19.2278 N.ar    1  UNL1       -0.2224
     16 C           5.7548   -4.5978   19.7632 C.ar    1  UNL1        0.1137
     17 C           5.5140   -3.1502   20.0742 C.ar    1  UNL1        0.0623
     18 C           6.5217   -2.1885   20.6306 C.3     1  UNL1        0.0521
     19 N          -2.9699    4.1165   22.1188 N.ar    1  UNL1       -0.2162
     20 N          -4.4377    4.1637   21.8129 N.ar    1  UNL1       -0.1683
     21 C          -4.6043    4.0729   20.3249 C.ar    1  UNL1        0.0810
     22 C          -3.2395    3.9696   19.7112 C.ar    1  UNL1        0.0509
     23 C          -2.2295    3.9965   20.8198 C.ar    1  UNL1        0.1380
     24 C          -0.4955    4.3640   27.5791 C.3     1  UNL1        0.0310
     25 C          -1.1141    4.3021   26.2140 C.ar    1  UNL1       -0.0218
     26 C          -0.4881    5.0469   25.0725 C.ar    1  UNL1       -0.0027
     27 C          -1.1067    4.9851   23.7074 C.ar    1  UNL1        0.0189
     28 C          -2.3513    4.1783   23.4839 C.ar    1  UNL1        0.0842
     29 C          -2.9774    3.4335   24.6254 C.ar    1  UNL1        0.0189
     30 C          -2.3587    3.4954   25.9905 C.ar    1  UNL1       -0.0027
     31 C          -5.9070    4.0835   19.5814 C.3     1  UNL1        0.0372
     32 C          -6.6136    4.5332   20.8257 C.3     1  UNL1        0.0060
     33 C          -5.2003    3.6338   18.3370 C.3     1  UNL1        0.0060
     34 C          -7.2096    4.0942   18.8378 C.3     1  UNL1        0.0060
@<TRIPOS>BOND
     1    24    25    1
     2    25    26   ar
     3    26    27   ar
     4    27    28   ar
     5    28    19    1
     6    19    20   ar
     7    20    21   ar
     8    21    31    1
     9    31    32    1
    10    31    33    1
    11    31    34    1
    12    21    22   ar
    13    22    23   ar
    14    23     1    1
    15     1     2   am
    16     2     3    2
    17     2     4   am
    18     4     7    1
    19     7     8   ar
    20     8     9   ar
    21     9    10   ar
    22    10    13    1
    23    13    14   ar
    24    14    15   ar
    25    15    16   ar
    26    16    17   ar
    27    17    18    1
    28    10    11   ar
    29    11    12   ar
    30    28    29   ar
    31    29    30   ar
    32    30    25   ar
    33    23    19   ar
    34    12     7   ar
    35    17    13   ar
    36     1     5    1
    37     4     6    1
@<TRIPOS>MOLECULE
*****
 34 37 0 0 0
SMALL
GASTEIGER

@<TRIPOS>ATOM
      1 N           5.9217   -3.3600   27.3183 N.am    1  UNL1       -0.2533
      2 C           5.8468   -3.1455   25.8356 C.2     1  UNL1        0.3092
      3 O           6.5981   -4.0534   24.9075 O.2     1  UNL1       -0.2521
      4 N           5.0205   -2.0231   25.2810 N.am    1  UNL1       -0.2680
      5 H           5.4286   -2.7641   27.9274 H       1  UNL1        0.1578
      6 H           4.5274   -1.4272   25.8901 H       1  UNL1        0.1564
      7 C           4.9456   -1.8087   23.7983 C.ar    1  UNL1        0.0517
      8 C           4.2999   -2.8413   22.9228 C.ar    1  UNL1        0.0162
      9 C           4.2249   -2.6269   21.4401 C.ar    1  UNL1        0.0188
     10 C           4.7958   -1.3798   20.8328 C.ar    1  UNL1        0.0652
     11 C           5.4416   -0.3471   21.7083 C.ar    1  UNL1        0.0188
     12 C           5.5165   -0.5615   23.1910 C.ar    1  UNL1        0.0162
     13 N           4.7209   -1.1653   19.3501 N.ar    1  UNL1       -0.2915
     14 C           5.8135   -1.4480   18.3621 C.ar    1  UNL1        0.1825
     15 N           5.3081   -1.0879   16.9965 N.ar    1  UNL1       -0.2224
     16 C           3.9031   -0.5826   17.1405 C.ar    1  UNL1        0.1137
     17 C           3.5402   -0.6305   18.5952 C.ar    1  UNL1        0.0623
     18 C           2.2271   -0.2163   19.1904 C.3     1  UNL1        0.0521
     19 N           7.3687   -4.5293   29.2376 N.ar    1  UNL1       -0.2162
     20 N           8.1028   -5.8308   29.3684 N.ar    1  UNL1       -0.1683
     21 C           7.9358   -6.5883   28.0845 C.ar    1  UNL1        0.0810
     22 C           7.0984   -5.7549   27.1602 C.ar    1  UNL1        0.0509
     23 C           6.7479   -4.4824   27.8729 C.ar    1  UNL1        0.1380
     24 C           6.9830   -0.2605   33.4363 C.3     1  UNL1        0.0310
     25 C           7.0794   -1.3277   32.3866 C.ar    1  UNL1       -0.0218
     26 C           6.3909   -2.6446   32.5905 C.ar    1  UNL1       -0.0027
     27 C           6.4874   -3.7118   31.5409 C.ar    1  UNL1        0.0189
     28 C           7.2722   -3.4621   30.2873 C.ar    1  UNL1        0.0842
     29 C           7.9607   -2.1452   30.0834 C.ar    1  UNL1        0.0189
     30 C           7.8643   -1.0780   31.1330 C.ar    1  UNL1       -0.0027
     31 C           8.5060   -7.9415   27.7786 C.3     1  UNL1        0.0372
     32 C           9.4433   -7.8096   28.9422 C.3     1  UNL1        0.0060
     33 C           7.5687   -8.0734   26.6149 C.3     1  UNL1        0.0060
     34 C           9.0762   -9.2947   27.4727 C.3     1  UNL1        0.0060
@<TRIPOS>BOND
     1    24    25    1
     2    25    26   ar
     3    26    27   ar
     4    27    28   ar
     5    28    19    1
     6    19    20   ar
     7    20    21   ar
     8    21    31    1
     9    31    32    1
    10    31    33    1
    11    31    34    1
    12    21    22   ar
    13    22    23   ar
    14    23     1    1
    15     1     2   am
    16     2     3    2
    17     2     4   am
    18     4     7    1
    19     7     8   ar
    20     8     9   ar
    21     9    10   ar
    22    10    13    1
    23    13    14   ar
    24    14    15   ar
    25    15    16   ar
    26    16    17   ar
    27    17    18    1
    28    10    11   ar
    29    11    12   ar
    30    28    29   ar
    31    29    30   ar
    32    30    25   ar
    33    23    19   ar
    34    12     7   ar
    35    17    13   ar
    36     1     5    1
    37     4     6    1
@<TRIPOS>MOLECULE
*****
 34 37 0 0 0
SMALL
GASTEIGER

@<TRIPOS>ATOM
      1 N           4.8363   -2.3646   27.2622 N.am    1  UNL1       -0.2533
      2 C           5.2003   -1.9973   25.8543 C.2     1  UNL1        0.3092
      3 O           6.6124   -1.6177   25.5193 O.2     1  UNL1       -0.2521
      4 N           4.1524   -2.0096   24.7810 N.am    1  UNL1       -0.2680
      5 H           3.9095   -2.6137   27.4820 H       1  UNL1        0.1578
      6 H           3.2257   -2.2588   25.0008 H       1  UNL1        0.1564
      7 C           4.5166   -1.6424   23.3730 C.ar    1  UNL1        0.0517
      8 C           4.8418   -0.2189   23.0294 C.ar    1  UNL1        0.0162
      9 C           5.2059    0.1483   21.6214 C.ar    1  UNL1        0.0188
     10 C           5.2449   -0.9077   20.5570 C.ar    1  UNL1        0.0652
     11 C           4.9197   -2.3312   20.9006 C.ar    1  UNL1        0.0188
     12 C           4.5556   -2.6985   22.3086 C.ar    1  UNL1        0.0162
     13 N           5.6090   -0.5405   19.1489 N.ar    1  UNL1       -0.2915
     14 C           6.9849   -0.5872   18.5533 C.ar    1  UNL1        0.1825
     15 N           6.8874   -0.1376   17.1256 N.ar    1  UNL1       -0.2224
     16 C           5.4513    0.1870   16.8389 C.ar    1  UNL1        0.1137
     17 C           4.6612   -0.0621   18.0894 C.ar    1  UNL1        0.0623
     18 C           3.1828    0.1331   18.2518 C.3     1  UNL1        0.0521
     19 N           7.0660   -3.2716   28.4243 N.ar    1  UNL1       -0.2162
     20 N           7.8464   -2.9059   29.6520 N.ar    1  UNL1       -0.1683
     21 C           7.1468   -1.7606   30.3219 C.ar    1  UNL1        0.0810
     22 C           5.9341   -1.4183   29.5082 C.ar    1  UNL1        0.0509
     23 C           5.8842   -2.3522   28.3354 C.ar    1  UNL1        0.1380
     24 C           8.4321   -7.6442   24.5494 C.3     1  UNL1        0.0310
     25 C           8.0906   -6.5510   25.5182 C.ar    1  UNL1       -0.0218
     26 C           6.9029   -6.6947   26.4229 C.ar    1  UNL1       -0.0027
     27 C           6.5613   -5.6016   27.3916 C.ar    1  UNL1        0.0189
     28 C           7.4075   -4.3648   27.4556 C.ar    1  UNL1        0.0842
     29 C           8.5953   -4.2211   26.5509 C.ar    1  UNL1        0.0189
     30 C           8.9368   -5.3142   25.5821 C.ar    1  UNL1       -0.0027
     31 C           7.5834   -1.0774   31.5839 C.3     1  UNL1        0.0372
     32 C           7.2906   -2.3263   32.3613 C.3     1  UNL1        0.0060
     33 C           7.8762    0.1716   30.8065 C.3     1  UNL1        0.0060
     34 C           8.0200   -0.3942   32.8459 C.3     1  UNL1        0.0060
@<TRIPOS>BOND
     1    24    25    1
     2    25    26   ar
     3    26    27   ar
     4    27    28   ar
     5    28    19    1
     6    19    20   ar
     7    20    21   ar
     8    21    31    1
     9    31    32    1
    10    31    33    1
    11    31    34    1
    12    21    22   ar
    13    22    23   ar
    14    23     1    1
    15     1     2   am
    16     2     3    2
    17     2     4   am
    18     4     7    1
    19     7     8   ar
    20     8     9   ar
    21     9    10   ar
    22    10    13    1
    23    13    14   ar
    24    14    15   ar
    25    15    16   ar
    26    16    17   ar
    27    17    18    1
    28    10    11   ar
    29    11    12   ar
    30    28    29   ar
    31    29    30   ar
    32    30    25   ar
    33    23    19   ar
    34    12     7   ar
    35    17    13   ar
    36     1     5    1
    37     4     6    1
@<TRIPOS>MOLECULE
*****
 34 37 0 0 0
SMALL
GASTEIGER

@<TRIPOS>ATOM
      1 N          -1.6173    2.8656   21.6147 N.am    1  UNL1       -0.2533
      2 C          -0.4413    2.2015   20.9622 C.2     1  UNL1        0.3092
      3 O          -0.3064    2.2140   19.4683 O.2     1  UNL1       -0.2521
      4 N           0.6000    1.5249   21.8036 N.am    1  UNL1       -0.2680
      5 H          -1.7058    2.8574   22.5952 H       1  UNL1        0.1578
      6 H           0.5116    1.5167   22.7840 H       1  UNL1        0.1564
      7 C           1.7761    0.8608   21.1510 C.ar    1  UNL1        0.0517
      8 C           3.0491    1.6263   20.9421 C.ar    1  UNL1        0.0162
      9 C           4.2251    0.9623   20.2896 C.ar    1  UNL1        0.0188
     10 C           4.1284   -0.4673   19.8459 C.ar    1  UNL1        0.0652
     11 C           2.8554   -1.2328   20.0548 C.ar    1  UNL1        0.0188
     12 C           1.6794   -0.5688   20.7073 C.ar    1  UNL1        0.0162
     13 N           5.3045   -1.1314   19.1934 N.ar    1  UNL1       -0.2915
     14 C           5.5595   -1.2214   17.7179 C.ar    1  UNL1        0.1825
     15 N           6.8447   -1.9677   17.5144 N.ar    1  UNL1       -0.2224
     16 C           7.3839   -2.3389   18.8640 C.ar    1  UNL1        0.1137
     17 C           6.4319   -1.8220   19.9017 C.ar    1  UNL1        0.0623
     18 C           6.5813   -1.9699   21.3869 C.3     1  UNL1        0.0521
     19 N          -3.8435    4.3077   21.2835 N.ar    1  UNL1       -0.2162
     20 N          -4.6150    4.8106   20.0996 N.ar    1  UNL1       -0.1683
     21 C          -3.9071    4.3560   18.8577 C.ar    1  UNL1        0.0810
     22 C          -2.6980    3.5720   19.2741 C.ar    1  UNL1        0.0509
     23 C          -2.6587    3.5422   20.7733 C.ar    1  UNL1        0.1380
     24 C          -5.2495    5.2009   27.0476 C.3     1  UNL1        0.0310
     25 C          -4.8980    4.9776   25.6066 C.ar    1  UNL1       -0.0218
     26 C          -5.1134    3.6309   24.9820 C.ar    1  UNL1       -0.0027
     27 C          -4.7619    3.4076   23.5410 C.ar    1  UNL1        0.0189
     28 C          -4.1950    4.5310   22.7245 C.ar    1  UNL1        0.0842
     29 C          -3.9796    5.8776   23.3491 C.ar    1  UNL1        0.0189
     30 C          -4.3311    6.1009   24.7901 C.ar    1  UNL1       -0.0027
     31 C          -4.3335    4.6362   17.4471 C.3     1  UNL1        0.0372
     32 C          -2.9980    4.1673   16.9504 C.3     1  UNL1        0.0060
     33 C          -5.6689    5.1050   17.9439 C.3     1  UNL1        0.0060
     34 C          -4.7598    4.9164   16.0366 C.3     1  UNL1        0.0060
@<TRIPOS>BOND
     1    24    25    1
     2    25    26   ar
     3    26    27   ar
     4    27    28   ar
     5    28    19    1
     6    19    20   ar
     7    20    21   ar
     8    21    31    1
     9    31    32    1
    10    31    33    1
    11    31    34    1
    12    21    22   ar
    13    22    23   ar
    14    23     1    1
    15     1     2   am
    16     2     3    2
    17     2     4   am
    18     4     7    1
    19     7     8   ar
    20     8     9   ar
    21     9    10   ar
    22    10    13    1
    23    13    14   ar
    24    14    15   ar
    25    15    16   ar
    26    16    17   ar
    27    17    18    1
    28    10    11   ar
    29    11    12   ar
    30    28    29   ar
    31    29    30   ar
    32    30    25   ar
    33    23    19   ar
    34    12     7   ar
    35    17    13   ar
    36     1     5    1
    37     4     6    1
