@<TRIPOS>MOLECULE
*****
 36 39 0 0 0
SMALL
GASTEIGER

@<TRIPOS>ATOM
      1 O          -7.3329  -18.0358   20.4530 O.2     1  UNL1       -0.2729
      2 C          -7.4930  -18.9196   21.6542 C.2     1  UNL1        0.2451
      3 N          -6.8407  -20.2700   21.6840 N.am    1  UNL1       -0.2988
      4 H          -6.9457  -20.8502   22.4725 H       1  UNL1        0.1498
      5 C          -8.3054  -18.4531   22.8257 C.3     1  UNL1        0.1751
      6 C          -7.9634  -17.3121   23.7374 C.ar    1  UNL1        0.0089
      7 C          -6.8037  -16.3611   23.7636 C.ar    1  UNL1       -0.0021
      8 C          -6.7297  -15.2976   24.8187 C.ar    1  UNL1       -0.0003
      9 C          -7.8153  -15.1850   25.8477 C.ar    1  UNL1        0.0001
     10 C          -8.9750  -16.1360   25.8215 C.ar    1  UNL1        0.0043
     11 C          -9.0491  -17.1995   24.7664 C.ar    1  UNL1        0.0516
     12 C         -10.0620  -18.2709   24.4905 C.2     1  UNL1        0.2493
     13 O         -11.3146  -18.5232   25.2762 O.2     1  UNL1       -0.2699
     14 N          -9.6024  -19.0457   23.2912 N.am    1  UNL1       -0.2657
     15 C         -10.3148  -20.2088   22.6668 C.3     1  UNL1        0.1007
     16 C         -11.1096  -20.0144   21.4097 C.3     1  UNL1        0.0673
     17 C         -11.4506  -18.6298   20.9445 C.ar    1  UNL1        0.0607
     18 C         -12.5204  -17.8454   21.6448 C.ar    1  UNL1        0.0148
     19 C         -12.8613  -16.4607   21.1795 C.ar    1  UNL1        0.0028
     20 C         -12.1325  -15.8605   20.0139 C.ar    1  UNL1        0.0207
     21 C         -11.0627  -16.6448   19.3137 C.ar    1  UNL1        0.0984
     22 N         -10.7218  -18.0295   19.7790 N.ar    1  UNL1       -0.2481
     23 C          -6.0282  -20.7365   20.5125 C.3     1  UNL1        0.1179
     24 C          -4.6899  -20.1189   20.2345 C.ar    1  UNL1        0.0168
     25 C          -4.5820  -18.9535   19.2963 C.ar    1  UNL1        0.0037
     26 C          -3.2436  -18.3359   19.0183 C.ar    1  UNL1        0.0574
     27 C          -2.0131  -18.8836   19.6785 C.ar    1  UNL1        0.2248
     28 N          -2.1210  -20.0490   20.6166 N.ar    1  UNL1       -0.2104
     29 C          -3.4595  -20.6667   20.8947 C.ar    1  UNL1        0.0994
     30 O          -0.6748  -18.2660   19.4004 O.3     1  UNL1       -0.4599
     31 C          -0.1062  -17.2504   20.3466 C.3     1  UNL1        0.2159
     32 C          -1.0149  -16.2761   21.0358 C.3     1  UNL1        0.1505
     33 C          -1.9824  -16.7591   22.0754 C.3     1  UNL1        0.4014
     34 F          -2.9499  -17.2422   23.1150 F       1  UNL1       -0.1699
     35 F          -2.8560  -15.5677   21.8159 F       1  UNL1       -0.1699
     36 F          -1.1088  -17.9505   22.3348 F       1  UNL1       -0.1699
@<TRIPOS>BOND
     1     1     2    2
     2     2     3   am
     3     3    23    1
     4    23    24    1
     5    24    25   ar
     6    25    26   ar
     7    26    27   ar
     8    27    30    1
     9    30    31    1
    10    31    32    1
    11    32    33    1
    12    33    34    1
    13    33    35    1
    14    33    36    1
    15    27    28   ar
    16    28    29   ar
    17     2     5    1
    18     5     6    1
    19     6     7   ar
    20     7     8   ar
    21     8     9   ar
    22     9    10   ar
    23    10    11   ar
    24    11    12    1
    25    12    13    2
    26    12    14   am
    27    14    15    1
    28    15    16    1
    29    16    17    1
    30    17    18   ar
    31    18    19   ar
    32    19    20   ar
    33    20    21   ar
    34    21    22   ar
    35    29    24   ar
    36    14     5    1
    37    22    17   ar
    38    11     6   ar
    39     3     4    1
@<TRIPOS>MOLECULE
*****
 36 39 0 0 0
SMALL
GASTEIGER

@<TRIPOS>ATOM
      1 O          -0.4140    4.7943   21.8169 O.2     1  UNL1       -0.2729
      2 C          -0.8236    3.4670   22.3826 C.2     1  UNL1        0.2451
      3 N          -0.7680    2.2371   21.5256 N.am    1  UNL1       -0.2988
      4 H          -1.0368    1.3658   21.8968 H       1  UNL1        0.1498
      5 C          -1.2889    3.3693   23.8053 C.3     1  UNL1        0.1751
      6 C          -2.6287    3.7979   24.3261 C.ar    1  UNL1        0.0089
      7 C          -3.8211    4.4058   23.6489 C.ar    1  UNL1       -0.0021
      8 C          -5.0488    4.7352   24.4453 C.ar    1  UNL1       -0.0003
      9 C          -5.0841    4.4567   25.9188 C.ar    1  UNL1        0.0001
     10 C          -3.8916    3.8488   26.5959 C.ar    1  UNL1        0.0043
     11 C          -2.6640    3.5194   25.7996 C.ar    1  UNL1        0.0516
     12 C          -1.3460    2.9186   26.1894 C.2     1  UNL1        0.2493
     13 O          -0.9477    2.4865   27.5695 O.2     1  UNL1       -0.2699
     14 N          -0.4961    2.8259   24.9569 N.am    1  UNL1       -0.2657
     15 C           0.9012    2.2847   24.8880 C.3     1  UNL1        0.1007
     16 C           1.1520    0.9287   24.2978 C.3     1  UNL1        0.0673
     17 C           2.3514    0.7002   23.4264 C.ar    1  UNL1        0.0607
     18 C           3.0245   -0.6402   23.4133 C.ar    1  UNL1        0.0148
     19 C           4.2239   -0.8687   22.5418 C.ar    1  UNL1        0.0028
     20 C           4.7500    0.2433   21.6835 C.ar    1  UNL1        0.0207
     21 C           4.0769    1.5837   21.6966 C.ar    1  UNL1        0.0984
     22 N           2.8775    1.8121   22.5680 N.ar    1  UNL1       -0.2481
     23 C          -0.3027    2.3347   20.1029 C.3     1  UNL1        0.1179
     24 C           0.7661    1.4111   19.5984 C.ar    1  UNL1        0.0168
     25 C           0.8399    0.0014   20.1055 C.ar    1  UNL1        0.0037
     26 C           1.9088   -0.9221   19.6009 C.ar    1  UNL1        0.0574
     27 C           2.9038   -0.4360   18.5892 C.ar    1  UNL1        0.2248
     28 N           2.8300    0.9737   18.0820 N.ar    1  UNL1       -0.2104
     29 C           1.7611    1.8973   18.5866 C.ar    1  UNL1        0.0994
     30 O           3.9726   -1.3596   18.0846 O.3     1  UNL1       -0.4599
     31 C           4.7536   -2.2012   19.0499 C.3     1  UNL1        0.2159
     32 C           5.0416   -3.6381   18.7296 C.3     1  UNL1        0.1505
     33 C           4.1734   -4.7216   19.2973 C.3     1  UNL1        0.4014
     34 F           3.3052   -5.8051   19.8650 F       1  UNL1       -0.1699
     35 F           3.5733   -3.7377   20.2574 F       1  UNL1       -0.1699
     36 F           4.7735   -5.7055   18.3372 F       1  UNL1       -0.1699
@<TRIPOS>BOND
     1     1     2    2
     2     2     3   am
     3     3    23    1
     4    23    24    1
     5    24    25   ar
     6    25    26   ar
     7    26    27   ar
     8    27    30    1
     9    30    31    1
    10    31    32    1
    11    32    33    1
    12    33    34    1
    13    33    35    1
    14    33    36    1
    15    27    28   ar
    16    28    29   ar
    17     2     5    1
    18     5     6    1
    19     6     7   ar
    20     7     8   ar
    21     8     9   ar
    22     9    10   ar
    23    10    11   ar
    24    11    12    1
    25    12    13    2
    26    12    14   am
    27    14    15    1
    28    15    16    1
    29    16    17    1
    30    17    18   ar
    31    18    19   ar
    32    19    20   ar
    33    20    21   ar
    34    21    22   ar
    35    29    24   ar
    36    14     5    1
    37    22    17   ar
    38    11     6   ar
    39     3     4    1
@<TRIPOS>MOLECULE
*****
 36 39 0 0 0
SMALL
GASTEIGER

@<TRIPOS>ATOM
      1 O           7.0241   -1.4130   25.2125 O.2     1  UNL1       -0.2729
      2 C           6.3102   -2.5772   24.5922 C.2     1  UNL1        0.2451
      3 N           4.8146   -2.5653   24.4777 N.am    1  UNL1       -0.2988
      4 H           4.3460   -3.3294   24.0706 H       1  UNL1        0.1498
      5 C           7.0918   -3.7533   24.0863 C.3     1  UNL1        0.1751
      6 C           7.2697   -5.0639   24.7940 C.ar    1  UNL1        0.0089
      7 C           6.7669   -5.5681   26.1142 C.ar    1  UNL1       -0.0021
      8 C           7.1149   -6.9543   26.5694 C.ar    1  UNL1       -0.0003
      9 C           7.9658   -7.8363   25.7045 C.ar    1  UNL1        0.0001
     10 C           8.4686   -7.3321   24.3843 C.ar    1  UNL1        0.0043
     11 C           8.1206   -5.9459   23.9290 C.ar    1  UNL1        0.0516
     12 C           8.4684   -5.1805   22.6868 C.2     1  UNL1        0.2493
     13 O           9.3052   -5.6821   21.5475 O.2     1  UNL1       -0.2699
     14 N           7.8327   -3.8254   22.7840 N.am    1  UNL1       -0.2657
     15 C           7.9220   -2.7339   21.7590 C.3     1  UNL1        0.1007
     16 C           7.5713   -3.0180   20.3285 C.3     1  UNL1        0.0673
     17 C           6.1426   -3.2591   19.9402 C.ar    1  UNL1        0.0607
     18 C           5.2935   -2.1197   19.4597 C.ar    1  UNL1        0.0148
     19 C           3.8648   -2.3608   19.0714 C.ar    1  UNL1        0.0028
     20 C           3.2853   -3.7413   19.1636 C.ar    1  UNL1        0.0207
     21 C           4.1344   -4.8806   19.6442 C.ar    1  UNL1        0.0984
     22 N           5.5631   -4.6395   20.0324 N.ar    1  UNL1       -0.2481
     23 C           4.0330   -1.3892   24.9836 C.3     1  UNL1        0.1179
     24 C           3.1555   -0.6130   24.0469 C.ar    1  UNL1        0.0168
     25 C           3.1492   -0.9379   22.5825 C.ar    1  UNL1        0.0037
     26 C           2.2717   -0.1616   21.6459 C.ar    1  UNL1        0.0574
     27 C           1.4004    0.9395   22.1735 C.ar    1  UNL1        0.2248
     28 N           1.4067    1.2644   23.6379 N.ar    1  UNL1       -0.2104
     29 C           2.2843    0.4881   24.5746 C.ar    1  UNL1        0.0994
     30 O           0.5229    1.7157   21.2368 O.3     1  UNL1       -0.4599
     31 C           0.1627    1.1426   19.8982 C.3     1  UNL1        0.2159
     32 C           0.8337    1.6545   18.6581 C.3     1  UNL1        0.1505
     33 C           2.3078    1.4544   18.4659 C.3     1  UNL1        0.4014
     34 F           3.7819    1.2542   18.2737 F       1  UNL1       -0.1699
     35 F           2.5704    2.7958   19.0835 F       1  UNL1       -0.1699
     36 F           2.0452    0.1129   17.8483 F       1  UNL1       -0.1699
@<TRIPOS>BOND
     1     1     2    2
     2     2     3   am
     3     3    23    1
     4    23    24    1
     5    24    25   ar
     6    25    26   ar
     7    26    27   ar
     8    27    30    1
     9    30    31    1
    10    31    32    1
    11    32    33    1
    12    33    34    1
    13    33    35    1
    14    33    36    1
    15    27    28   ar
    16    28    29   ar
    17     2     5    1
    18     5     6    1
    19     6     7   ar
    20     7     8   ar
    21     8     9   ar
    22     9    10   ar
    23    10    11   ar
    24    11    12    1
    25    12    13    2
    26    12    14   am
    27    14    15    1
    28    15    16    1
    29    16    17    1
    30    17    18   ar
    31    18    19   ar
    32    19    20   ar
    33    20    21   ar
    34    21    22   ar
    35    29    24   ar
    36    14     5    1
    37    22    17   ar
    38    11     6   ar
    39     3     4    1
@<TRIPOS>MOLECULE
*****
 36 39 0 0 0
SMALL
GASTEIGER

@<TRIPOS>ATOM
      1 O          -0.0854    1.0889   21.2704 O.2     1  UNL1       -0.2729
      2 C           0.8422    1.9051   22.1208 C.2     1  UNL1        0.2451
      3 N           1.9177    2.7303   21.4784 N.am    1  UNL1       -0.2988
      4 H           2.5265    3.2661   22.0366 H       1  UNL1        0.1498
      5 C           0.6945    1.8962   23.6135 C.3     1  UNL1        0.1751
      6 C          -0.4600    2.4589   24.3886 C.ar    1  UNL1        0.0089
      7 C          -1.7200    3.1473   23.9545 C.ar    1  UNL1       -0.0021
      8 C          -2.7127    3.6103   24.9792 C.ar    1  UNL1       -0.0003
      9 C          -2.4454    3.3850   26.4379 C.ar    1  UNL1        0.0001
     10 C          -1.1854    2.6966   26.8719 C.ar    1  UNL1        0.0043
     11 C          -0.1927    2.2335   25.8473 C.ar    1  UNL1        0.0516
     12 C           1.1269    1.5316   25.9737 C.2     1  UNL1        0.2493
     13 O           1.7830    1.1119   27.2556 O.2     1  UNL1       -0.2699
     14 N           1.6752    1.3232   24.5931 N.am    1  UNL1       -0.2657
     15 C           2.9759    0.6584   24.2521 C.3     1  UNL1        0.1007
     16 C           2.9796   -0.6562   23.5297 C.3     1  UNL1        0.0673
     17 C           4.0710   -1.6518   23.7896 C.ar    1  UNL1        0.0607
     18 C           4.3352   -2.7498   22.8024 C.ar    1  UNL1        0.0148
     19 C           5.4266   -3.7454   23.0623 C.ar    1  UNL1        0.0028
     20 C           6.2539   -3.6430   24.3094 C.ar    1  UNL1        0.0207
     21 C           5.9897   -2.5449   25.2966 C.ar    1  UNL1        0.0984
     22 N           4.8982   -1.5494   25.0367 N.ar    1  UNL1       -0.2481
     23 C           2.0654    2.7392   19.9858 C.3     1  UNL1        0.1179
     24 C           2.8665    1.6693   19.3051 C.ar    1  UNL1        0.0168
     25 C           4.3214    1.5011   19.6291 C.ar    1  UNL1        0.0037
     26 C           5.1225    0.4311   18.9484 C.ar    1  UNL1        0.0574
     27 C           4.4688   -0.4707   17.9436 C.ar    1  UNL1        0.2248
     28 N           3.0139   -0.3024   17.6196 N.ar    1  UNL1       -0.2104
     29 C           2.2128    0.7676   18.3003 C.ar    1  UNL1        0.0994
     30 O           5.2700   -1.5406   17.2629 O.3     1  UNL1       -0.4599
     31 C           5.8623   -2.6599   18.0667 C.3     1  UNL1        0.2159
     32 C           5.1193   -3.2099   19.2480 C.3     1  UNL1        0.1505
     33 C           3.8409   -3.9675   19.0436 C.3     1  UNL1        0.4014
     34 F           2.5625   -4.7252   18.8391 F       1  UNL1       -0.1699
     35 F           3.0825   -2.8750   19.7374 F       1  UNL1       -0.1699
     36 F           4.5993   -5.0599   18.3497 F       1  UNL1       -0.1699
@<TRIPOS>BOND
     1     1     2    2
     2     2     3   am
     3     3    23    1
     4    23    24    1
     5    24    25   ar
     6    25    26   ar
     7    26    27   ar
     8    27    30    1
     9    30    31    1
    10    31    32    1
    11    32    33    1
    12    33    34    1
    13    33    35    1
    14    33    36    1
    15    27    28   ar
    16    28    29   ar
    17     2     5    1
    18     5     6    1
    19     6     7   ar
    20     7     8   ar
    21     8     9   ar
    22     9    10   ar
    23    10    11   ar
    24    11    12    1
    25    12    13    2
    26    12    14   am
    27    14    15    1
    28    15    16    1
    29    16    17    1
    30    17    18   ar
    31    18    19   ar
    32    19    20   ar
    33    20    21   ar
    34    21    22   ar
    35    29    24   ar
    36    14     5    1
    37    22    17   ar
    38    11     6   ar
    39     3     4    1
@<TRIPOS>MOLECULE
*****
 36 39 0 0 0
SMALL
GASTEIGER

@<TRIPOS>ATOM
      1 O          -6.7037  -19.6681   22.7373 O.2     1  UNL1       -0.2729
      2 C          -7.3701  -18.3777   22.3624 C.2     1  UNL1        0.2451
      3 N          -6.7645  -17.0711   22.7825 N.am    1  UNL1       -0.2988
      4 H          -7.2018  -16.2241   22.5365 H       1  UNL1        0.1498
      5 C          -8.6421  -18.3936   21.5676 C.3     1  UNL1        0.1751
      6 C          -8.8881  -19.1784   20.3132 C.ar    1  UNL1        0.0089
      7 C          -8.0171  -20.1126   19.5267 C.ar    1  UNL1       -0.0021
      8 C          -8.5475  -20.7657   18.2849 C.ar    1  UNL1       -0.0003
      9 C          -9.9488  -20.4847   17.8296 C.ar    1  UNL1        0.0001
     10 C         -10.8198  -19.5505   18.6161 C.ar    1  UNL1        0.0043
     11 C         -10.2894  -18.8973   19.8579 C.ar    1  UNL1        0.0516
     12 C         -10.9095  -17.9389   20.8310 C.2     1  UNL1        0.2493
     13 O         -12.3030  -17.3884   20.7599 O.2     1  UNL1       -0.2699
     14 N          -9.8914  -17.6275   21.8876 N.am    1  UNL1       -0.2657
     15 C         -10.0880  -16.7110   23.0587 C.3     1  UNL1        0.1007
     16 C          -9.9418  -17.2372   24.4557 C.3     1  UNL1        0.0673
     17 C          -8.9483  -16.6148   25.3915 C.ar    1  UNL1        0.0607
     18 C          -8.8144  -17.1297   26.7940 C.ar    1  UNL1        0.0148
     19 C          -7.8209  -16.5073   27.7297 C.ar    1  UNL1        0.0028
     20 C          -6.9614  -15.3699   27.2629 C.ar    1  UNL1        0.0207
     21 C          -7.0954  -14.8551   25.8605 C.ar    1  UNL1        0.0984
     22 N          -8.0889  -15.4775   24.9247 N.ar    1  UNL1       -0.2481
     23 C          -5.4925  -17.0552   23.5773 C.3     1  UNL1        0.1179
     24 C          -4.1784  -17.2934   22.8944 C.ar    1  UNL1        0.0168
     25 C          -3.6903  -18.6946   22.6748 C.ar    1  UNL1        0.0037
     26 C          -2.3762  -18.9327   21.9919 C.ar    1  UNL1        0.0574
     27 C          -1.5501  -17.7696   21.5284 C.ar    1  UNL1        0.2248
     28 N          -2.0382  -16.3683   21.7480 N.ar    1  UNL1       -0.2104
     29 C          -3.3524  -16.1302   22.4310 C.ar    1  UNL1        0.0994
     30 O          -0.2361  -18.0077   20.8455 O.3     1  UNL1       -0.4599
     31 C          -0.1966  -18.2920   19.3732 C.3     1  UNL1        0.2159
     32 C          -1.2500  -17.7212   18.4707 C.3     1  UNL1        0.1505
     33 C          -2.6962  -18.0374   18.7123 C.3     1  UNL1        0.4014
     34 F          -4.1426  -18.3534   18.9540 F       1  UNL1       -0.1699
     35 F          -2.3573  -19.4933   18.8359 F       1  UNL1       -0.1699
     36 F          -3.0351  -16.5814   18.5887 F       1  UNL1       -0.1699
@<TRIPOS>BOND
     1     1     2    2
     2     2     3   am
     3     3    23    1
     4    23    24    1
     5    24    25   ar
     6    25    26   ar
     7    26    27   ar
     8    27    30    1
     9    30    31    1
    10    31    32    1
    11    32    33    1
    12    33    34    1
    13    33    35    1
    14    33    36    1
    15    27    28   ar
    16    28    29   ar
    17     2     5    1
    18     5     6    1
    19     6     7   ar
    20     7     8   ar
    21     8     9   ar
    22     9    10   ar
    23    10    11   ar
    24    11    12    1
    25    12    13    2
    26    12    14   am
    27    14    15    1
    28    15    16    1
    29    16    17    1
    30    17    18   ar
    31    18    19   ar
    32    19    20   ar
    33    20    21   ar
    34    21    22   ar
    35    29    24   ar
    36    14     5    1
    37    22    17   ar
    38    11     6   ar
    39     3     4    1
@<TRIPOS>MOLECULE
*****
 36 39 0 0 0
SMALL
GASTEIGER

@<TRIPOS>ATOM
      1 O           6.7006   -0.9710   25.4969 O.2     1  UNL1       -0.2729
      2 C           5.8237   -2.1840   25.5947 C.2     1  UNL1        0.2451
      3 N           4.3325   -2.0396   25.5174 N.am    1  UNL1       -0.2988
      4 H           3.7569   -2.8357   25.5816 H       1  UNL1        0.1498
      5 C           6.4377   -3.5413   25.7698 C.3     1  UNL1        0.1751
      6 C           6.7091   -4.2242   27.0775 C.ar    1  UNL1        0.0089
      7 C           6.4732   -3.8030   28.4976 C.ar    1  UNL1       -0.0021
      8 C           6.8555   -4.7166   29.6242 C.ar    1  UNL1       -0.0003
      9 C           7.4736   -6.0514   29.3305 C.ar    1  UNL1        0.0001
     10 C           7.7094   -6.4726   27.9104 C.ar    1  UNL1        0.0043
     11 C           7.3272   -5.5590   26.7838 C.ar    1  UNL1        0.0516
     12 C           7.4378   -5.7010   25.2947 C.2     1  UNL1        0.2493
     13 O           7.9995   -6.8827   24.5611 O.2     1  UNL1       -0.2699
     14 N           6.8880   -4.4541   24.6679 N.am    1  UNL1       -0.2657
     15 C           6.8035   -4.1697   23.1976 C.3     1  UNL1        0.1007
     16 C           5.4721   -3.9014   22.5609 C.3     1  UNL1        0.0673
     17 C           5.3879   -3.6146   21.0910 C.ar    1  UNL1        0.0607
     18 C           4.2077   -4.0950   20.2995 C.ar    1  UNL1        0.0148
     19 C           4.1234   -3.8081   18.8296 C.ar    1  UNL1        0.0028
     20 C           5.2194   -3.0408   18.1512 C.ar    1  UNL1        0.0207
     21 C           6.3995   -2.5604   18.9427 C.ar    1  UNL1        0.0984
     22 N           6.4837   -2.8472   20.4126 N.ar    1  UNL1       -0.2481
     23 C           3.7185   -0.6823   25.3423 C.3     1  UNL1        0.1179
     24 C           2.9577   -0.3592   24.0907 C.ar    1  UNL1        0.0168
     25 C           3.2989   -1.0529   22.8053 C.ar    1  UNL1        0.0037
     26 C           2.5380   -0.7298   21.5537 C.ar    1  UNL1        0.0574
     27 C           1.4358    0.2872   21.5874 C.ar    1  UNL1        0.2248
     28 N           1.0946    0.9810   22.8728 N.ar    1  UNL1       -0.2104
     29 C           1.8556    0.6578   24.1245 C.ar    1  UNL1        0.0994
     30 O           0.6749    0.6103   20.3358 O.3     1  UNL1       -0.4599
     31 C           1.3779    1.2478   19.1741 C.3     1  UNL1        0.2159
     32 C           1.9557    0.3923   18.0859 C.3     1  UNL1        0.1505
     33 C           3.4421    0.3211   17.8974 C.3     1  UNL1        0.4014
     34 F           4.9286    0.2499   17.7089 F       1  UNL1       -0.1699
     35 F           3.2536   -0.6658   16.7836 F       1  UNL1       -0.1699
     36 F           3.6307    1.3080   19.0111 F       1  UNL1       -0.1699
@<TRIPOS>BOND
     1     1     2    2
     2     2     3   am
     3     3    23    1
     4    23    24    1
     5    24    25   ar
     6    25    26   ar
     7    26    27   ar
     8    27    30    1
     9    30    31    1
    10    31    32    1
    11    32    33    1
    12    33    34    1
    13    33    35    1
    14    33    36    1
    15    27    28   ar
    16    28    29   ar
    17     2     5    1
    18     5     6    1
    19     6     7   ar
    20     7     8   ar
    21     8     9   ar
    22     9    10   ar
    23    10    11   ar
    24    11    12    1
    25    12    13    2
    26    12    14   am
    27    14    15    1
    28    15    16    1
    29    16    17    1
    30    17    18   ar
    31    18    19   ar
    32    19    20   ar
    33    20    21   ar
    34    21    22   ar
    35    29    24   ar
    36    14     5    1
    37    22    17   ar
    38    11     6   ar
    39     3     4    1
@<TRIPOS>MOLECULE
*****
 36 39 0 0 0
SMALL
GASTEIGER

@<TRIPOS>ATOM
      1 O           0.4920    4.3127   21.7260 O.2     1  UNL1       -0.2729
      2 C          -0.4361    3.1885   22.0788 C.2     1  UNL1        0.2451
      3 N          -0.7468    2.1265   21.0660 N.am    1  UNL1       -0.2988
      4 H          -1.3560    1.3886   21.2976 H       1  UNL1        0.1498
      5 C          -1.0537    3.1262   23.4444 C.3     1  UNL1        0.1751
      6 C          -0.4213    2.5408   24.6721 C.ar    1  UNL1        0.0089
      7 C           0.9105    1.8901   24.9021 C.ar    1  UNL1       -0.0021
      8 C           1.2748    1.3899   26.2685 C.ar    1  UNL1       -0.0003
      9 C           0.3073    1.5403   27.4048 C.ar    1  UNL1        0.0001
     10 C          -1.0244    2.1909   27.1749 C.ar    1  UNL1        0.0043
     11 C          -1.3888    2.6912   25.8085 C.ar    1  UNL1        0.0516
     12 C          -2.6191    3.3696   25.2831 C.2     1  UNL1        0.2493
     13 O          -3.8418    3.7180   26.0790 O.2     1  UNL1       -0.2699
     14 N          -2.4120    3.6385   23.8220 N.am    1  UNL1       -0.2657
     15 C          -3.3913    4.3030   22.9003 C.3     1  UNL1        0.1007
     16 C          -4.3802    3.4756   22.1339 C.3     1  UNL1        0.0673
     17 C          -4.4466    3.5800   20.6390 C.ar    1  UNL1        0.0607
     18 C          -5.7650    3.4476   19.9358 C.ar    1  UNL1        0.0148
     19 C          -5.8315    3.5520   18.4409 C.ar    1  UNL1        0.0028
     20 C          -4.5796    3.7889   17.6492 C.ar    1  UNL1        0.0207
     21 C          -3.2613    3.9213   18.3524 C.ar    1  UNL1        0.0984
     22 N          -3.1948    3.8169   19.8473 N.ar    1  UNL1       -0.2481
     23 C          -0.1292    2.1887   19.7005 C.3     1  UNL1        0.1179
     24 C           1.1103    1.3989   19.4013 C.ar    1  UNL1        0.0168
     25 C           2.2916    2.0693   18.7648 C.ar    1  UNL1        0.0037
     26 C           3.5311    1.2794   18.4657 C.ar    1  UNL1        0.0574
     27 C           3.5895   -0.1811   18.8029 C.ar    1  UNL1        0.2248
     28 N           2.4082   -0.8516   19.4394 N.ar    1  UNL1       -0.2104
     29 C           1.1686   -0.0616   19.7386 C.ar    1  UNL1        0.0994
     30 O           4.8290   -0.9709   18.5037 O.3     1  UNL1       -0.4599
     31 C           5.1319   -2.2157   19.2841 C.3     1  UNL1        0.2159
     32 C           5.0349   -3.5581   18.6220 C.3     1  UNL1        0.1505
     33 C           4.1597   -4.6239   19.2120 C.3     1  UNL1        0.4014
     34 F           3.2845   -5.6897   19.8020 F       1  UNL1       -0.1699
     35 F           4.7412   -5.6278   18.2611 F       1  UNL1       -0.1699
     36 F           3.5782   -3.6200   20.1628 F       1  UNL1       -0.1699
@<TRIPOS>BOND
     1     1     2    2
     2     2     3   am
     3     3    23    1
     4    23    24    1
     5    24    25   ar
     6    25    26   ar
     7    26    27   ar
     8    27    30    1
     9    30    31    1
    10    31    32    1
    11    32    33    1
    12    33    34    1
    13    33    35    1
    14    33    36    1
    15    27    28   ar
    16    28    29   ar
    17     2     5    1
    18     5     6    1
    19     6     7   ar
    20     7     8   ar
    21     8     9   ar
    22     9    10   ar
    23    10    11   ar
    24    11    12    1
    25    12    13    2
    26    12    14   am
    27    14    15    1
    28    15    16    1
    29    16    17    1
    30    17    18   ar
    31    18    19   ar
    32    19    20   ar
    33    20    21   ar
    34    21    22   ar
    35    29    24   ar
    36    14     5    1
    37    22    17   ar
    38    11     6   ar
    39     3     4    1
@<TRIPOS>MOLECULE
*****
 36 39 0 0 0
SMALL
GASTEIGER

@<TRIPOS>ATOM
      1 O         -13.5643   -5.4684   19.9358 O.2     1  UNL1       -0.2729
      2 C         -14.1837   -6.6842   19.3128 C.2     1  UNL1        0.2451
      3 N         -13.3147   -7.7161   18.6569 N.am    1  UNL1       -0.2988
      4 H         -13.7212   -8.5141   18.2480 H       1  UNL1        0.1498
      5 C         -15.6720   -6.8682   19.3457 C.3     1  UNL1        0.1751
      6 C         -16.4105   -8.1368   19.0371 C.ar    1  UNL1        0.0089
      7 C         -15.9364   -9.5015   18.6338 C.ar    1  UNL1       -0.0021
      8 C         -16.9297  -10.5980   18.3870 C.ar    1  UNL1       -0.0003
      9 C         -18.3972  -10.3299   18.5435 C.ar    1  UNL1        0.0001
     10 C         -18.8714   -8.9652   18.9468 C.ar    1  UNL1        0.0043
     11 C         -17.8780   -7.8687   19.1936 C.ar    1  UNL1        0.0516
     12 C         -18.0465   -6.4343   19.5990 C.2     1  UNL1        0.2493
     13 O         -19.3495   -5.7402   19.8638 O.2     1  UNL1       -0.2699
     14 N         -16.6831   -5.8160   19.6930 N.am    1  UNL1       -0.2657
     15 C         -16.3833   -4.3950   20.0683 C.3     1  UNL1        0.1007
     16 C         -17.2217   -3.2806   19.5159 C.3     1  UNL1        0.0673
     17 C         -16.5639   -2.0605   18.9425 C.ar    1  UNL1        0.0607
     18 C         -16.0236   -1.0004   19.8560 C.ar    1  UNL1        0.0148
     19 C         -15.3659    0.2197   19.2826 C.ar    1  UNL1        0.0028
     20 C         -15.2484    0.3797   17.7957 C.ar    1  UNL1        0.0207
     21 C         -15.7887   -0.6804   16.8824 C.ar    1  UNL1        0.0984
     22 N         -16.4464   -1.9005   17.4557 N.ar    1  UNL1       -0.2481
     23 C         -11.8264   -7.5321   18.6240 C.3     1  UNL1        0.1179
     24 C         -11.2374   -6.2899   18.0239 C.ar    1  UNL1        0.0168
     25 C         -10.1808   -5.5266   18.7661 C.ar    1  UNL1        0.0037
     26 C          -9.5919   -4.2844   18.1660 C.ar    1  UNL1        0.0574
     27 C         -10.0596   -3.8054   16.8236 C.ar    1  UNL1        0.2248
     28 N         -11.1163   -4.5687   16.0814 N.ar    1  UNL1       -0.2104
     29 C         -11.7052   -5.8110   16.6816 C.ar    1  UNL1        0.0994
     30 O          -9.4707   -2.5633   16.2236 O.3     1  UNL1       -0.4599
     31 C         -10.2705   -1.2947   16.1897 C.3     1  UNL1        0.2159
     32 C         -10.8988   -0.7705   17.4468 C.3     1  UNL1        0.1505
     33 C         -12.0425   -1.5079   18.0776 C.3     1  UNL1        0.4014
     34 F         -13.1864   -2.2454   18.7083 F       1  UNL1       -0.1699
     35 F         -11.4175   -1.3219   19.4284 F       1  UNL1       -0.1699
     36 F         -12.6676   -1.6939   16.7268 F       1  UNL1       -0.1699
@<TRIPOS>BOND
     1     1     2    2
     2     2     3   am
     3     3    23    1
     4    23    24    1
     5    24    25   ar
     6    25    26   ar
     7    26    27   ar
     8    27    30    1
     9    30    31    1
    10    31    32    1
    11    32    33    1
    12    33    34    1
    13    33    35    1
    14    33    36    1
    15    27    28   ar
    16    28    29   ar
    17     2     5    1
    18     5     6    1
    19     6     7   ar
    20     7     8   ar
    21     8     9   ar
    22     9    10   ar
    23    10    11   ar
    24    11    12    1
    25    12    13    2
    26    12    14   am
    27    14    15    1
    28    15    16    1
    29    16    17    1
    30    17    18   ar
    31    18    19   ar
    32    19    20   ar
    33    20    21   ar
    34    21    22   ar
    35    29    24   ar
    36    14     5    1
    37    22    17   ar
    38    11     6   ar
    39     3     4    1
@<TRIPOS>MOLECULE
*****
 36 39 0 0 0
SMALL
GASTEIGER

@<TRIPOS>ATOM
      1 O          -0.5354    4.9131   21.8883 O.2     1  UNL1       -0.2729
      2 C          -1.5845    3.8420   21.9324 C.2     1  UNL1        0.2451
      3 N          -1.6103    2.7737   20.8797 N.am    1  UNL1       -0.2988
      4 H          -2.2988    2.0706   20.9086 H       1  UNL1        0.1498
      5 C          -2.6078    3.8391   23.0292 C.3     1  UNL1        0.1751
      6 C          -4.0853    4.0327   22.8569 C.ar    1  UNL1        0.0089
      7 C          -4.9315    4.2695   21.6414 C.ar    1  UNL1       -0.0021
      8 C          -6.4165    4.4289   21.7808 C.ar    1  UNL1       -0.0003
      9 C          -7.0551    4.3515   23.1358 C.ar    1  UNL1        0.0001
     10 C          -6.2089    4.1147   24.3514 C.ar    1  UNL1        0.0043
     11 C          -4.7239    3.9553   24.2120 C.ar    1  UNL1        0.0516
     12 C          -3.6412    3.7138   25.2216 C.2     1  UNL1        0.2493
     13 O          -3.8327    3.5695   26.7023 O.2     1  UNL1       -0.2699
     14 N          -2.3333    3.6420   24.4906 N.am    1  UNL1       -0.2657
     15 C          -0.9874    3.4132   25.1119 C.3     1  UNL1        0.1007
     16 C          -0.5576    2.0241   25.4802 C.3     1  UNL1        0.0673
     17 C          -0.0732    1.7325   26.8695 C.ar    1  UNL1        0.0607
     18 C          -0.9908    1.0837   27.8631 C.ar    1  UNL1        0.0148
     19 C          -0.5063    0.7921   29.2524 C.ar    1  UNL1        0.0028
     20 C           0.8958    1.1492   29.6482 C.ar    1  UNL1        0.0207
     21 C           1.8134    1.7979   28.6546 C.ar    1  UNL1        0.0984
     22 N           1.3289    2.0895   27.2653 N.ar    1  UNL1       -0.2481
     23 C          -0.5870    2.7767   19.7829 C.3     1  UNL1        0.1179
     24 C           0.3714    1.6307   19.6484 C.ar    1  UNL1        0.0168
     25 C           1.3976    1.6355   18.5544 C.ar    1  UNL1        0.0037
     26 C           2.3560    0.4895   18.4200 C.ar    1  UNL1        0.0574
     27 C           2.2882   -0.6615   19.3795 C.ar    1  UNL1        0.2248
     28 N           1.2620   -0.6664   20.4735 N.ar    1  UNL1       -0.2104
     29 C           0.3036    0.4797   20.6080 C.ar    1  UNL1        0.0994
     30 O           3.2466   -1.8075   19.2450 O.3     1  UNL1       -0.4599
     31 C           3.9925   -2.3065   20.4469 C.3     1  UNL1        0.2159
     32 C           4.2502   -3.7748   20.6133 C.3     1  UNL1        0.1505
     33 C           4.4847   -4.6364   19.4081 C.3     1  UNL1        0.4014
     34 F           4.7193   -5.4981   18.2028 F       1  UNL1       -0.1699
     35 F           3.2926   -5.4707   19.7726 F       1  UNL1       -0.1699
     36 F           5.6769   -3.8022   19.0437 F       1  UNL1       -0.1699
@<TRIPOS>BOND
     1     1     2    2
     2     2     3   am
     3     3    23    1
     4    23    24    1
     5    24    25   ar
     6    25    26   ar
     7    26    27   ar
     8    27    30    1
     9    30    31    1
    10    31    32    1
    11    32    33    1
    12    33    34    1
    13    33    35    1
    14    33    36    1
    15    27    28   ar
    16    28    29   ar
    17     2     5    1
    18     5     6    1
    19     6     7   ar
    20     7     8   ar
    21     8     9   ar
    22     9    10   ar
    23    10    11   ar
    24    11    12    1
    25    12    13    2
    26    12    14   am
    27    14    15    1
    28    15    16    1
    29    16    17    1
    30    17    18   ar
    31    18    19   ar
    32    19    20   ar
    33    20    21   ar
    34    21    22   ar
    35    29    24   ar
    36    14     5    1
    37    22    17   ar
    38    11     6   ar
    39     3     4    1
