@<TRIPOS>MOLECULE
*****
 34 37 0 0 0
SMALL
GASTEIGER

@<TRIPOS>ATOM
      1 C          -9.9643   -3.2784   17.3503 C.3     1  UNL1        0.1203
      2 N         -11.2606   -2.6813   17.8116 N.am    1  UNL1       -0.2537
      3 C         -11.4644   -1.2327   17.4802 C.2     1  UNL1        0.2525
      4 O         -10.3449   -0.5727   16.7311 O.2     1  UNL1       -0.2696
      5 C         -12.6396   -0.3567   17.7987 C.ar    1  UNL1        0.0503
      6 C         -12.4392    1.0379   17.2839 C.ar    1  UNL1        0.0042
      7 C         -13.5004    2.0761   17.4978 C.ar    1  UNL1        0.0001
      8 C         -14.7622    1.7197   18.2265 C.ar    1  UNL1       -0.0003
      9 C         -14.9627    0.3252   18.7413 C.ar    1  UNL1       -0.0038
     10 C         -13.9014   -0.7130   18.5273 C.ar    1  UNL1       -0.0123
     11 C         -14.2995   -2.0334   19.1175 C.3     1  UNL1        0.0655
     12 C         -13.5343   -3.3235   19.1247 C.ar    1  UNL1       -0.0031
     13 C         -14.2968   -4.4091   19.8246 C.ar    1  UNL1       -0.0027
     14 C         -13.7069   -5.7831   19.9433 C.ar    1  UNL1       -0.0002
     15 C         -12.3545   -6.0715   19.3622 C.ar    1  UNL1        0.0013
     16 C         -11.5919   -4.9858   18.6623 C.ar    1  UNL1        0.0146
     17 C         -12.1818   -3.6118   18.5435 C.ar    1  UNL1        0.0505
     18 C         -15.6402   -2.0682   19.7892 C.3     1  UNL1        0.0981
     19 N         -16.6785   -3.0537   19.3408 N.am    1  UNL1       -0.3023
     20 C         -18.1034   -2.8947   19.7817 C.2     1  UNL1        0.2426
     21 O         -18.4901   -1.7504   20.6709 O.2     1  UNL1       -0.2733
     22 H         -16.4247   -3.8048   18.7572 H       1  UNL1        0.1495
     23 C         -19.1415   -3.8803   19.3333 C.3     1  UNL1        0.1759
     24 N         -18.8896   -5.3521   19.4759 N.am    1  UNL1       -0.2931
     25 C         -18.0180   -6.0634   18.4838 C.2     1  UNL1        0.2462
     26 O         -17.3983   -5.3028   17.3491 O.2     1  UNL1       -0.2701
     27 H         -19.2963   -5.8512   20.2207 H       1  UNL1        0.1502
     28 C         -17.7660   -7.5352   18.6264 C.ar    1  UNL1        0.0535
     29 C         -16.8628   -8.0397   19.7126 C.ar    1  UNL1        0.0068
     30 C         -16.6109   -9.5115   19.8552 C.ar    1  UNL1        0.0298
     31 C         -17.2622  -10.4788   18.9117 C.ar    1  UNL1        0.1401
     32 F         -17.0102  -11.9506   19.0543 F       1  UNL1       -0.2042
     33 C         -18.1654   -9.9743   17.8255 C.ar    1  UNL1        0.0298
     34 C         -18.4174   -8.5025   17.6829 C.ar    1  UNL1        0.0068
@<TRIPOS>BOND
     1     1     2    1
     2     2     3   am
     3     3     4    2
     4     3     5    1
     5     5     6   ar
     6     6     7   ar
     7     7     8   ar
     8     8     9   ar
     9     9    10   ar
    10    10    11    1
    11    11    18    1
    12    18    19    1
    13    19    20   am
    14    20    21    2
    15    20    23    1
    16    23    24    1
    17    24    25   am
    18    25    26    2
    19    25    28    1
    20    28    29   ar
    21    29    30   ar
    22    30    31   ar
    23    31    32    1
    24    31    33   ar
    25    33    34   ar
    26    11    12    1
    27    12    13   ar
    28    13    14   ar
    29    14    15   ar
    30    15    16   ar
    31    16    17   ar
    32    17     2    1
    33    10     5   ar
    34    34    28   ar
    35    17    12   ar
    36    19    22    1
    37    24    27    1
@<TRIPOS>MOLECULE
*****
 34 37 0 0 0
SMALL
GASTEIGER

@<TRIPOS>ATOM
      1 C          -6.8716    3.9618   22.8607 C.3     1  UNL1        0.1203
      2 N          -5.3808    3.8549   22.7343 N.am    1  UNL1       -0.2537
      3 C          -4.6277    3.7022   24.0224 C.2     1  UNL1        0.2525
      4 O          -5.4650    3.6766   25.2667 O.2     1  UNL1       -0.2696
      5 C          -3.1479    3.5718   24.2309 C.ar    1  UNL1        0.0503
      6 C          -2.8091    3.4392   25.6861 C.ar    1  UNL1        0.0042
      7 C          -1.3783    3.2966   26.1130 C.ar    1  UNL1        0.0001
      8 C          -0.2862    3.2867   25.0847 C.ar    1  UNL1       -0.0003
      9 C          -0.6250    3.4193   23.6296 C.ar    1  UNL1       -0.0038
     10 C          -2.0559    3.5619   23.2027 C.ar    1  UNL1       -0.0123
     11 C          -2.1739    3.6799   21.7120 C.3     1  UNL1        0.0655
     12 C          -3.4130    3.8370   20.8813 C.ar    1  UNL1       -0.0031
     13 C          -3.0863    3.9184   19.4196 C.ar    1  UNL1       -0.0027
     14 C          -4.1868    4.0775   18.4129 C.ar    1  UNL1       -0.0002
     15 C          -5.6140    4.1554   18.8678 C.ar    1  UNL1        0.0013
     16 C          -5.9407    4.0741   20.3296 C.ar    1  UNL1        0.0146
     17 C          -4.8402    3.9149   21.3363 C.ar    1  UNL1        0.0505
     18 C          -0.8819    3.6349   20.9513 C.3     1  UNL1        0.0981
     19 N          -0.4956    2.3943   20.2018 N.am    1  UNL1       -0.3023
     20 C           0.5122    2.4709   19.0934 C.2     1  UNL1        0.2426
     21 O           1.1337    3.7879   18.7345 O.2     1  UNL1       -0.2733
     22 H          -0.9034    1.5298   20.4373 H       1  UNL1        0.1495
     23 C           0.8985    1.2302   18.3440 C.3     1  UNL1        0.1759
     24 N           1.9485    0.3146   18.8999 N.am    1  UNL1       -0.2931
     25 C           1.6335   -0.5611   20.0762 C.2     1  UNL1        0.2462
     26 O           0.2684   -0.5212   20.6967 O.2     1  UNL1       -0.2701
     27 H           2.8445    0.2884   18.4926 H       1  UNL1        0.1502
     28 C           2.6836   -1.4768   20.6321 C.ar    1  UNL1        0.0535
     29 C           3.0976   -1.3583   22.0690 C.ar    1  UNL1        0.0068
     30 C           4.1476   -2.2740   22.6249 C.ar    1  UNL1        0.0298
     31 C           4.7837   -3.3081   21.7438 C.ar    1  UNL1        0.1401
     32 F           5.8338   -4.2237   22.2997 F       1  UNL1       -0.2042
     33 C           4.3698   -3.4265   20.3069 C.ar    1  UNL1        0.0298
     34 C           3.3197   -2.5108   19.7510 C.ar    1  UNL1        0.0068
@<TRIPOS>BOND
     1     1     2    1
     2     2     3   am
     3     3     4    2
     4     3     5    1
     5     5     6   ar
     6     6     7   ar
     7     7     8   ar
     8     8     9   ar
     9     9    10   ar
    10    10    11    1
    11    11    18    1
    12    18    19    1
    13    19    20   am
    14    20    21    2
    15    20    23    1
    16    23    24    1
    17    24    25   am
    18    25    26    2
    19    25    28    1
    20    28    29   ar
    21    29    30   ar
    22    30    31   ar
    23    31    32    1
    24    31    33   ar
    25    33    34   ar
    26    11    12    1
    27    12    13   ar
    28    13    14   ar
    29    14    15   ar
    30    15    16   ar
    31    16    17   ar
    32    17     2    1
    33    10     5   ar
    34    34    28   ar
    35    17    12   ar
    36    19    22    1
    37    24    27    1
@<TRIPOS>MOLECULE
*****
 34 37 0 0 0
SMALL
GASTEIGER

@<TRIPOS>ATOM
      1 C           6.5348   -3.7966   31.0474 C.3     1  UNL1        0.1203
      2 N           6.7392   -4.0095   29.5768 N.am    1  UNL1       -0.2537
      3 C           7.1396   -5.3964   29.1694 C.2     1  UNL1        0.2525
      4 O           7.2826   -6.3871   30.2866 O.2     1  UNL1       -0.2696
      5 C           7.4159   -5.9238   27.7926 C.ar    1  UNL1        0.0503
      6 C           7.7885   -7.3764   27.8266 C.ar    1  UNL1        0.0042
      7 C           8.1052   -8.0995   26.5512 C.ar    1  UNL1        0.0001
      8 C           8.0493   -7.3700   25.2417 C.ar    1  UNL1       -0.0003
      9 C           7.6768   -5.9174   25.2077 C.ar    1  UNL1       -0.0038
     10 C           7.3601   -5.1943   26.4831 C.ar    1  UNL1       -0.0123
     11 C           7.0141   -3.7574   26.2270 C.3     1  UNL1        0.0655
     12 C           6.6386   -2.6950   27.2171 C.ar    1  UNL1       -0.0031
     13 C           6.3682   -1.3847   26.5390 C.ar    1  UNL1       -0.0027
     14 C           5.9756   -0.1865   27.3516 C.ar    1  UNL1       -0.0002
     15 C           5.8533   -0.2987   28.8423 C.ar    1  UNL1        0.0013
     16 C           6.1236   -1.6091   29.5205 C.ar    1  UNL1        0.0146
     17 C           6.5162   -2.8072   28.7079 C.ar    1  UNL1        0.0505
     18 C           7.0482   -3.3257   24.7909 C.3     1  UNL1        0.0981
     19 N           5.7917   -3.3455   23.9717 N.am    1  UNL1       -0.3023
     20 C           5.8167   -3.8873   22.5732 C.2     1  UNL1        0.2426
     21 O           7.0979   -4.4094   21.9939 O.2     1  UNL1       -0.2733
     22 H           4.9508   -3.0028   24.3519 H       1  UNL1        0.1495
     23 C           4.5602   -3.9071   21.7541 C.3     1  UNL1        0.1759
     24 N           3.9061   -2.6181   21.3530 N.am    1  UNL1       -0.2931
     25 C           3.3337   -2.4645   19.9752 C.2     1  UNL1        0.2462
     26 O           3.4154   -3.5999   18.9982 O.2     1  UNL1       -0.2701
     27 H           3.8524   -1.8730   21.9942 H       1  UNL1        0.1502
     28 C           2.6796   -1.1756   19.5741 C.ar    1  UNL1        0.0535
     29 C           3.3677   -0.2528   18.6124 C.ar    1  UNL1        0.0068
     30 C           2.7136    1.0361   18.2114 C.ar    1  UNL1        0.0298
     31 C           1.3713    1.4022   18.7721 C.ar    1  UNL1        0.1401
     32 F           0.7171    2.6911   18.3710 F       1  UNL1       -0.2042
     33 C           0.6831    0.4793   19.7337 C.ar    1  UNL1        0.0298
     34 C           1.3372   -0.8096   20.1348 C.ar    1  UNL1        0.0068
@<TRIPOS>BOND
     1     1     2    1
     2     2     3   am
     3     3     4    2
     4     3     5    1
     5     5     6   ar
     6     6     7   ar
     7     7     8   ar
     8     8     9   ar
     9     9    10   ar
    10    10    11    1
    11    11    18    1
    12    18    19    1
    13    19    20   am
    14    20    21    2
    15    20    23    1
    16    23    24    1
    17    24    25   am
    18    25    26    2
    19    25    28    1
    20    28    29   ar
    21    29    30   ar
    22    30    31   ar
    23    31    32    1
    24    31    33   ar
    25    33    34   ar
    26    11    12    1
    27    12    13   ar
    28    13    14   ar
    29    14    15   ar
    30    15    16   ar
    31    16    17   ar
    32    17     2    1
    33    10     5   ar
    34    34    28   ar
    35    17    12   ar
    36    19    22    1
    37    24    27    1
@<TRIPOS>MOLECULE
*****
 34 37 0 0 0
SMALL
GASTEIGER

@<TRIPOS>ATOM
      1 C          -5.4626    3.7527   25.0157 C.3     1  UNL1        0.1203
      2 N          -4.6193    3.7557   23.7752 N.am    1  UNL1       -0.2537
      3 C          -5.3699    3.8165   22.4780 C.2     1  UNL1        0.2525
      4 O          -6.8647    3.8663   22.5928 O.2     1  UNL1       -0.2696
      5 C          -4.8236    3.8340   21.0811 C.ar    1  UNL1        0.0503
      6 C          -5.9234    3.8998   20.0633 C.ar    1  UNL1        0.0042
      7 C          -5.5912    3.9267   18.6008 C.ar    1  UNL1        0.0001
      8 C          -4.1591    3.8878   18.1562 C.ar    1  UNL1       -0.0003
      9 C          -3.0593    3.8220   19.1740 C.ar    1  UNL1       -0.0038
     10 C          -3.3915    3.7951   20.6365 C.ar    1  UNL1       -0.0123
     11 C          -2.1522    3.7291   21.4789 C.3     1  UNL1        0.0655
     12 C          -2.0387    3.6856   22.9740 C.ar    1  UNL1       -0.0031
     13 C          -0.6059    3.6233   23.4134 C.ar    1  UNL1       -0.0027
     14 C          -0.2710    3.5728   24.8746 C.ar    1  UNL1       -0.0002
     15 C          -1.3689    3.5847   25.8965 C.ar    1  UNL1        0.0013
     16 C          -2.8018    3.6470   25.4572 C.ar    1  UNL1        0.0146
     17 C          -3.1367    3.6974   23.9959 C.ar    1  UNL1        0.0505
     18 C          -0.8546    3.7030   20.7268 C.3     1  UNL1        0.0981
     19 N          -0.3981    2.4381   20.0623 N.am    1  UNL1       -0.3023
     20 C           0.5074    2.5028   18.8682 C.2     1  UNL1        0.2426
     21 O           0.9564    3.8323   18.3386 O.2     1  UNL1       -0.2733
     22 H          -0.6928    1.5654   20.4099 H       1  UNL1        0.1495
     23 C           0.9639    1.2378   18.2037 C.3     1  UNL1        0.1759
     24 N           1.9851    0.3659   18.8723 N.am    1  UNL1       -0.2931
     25 C           1.5946   -0.4810   20.0470 C.2     1  UNL1        0.2462
     26 O           0.1828   -0.4560   20.5533 O.2     1  UNL1       -0.2701
     27 H           2.9117    0.3495   18.5399 H       1  UNL1        0.1502
     28 C           2.6158   -1.3529   20.7155 C.ar    1  UNL1        0.0535
     29 C           3.2808   -2.4549   19.9452 C.ar    1  UNL1        0.0068
     30 C           4.3020   -3.3269   20.6137 C.ar    1  UNL1        0.0298
     31 C           4.6581   -3.0968   22.0526 C.ar    1  UNL1        0.1401
     32 F           5.6793   -3.9688   22.7211 F       1  UNL1       -0.2042
     33 C           3.9931   -1.9949   22.8229 C.ar    1  UNL1        0.0298
     34 C           2.9719   -1.1229   22.1544 C.ar    1  UNL1        0.0068
@<TRIPOS>BOND
     1     1     2    1
     2     2     3   am
     3     3     4    2
     4     3     5    1
     5     5     6   ar
     6     6     7   ar
     7     7     8   ar
     8     8     9   ar
     9     9    10   ar
    10    10    11    1
    11    11    18    1
    12    18    19    1
    13    19    20   am
    14    20    21    2
    15    20    23    1
    16    23    24    1
    17    24    25   am
    18    25    26    2
    19    25    28    1
    20    28    29   ar
    21    29    30   ar
    22    30    31   ar
    23    31    32    1
    24    31    33   ar
    25    33    34   ar
    26    11    12    1
    27    12    13   ar
    28    13    14   ar
    29    14    15   ar
    30    15    16   ar
    31    16    17   ar
    32    17     2    1
    33    10     5   ar
    34    34    28   ar
    35    17    12   ar
    36    19    22    1
    37    24    27    1
@<TRIPOS>MOLECULE
*****
 34 37 0 0 0
SMALL
GASTEIGER

@<TRIPOS>ATOM
      1 C           3.5402   -3.1698   19.1996 C.3     1  UNL1        0.1203
      2 N           3.8907   -2.7270   20.5892 N.am    1  UNL1       -0.2537
      3 C           4.9888   -3.4975   21.2604 C.2     1  UNL1        0.2525
      4 O           5.5913   -4.6090   20.4531 O.2     1  UNL1       -0.2696
      5 C           5.5642   -3.3037   22.6320 C.ar    1  UNL1        0.0503
      6 C           6.6547   -4.2942   22.9139 C.ar    1  UNL1        0.0042
      7 C           7.3646   -4.2724   24.2351 C.ar    1  UNL1        0.0001
      8 C           6.9838   -3.2600   25.2744 C.ar    1  UNL1       -0.0003
      9 C           5.8933   -2.2695   24.9925 C.ar    1  UNL1       -0.0038
     10 C           5.1835   -2.2913   23.6713 C.ar    1  UNL1       -0.0123
     11 C           4.1334   -1.2228   23.5957 C.3     1  UNL1        0.0655
     12 C           3.2046   -0.9028   22.4621 C.ar    1  UNL1       -0.0031
     13 C           2.3045    0.2487   22.7994 C.ar    1  UNL1       -0.0027
     14 C           1.2964    0.7308   21.7988 C.ar    1  UNL1       -0.0002
     15 C           1.1884    0.0614   20.4608 C.ar    1  UNL1        0.0013
     16 C           2.0885   -1.0902   20.1235 C.ar    1  UNL1        0.0146
     17 C           3.0966   -1.5722   21.1241 C.ar    1  UNL1        0.0505
     18 C           3.9935   -0.3603   24.8149 C.3     1  UNL1        0.0981
     19 N           3.3189   -0.8992   26.0416 N.am    1  UNL1       -0.3023
     20 C           2.9743    0.0222   27.1740 C.2     1  UNL1        0.2426
     21 O           3.3042    1.4823   27.0798 O.2     1  UNL1       -0.2733
     22 H           3.1023   -1.8576   26.1034 H       1  UNL1        0.1495
     23 C           2.2997   -0.5168   28.4005 C.3     1  UNL1        0.1759
     24 N           3.0804   -0.6944   29.6690 N.am    1  UNL1       -0.2931
     25 C           2.5956   -0.0668   30.9421 C.2     1  UNL1        0.2462
     26 O           1.3300    0.7385   30.9468 O.2     1  UNL1       -0.2701
     27 H           3.9110   -1.2230   29.6659 H       1  UNL1        0.1502
     28 C           3.3763   -0.2444   32.2106 C.ar    1  UNL1        0.0535
     29 C           3.9820   -1.5770   32.5381 C.ar    1  UNL1        0.0068
     30 C           4.7627   -1.7547   33.8066 C.ar    1  UNL1        0.0298
     31 C           4.9376   -0.5996   34.7476 C.ar    1  UNL1        0.1401
     32 F           5.7183   -0.7773   36.0160 F       1  UNL1       -0.2042
     33 C           4.3319    0.7330   34.4201 C.ar    1  UNL1        0.0298
     34 C           3.5512    0.9106   33.1516 C.ar    1  UNL1        0.0068
@<TRIPOS>BOND
     1     1     2    1
     2     2     3   am
     3     3     4    2
     4     3     5    1
     5     5     6   ar
     6     6     7   ar
     7     7     8   ar
     8     8     9   ar
     9     9    10   ar
    10    10    11    1
    11    11    18    1
    12    18    19    1
    13    19    20   am
    14    20    21    2
    15    20    23    1
    16    23    24    1
    17    24    25   am
    18    25    26    2
    19    25    28    1
    20    28    29   ar
    21    29    30   ar
    22    30    31   ar
    23    31    32    1
    24    31    33   ar
    25    33    34   ar
    26    11    12    1
    27    12    13   ar
    28    13    14   ar
    29    14    15   ar
    30    15    16   ar
    31    16    17   ar
    32    17     2    1
    33    10     5   ar
    34    34    28   ar
    35    17    12   ar
    36    19    22    1
    37    24    27    1
@<TRIPOS>MOLECULE
*****
 34 37 0 0 0
SMALL
GASTEIGER

@<TRIPOS>ATOM
      1 C           8.8873   -8.2776   28.3396 C.3     1  UNL1        0.1203
      2 N           8.4093   -6.8693   28.1443 N.am    1  UNL1       -0.2537
      3 C           8.1732   -6.0821   29.3991 C.2     1  UNL1        0.2525
      4 O           8.4464   -6.8074   30.6834 O.2     1  UNL1       -0.2696
      5 C           7.7001   -4.6656   29.5396 C.ar    1  UNL1        0.0503
      6 C           7.5974   -4.2625   30.9807 C.ar    1  UNL1        0.0042
      7 C           7.1409   -2.8801   31.3421 C.ar    1  UNL1        0.0001
      8 C           6.7870   -1.9009   30.2623 C.ar    1  UNL1       -0.0003
      9 C           6.8896   -2.3041   28.8212 C.ar    1  UNL1       -0.0038
     10 C           7.3462   -3.6864   28.4598 C.ar    1  UNL1       -0.0123
     11 C           7.3780   -3.8819   26.9730 C.3     1  UNL1        0.0655
     12 C           7.7715   -5.1048   26.1986 C.ar    1  UNL1       -0.0031
     13 C           7.6610   -4.8765   24.7202 C.ar    1  UNL1       -0.0027
     14 C           8.0094   -5.9776   23.7631 C.ar    1  UNL1       -0.0002
     15 C           8.4684   -7.3071   24.2844 C.ar    1  UNL1        0.0013
     16 C           8.5789   -7.5354   25.7628 C.ar    1  UNL1        0.0146
     17 C           8.2305   -6.4343   26.7199 C.ar    1  UNL1        0.0505
     18 C           6.9611   -2.6978   26.1518 C.3     1  UNL1        0.0981
     19 N           5.6276   -2.6935   25.4649 N.am    1  UNL1       -0.3023
     20 C           4.9039   -1.3990   25.2402 C.2     1  UNL1        0.2426
     21 O           5.5136   -0.1088   25.7023 O.2     1  UNL1       -0.2733
     22 H           5.2274   -3.5403   25.1615 H       1  UNL1        0.1495
     23 C           3.5705   -1.3947   24.5532 C.3     1  UNL1        0.1759
     24 N           3.4843   -1.1013   23.0847 N.am    1  UNL1       -0.2931
     25 C           4.0216   -2.0871   22.0901 C.2     1  UNL1        0.2462
     26 O           4.6452   -3.3665   22.5640 O.2     1  UNL1       -0.2701
     27 H           3.0750   -0.2616   22.7737 H       1  UNL1        0.1502
     28 C           3.9354   -1.7937   20.6216 C.ar    1  UNL1        0.0535
     29 C           4.6718   -2.6563   19.6399 C.ar    1  UNL1        0.0068
     30 C           4.5857   -2.3629   18.1714 C.ar    1  UNL1        0.0298
     31 C           3.7630   -1.2069   17.6846 C.ar    1  UNL1        0.1401
     32 F           3.6768   -0.9134   16.2161 F       1  UNL1       -0.2042
     33 C           3.0266   -0.3443   18.6662 C.ar    1  UNL1        0.0298
     34 C           3.1128   -0.6377   20.1348 C.ar    1  UNL1        0.0068
@<TRIPOS>BOND
     1     1     2    1
     2     2     3   am
     3     3     4    2
     4     3     5    1
     5     5     6   ar
     6     6     7   ar
     7     7     8   ar
     8     8     9   ar
     9     9    10   ar
    10    10    11    1
    11    11    18    1
    12    18    19    1
    13    19    20   am
    14    20    21    2
    15    20    23    1
    16    23    24    1
    17    24    25   am
    18    25    26    2
    19    25    28    1
    20    28    29   ar
    21    29    30   ar
    22    30    31   ar
    23    31    32    1
    24    31    33   ar
    25    33    34   ar
    26    11    12    1
    27    12    13   ar
    28    13    14   ar
    29    14    15   ar
    30    15    16   ar
    31    16    17   ar
    32    17     2    1
    33    10     5   ar
    34    34    28   ar
    35    17    12   ar
    36    19    22    1
    37    24    27    1
@<TRIPOS>MOLECULE
*****
 34 37 0 0 0
SMALL
GASTEIGER

@<TRIPOS>ATOM
      1 C         -10.6812   -4.6887   18.9742 C.3     1  UNL1        0.1203
      2 N         -12.1541   -4.4068   18.9475 N.am    1  UNL1       -0.2537
      3 C         -13.0481   -5.5967   19.1349 C.2     1  UNL1        0.2525
      4 O         -12.3507   -6.9112   19.3243 O.2     1  UNL1       -0.2696
      5 C         -14.5471   -5.6460   19.1580 C.ar    1  UNL1        0.0503
      6 C         -15.0462   -7.0441   19.3724 C.ar    1  UNL1        0.0042
      7 C         -16.5207   -7.3137   19.4282 C.ar    1  UNL1        0.0001
      8 C         -17.4961   -6.1852   19.2696 C.ar    1  UNL1       -0.0003
      9 C         -16.9969   -4.7871   19.0551 C.ar    1  UNL1       -0.0038
     10 C         -15.5225   -4.5175   18.9993 C.ar    1  UNL1       -0.0123
     11 C         -15.2396   -3.0610   18.7784 C.3     1  UNL1        0.0655
     12 C         -13.9117   -2.3733   18.6615 C.ar    1  UNL1       -0.0031
     13 C         -14.0757   -0.8985   18.4425 C.ar    1  UNL1       -0.0027
     14 C         -12.8665   -0.0226   18.2988 C.ar    1  UNL1       -0.0002
     15 C         -11.4933   -0.6215   18.3741 C.ar    1  UNL1        0.0013
     16 C         -11.3294   -2.0964   18.5931 C.ar    1  UNL1        0.0146
     17 C         -12.5385   -2.9723   18.7368 C.ar    1  UNL1        0.0505
     18 C         -16.4441   -2.1751   18.6584 C.3     1  UNL1        0.0981
     19 N         -17.0048   -1.5024   19.8763 N.am    1  UNL1       -0.3023
     20 C         -17.6819   -0.1697   19.7522 C.2     1  UNL1        0.2426
     21 O         -17.7984    0.4903   18.4104 O.2     1  UNL1       -0.2733
     22 H         -16.9283   -1.9356   20.7571 H       1  UNL1        0.1495
     23 C         -18.2425    0.5029   20.9702 C.3     1  UNL1        0.1759
     24 N         -17.3583    1.3579   21.8287 N.am    1  UNL1       -0.2931
     25 C         -17.1777    2.8115   21.5055 C.2     1  UNL1        0.2462
     26 O         -17.8814    3.4101   20.3237 O.2     1  UNL1       -0.2701
     27 H         -16.8964    0.9650   22.6043 H       1  UNL1        0.1502
     28 C         -16.2934    3.6665   22.3640 C.ar    1  UNL1        0.0535
     29 C         -15.1728    4.4467   21.7431 C.ar    1  UNL1        0.0068
     30 C         -14.2885    5.3017   22.6017 C.ar    1  UNL1        0.0298
     31 C         -14.5249    5.3765   24.0811 C.ar    1  UNL1        0.1401
     32 F         -13.6406    6.2315   24.9396 F       1  UNL1       -0.2042
     33 C         -15.6455    4.5963   24.7020 C.ar    1  UNL1        0.0298
     34 C         -16.5298    3.7412   23.8434 C.ar    1  UNL1        0.0068
@<TRIPOS>BOND
     1     1     2    1
     2     2     3   am
     3     3     4    2
     4     3     5    1
     5     5     6   ar
     6     6     7   ar
     7     7     8   ar
     8     8     9   ar
     9     9    10   ar
    10    10    11    1
    11    11    18    1
    12    18    19    1
    13    19    20   am
    14    20    21    2
    15    20    23    1
    16    23    24    1
    17    24    25   am
    18    25    26    2
    19    25    28    1
    20    28    29   ar
    21    29    30   ar
    22    30    31   ar
    23    31    32    1
    24    31    33   ar
    25    33    34   ar
    26    11    12    1
    27    12    13   ar
    28    13    14   ar
    29    14    15   ar
    30    15    16   ar
    31    16    17   ar
    32    17     2    1
    33    10     5   ar
    34    34    28   ar
    35    17    12   ar
    36    19    22    1
    37    24    27    1
@<TRIPOS>MOLECULE
*****
 34 37 0 0 0
SMALL
GASTEIGER

@<TRIPOS>ATOM
      1 C         -10.7108   -5.6952   16.3523 C.3     1  UNL1        0.1203
      2 N         -11.9051   -5.6773   17.2596 N.am    1  UNL1       -0.2537
      3 C         -12.7267   -6.9321   17.2788 C.2     1  UNL1        0.2525
      4 O         -12.2453   -8.0389   16.3881 O.2     1  UNL1       -0.2696
      5 C         -13.9661   -7.2266   18.0708 C.ar    1  UNL1        0.0503
      6 C         -14.4770   -8.6097   17.7950 C.ar    1  UNL1        0.0042
      7 C         -15.7118   -9.1050   18.4877 C.ar    1  UNL1        0.0001
      8 C         -16.4357   -8.2173   19.4562 C.ar    1  UNL1       -0.0003
      9 C         -15.9247   -6.8343   19.7321 C.ar    1  UNL1       -0.0038
     10 C         -14.6899   -6.3389   19.0393 C.ar    1  UNL1       -0.0123
     11 C         -14.3532   -4.9375   19.4550 C.3     1  UNL1        0.0655
     12 C         -13.2095   -4.0777   19.0048 C.ar    1  UNL1       -0.0031
     13 C         -13.2397   -2.7333   19.6694 C.ar    1  UNL1       -0.0027
     14 C         -12.1806   -1.7182   19.3570 C.ar    1  UNL1       -0.0002
     15 C         -11.0911   -2.0474   18.3800 C.ar    1  UNL1        0.0013
     16 C         -11.0608   -3.3919   17.7153 C.ar    1  UNL1        0.0146
     17 C         -12.1200   -4.4070   18.0278 C.ar    1  UNL1        0.0505
     18 C         -15.2832   -4.3134   20.4528 C.3     1  UNL1        0.0981
     19 N         -16.0588   -3.0825   20.0876 N.am    1  UNL1       -0.3023
     20 C         -17.5469   -3.1575   19.9147 C.2     1  UNL1        0.2426
     21 O         -18.2594   -4.4632   20.1070 O.2     1  UNL1       -0.2733
     22 H         -15.5911   -2.2254   19.9613 H       1  UNL1        0.1495
     23 C         -18.3224   -1.9265   19.5495 C.3     1  UNL1        0.1759
     24 N         -18.1070   -0.6514   20.3096 N.am    1  UNL1       -0.2931
     25 C         -16.9719    0.2579   19.9427 C.2     1  UNL1        0.2462
     26 O         -16.0521   -0.1080   18.8156 O.2     1  UNL1       -0.2701
     27 H         -18.7107   -0.4113   21.0493 H       1  UNL1        0.1502
     28 C         -16.7565    1.5330   20.7028 C.ar    1  UNL1        0.0535
     29 C         -15.9250    2.6300   20.1068 C.ar    1  UNL1        0.0068
     30 C         -15.7096    3.9051   20.8669 C.ar    1  UNL1        0.0298
     31 C         -16.3258    4.0832   22.2230 C.ar    1  UNL1        0.1401
     32 F         -16.1104    5.3583   22.9831 F       1  UNL1       -0.2042
     33 C         -17.1573    2.9861   22.8189 C.ar    1  UNL1        0.0298
     34 C         -17.3727    1.7110   22.0588 C.ar    1  UNL1        0.0068
@<TRIPOS>BOND
     1     1     2    1
     2     2     3   am
     3     3     4    2
     4     3     5    1
     5     5     6   ar
     6     6     7   ar
     7     7     8   ar
     8     8     9   ar
     9     9    10   ar
    10    10    11    1
    11    11    18    1
    12    18    19    1
    13    19    20   am
    14    20    21    2
    15    20    23    1
    16    23    24    1
    17    24    25   am
    18    25    26    2
    19    25    28    1
    20    28    29   ar
    21    29    30   ar
    22    30    31   ar
    23    31    32    1
    24    31    33   ar
    25    33    34   ar
    26    11    12    1
    27    12    13   ar
    28    13    14   ar
    29    14    15   ar
    30    15    16   ar
    31    16    17   ar
    32    17     2    1
    33    10     5   ar
    34    34    28   ar
    35    17    12   ar
    36    19    22    1
    37    24    27    1
@<TRIPOS>MOLECULE
*****
 34 37 0 0 0
SMALL
GASTEIGER

@<TRIPOS>ATOM
      1 C           6.8877    1.7590   16.7204 C.3     1  UNL1        0.1203
      2 N           5.7463    1.1281   17.4612 N.am    1  UNL1       -0.2537
      3 C           5.8487   -0.3530   17.6755 C.2     1  UNL1        0.2525
      4 O           7.0792   -1.0073   17.1206 O.2     1  UNL1       -0.2696
      5 C           4.8835   -1.2664   18.3712 C.ar    1  UNL1        0.0503
      6 C           5.3695   -2.6855   18.3640 C.ar    1  UNL1        0.0042
      7 C           4.5493   -3.7624   19.0101 C.ar    1  UNL1        0.0001
      8 C           3.2431   -3.4202   19.6635 C.ar    1  UNL1       -0.0003
      9 C           2.7571   -2.0012   19.6707 C.ar    1  UNL1       -0.0038
     10 C           3.5773   -0.9243   19.0246 C.ar    1  UNL1       -0.0123
     11 C           2.9139    0.4158   19.1435 C.3     1  UNL1        0.0655
     12 C           3.3926    1.7446   18.6385 C.ar    1  UNL1       -0.0031
     13 C           2.4221    2.8391   18.9705 C.ar    1  UNL1       -0.0027
     14 C           2.7122    4.2506   18.5538 C.ar    1  UNL1       -0.0002
     15 C           3.9727    4.5675   17.8052 C.ar    1  UNL1        0.0013
     16 C           4.9432    3.4730   17.4731 C.ar    1  UNL1        0.0146
     17 C           4.6531    2.0616   17.8898 C.ar    1  UNL1        0.0505
     18 C           1.5975    0.4287   19.8626 C.3     1  UNL1        0.0981
     19 N           1.4836    1.0842   21.2070 N.am    1  UNL1       -0.3023
     20 C           0.2169    1.7889   21.5929 C.2     1  UNL1        0.2426
     21 O          -0.9358    1.8381   20.6345 O.2     1  UNL1       -0.2733
     22 H           2.2402    1.0519   21.8361 H       1  UNL1        0.1495
     23 C           0.1030    2.4443   22.9373 C.3     1  UNL1        0.1759
     24 N           0.6291    1.7488   24.1577 N.am    1  UNL1       -0.2931
     25 C          -0.1143    1.8484   25.4567 C.2     1  UNL1        0.2462
     26 O          -1.3838    2.6437   25.5353 O.2     1  UNL1       -0.2701
     27 H           1.4622    1.2268   24.1062 H       1  UNL1        0.1502
     28 C           0.4117    1.1528   26.6771 C.ar    1  UNL1        0.0535
     29 C          -0.5384    0.6644   27.7301 C.ar    1  UNL1        0.0068
     30 C          -0.0124   -0.0312   28.9505 C.ar    1  UNL1        0.0298
     31 C           1.4638   -0.2383   29.1180 C.ar    1  UNL1        0.1401
     32 F           1.9898   -0.9339   30.3385 F       1  UNL1       -0.2042
     33 C           2.4140    0.2502   28.0651 C.ar    1  UNL1        0.0298
     34 C           1.8879    0.9457   26.8447 C.ar    1  UNL1        0.0068
@<TRIPOS>BOND
     1     1     2    1
     2     2     3   am
     3     3     4    2
     4     3     5    1
     5     5     6   ar
     6     6     7   ar
     7     7     8   ar
     8     8     9   ar
     9     9    10   ar
    10    10    11    1
    11    11    18    1
    12    18    19    1
    13    19    20   am
    14    20    21    2
    15    20    23    1
    16    23    24    1
    17    24    25   am
    18    25    26    2
    19    25    28    1
    20    28    29   ar
    21    29    30   ar
    22    30    31   ar
    23    31    32    1
    24    31    33   ar
    25    33    34   ar
    26    11    12    1
    27    12    13   ar
    28    13    14   ar
    29    14    15   ar
    30    15    16   ar
    31    16    17   ar
    32    17     2    1
    33    10     5   ar
    34    34    28   ar
    35    17    12   ar
    36    19    22    1
    37    24    27    1
