@<TRIPOS>MOLECULE
*****
 37 40 0 0 0
SMALL
GASTEIGER

@<TRIPOS>ATOM
      1 N          -7.4361  -16.7317   23.3209 N.ar    1  UNL1       -0.3097
      2 C          -6.8351  -15.7103   24.2404 C.ar    1  UNL1        0.0418
      3 C          -7.5855  -14.6528   24.9944 C.3     1  UNL1        0.0504
      4 C          -5.3520  -15.9321   24.2735 C.ar    1  UNL1        0.0146
      5 C          -5.0364  -17.0906   23.3744 C.ar    1  UNL1        0.0188
      6 C          -6.3244  -17.5848   22.7857 C.ar    1  UNL1        0.0666
      7 C          -6.4745  -18.7308   21.8296 C.ar    1  UNL1        0.0506
      8 C          -7.5982  -18.7363   20.8360 C.ar    1  UNL1        0.0112
      9 C          -7.7482  -19.8824   19.8799 C.ar    1  UNL1        0.0348
     10 BR         -8.8719  -19.8880   18.8863 Br      1  UNL1       -0.0490
     11 C          -6.7746  -21.0228   19.9174 C.ar    1  UNL1        0.0098
     12 C          -5.6509  -21.0172   20.9110 C.ar    1  UNL1        0.0375
     13 C          -5.5009  -19.8712   21.8671 C.ar    1  UNL1        0.1404
     14 O          -4.3771  -19.8657   22.8607 O.3     1  UNL1       -0.4705
     15 C          -2.9695  -19.6297   22.3996 C.3     1  UNL1        0.2342
     16 C          -2.7139  -18.9270   21.0992 C.ar    1  UNL1        0.0488
     17 C          -2.9671  -19.6352   19.8015 C.ar    1  UNL1        0.0039
     18 C          -2.7116  -18.9325   18.5012 C.ar    1  UNL1        0.0296
     19 C          -2.2029  -17.5214   18.4986 C.ar    1  UNL1        0.1424
     20 F          -1.9474  -16.8186   17.1984 F       1  UNL1       -0.2041
     21 C          -1.9497  -16.8131   19.7964 C.ar    1  UNL1        0.0590
     22 C          -2.2052  -17.5159   21.0967 C.ar    1  UNL1        0.1418
     23 F          -1.9520  -16.8075   22.3945 F       1  UNL1       -0.2043
     24 C         -11.2614  -17.7493   23.6077 C.ar    1  UNL1        0.0518
     25 C         -11.8069  -17.1613   22.3402 C.ar    1  UNL1        0.0159
     26 C         -10.8955  -16.4301   21.3996 C.ar    1  UNL1        0.0167
     27 C          -9.4386  -16.2869   21.7265 C.ar    1  UNL1        0.0187
     28 C          -8.8931  -16.8749   22.9940 C.ar    1  UNL1        0.0649
     29 C          -9.8045  -17.6061   23.9346 C.ar    1  UNL1        0.0322
     30 C         -14.5303  -18.8253   25.5841 C.3     1  UNL1        0.0949
     31 C         -13.6189  -18.0941   24.6435 C.2     1  UNL1        0.2266
     32 O         -14.1539  -16.9765   23.7979 O.2     1  UNL1       -0.2748
     33 N         -12.1727  -18.4805   24.5483 N.am    1  UNL1       -0.2839
     34 H         -11.8216  -19.2140   25.1033 H       1  UNL1        0.1549
     35 C         -11.4412  -15.8421   20.1320 C.2     1  UNL1        0.0730
     36 O         -10.5304  -15.1087   19.1927 O.co2   1  UNL1       -0.5446
     37 O         -12.8976  -15.9876   19.8039 O.co2   1  UNL1       -0.5446
@<TRIPOS>UNITY_ATOM_ATTR
36 1
charge -1
@<TRIPOS>BOND
     1    30    31    1
     2    31    32    2
     3    31    33   am
     4    33    24    1
     5    24    25   ar
     6    25    26   ar
     7    26    35    1
     8    35    36   ar
     9    35    37   ar
    10    26    27   ar
    11    27    28   ar
    12    28     1    1
    13     1     2   ar
    14     2     3    1
    15     2     4   ar
    16     4     5   ar
    17     5     6   ar
    18     6     7    1
    19     7     8   ar
    20     8     9   ar
    21     9    10    1
    22     9    11   ar
    23    11    12   ar
    24    12    13   ar
    25    13    14    1
    26    14    15    1
    27    15    16    1
    28    16    17   ar
    29    17    18   ar
    30    18    19   ar
    31    19    20    1
    32    19    21   ar
    33    21    22   ar
    34    22    23    1
    35    28    29   ar
    36    29    24   ar
    37     6     1   ar
    38    13     7   ar
    39    22    16   ar
    40    33    34    1
@<TRIPOS>MOLECULE
*****
 37 40 0 0 0
SMALL
GASTEIGER

@<TRIPOS>ATOM
      1 N          -5.5765  -18.3732   22.1425 N.ar    1  UNL1       -0.3097
      2 C          -4.3250  -18.8331   21.4553 C.ar    1  UNL1        0.0418
      3 C          -4.2247  -19.9541   20.4636 C.3     1  UNL1        0.0504
      4 C          -3.1914  -17.9753   21.9338 C.ar    1  UNL1        0.0146
      5 C          -3.7423  -16.9852   22.9168 C.ar    1  UNL1        0.0188
      6 C          -5.2163  -17.2311   23.0457 C.ar    1  UNL1        0.0666
      7 C          -6.1638  -16.4688   23.9238 C.ar    1  UNL1        0.0506
      8 C          -5.9358  -16.4163   25.4055 C.ar    1  UNL1        0.0112
      9 C          -6.8833  -15.6540   26.2836 C.ar    1  UNL1        0.0348
     10 BR         -6.6552  -15.6015   27.7652 Br      1  UNL1       -0.0490
     11 C          -8.0588  -14.9440   25.6801 C.ar    1  UNL1        0.0098
     12 C          -8.2868  -14.9965   24.1985 C.ar    1  UNL1        0.0375
     13 C          -7.3393  -15.7589   23.3204 C.ar    1  UNL1        0.1404
     14 O          -7.5674  -15.8113   21.8387 O.3     1  UNL1       -0.4705
     15 C          -8.7882  -15.1737   21.2448 C.3     1  UNL1        0.2342
     16 C         -10.1105  -15.8790   21.3113 C.ar    1  UNL1        0.0488
     17 C         -10.5016  -16.6239   22.5532 C.ar    1  UNL1        0.0039
     18 C         -11.8239  -17.3291   22.6197 C.ar    1  UNL1        0.0296
     19 C         -12.7549  -17.2894   21.4443 C.ar    1  UNL1        0.1424
     20 F         -14.0771  -17.9946   21.5108 F       1  UNL1       -0.2041
     21 C         -12.3638  -16.5445   20.2024 C.ar    1  UNL1        0.0590
     22 C         -11.0416  -15.8393   20.1359 C.ar    1  UNL1        0.1418
     23 F         -10.6505  -15.0945   18.8940 F       1  UNL1       -0.2043
     24 C          -8.8725  -19.7261   20.3943 C.ar    1  UNL1        0.0518
     25 C          -9.6893  -20.1141   21.5910 C.ar    1  UNL1        0.0159
     26 C          -9.1352  -19.9218   22.9716 C.ar    1  UNL1        0.0167
     27 C          -7.7643  -19.3415   23.1554 C.ar    1  UNL1        0.0187
     28 C          -6.9475  -18.9535   21.9587 C.ar    1  UNL1        0.0649
     29 C          -7.5016  -19.1458   20.5781 C.ar    1  UNL1        0.0322
     30 C          -9.4291  -21.1880   16.7469 C.3     1  UNL1        0.0949
     31 C          -8.8751  -20.9957   18.1275 C.2     1  UNL1        0.2266
     32 O          -7.7694  -21.8807   18.6219 O.2     1  UNL1       -0.2748
     33 N          -9.4266  -19.9184   19.0137 N.am    1  UNL1       -0.2839
     34 H         -10.1522  -19.3376   18.6892 H       1  UNL1        0.1549
     35 C          -9.9521  -20.3098   24.1684 C.2     1  UNL1        0.0730
     36 O         -11.1916  -19.5383   24.5125 O.co2   1  UNL1       -0.5446
     37 O          -9.5294  -21.4693   25.0210 O.co2   1  UNL1       -0.5446
@<TRIPOS>UNITY_ATOM_ATTR
36 1
charge -1
@<TRIPOS>BOND
     1    30    31    1
     2    31    32    2
     3    31    33   am
     4    33    24    1
     5    24    25   ar
     6    25    26   ar
     7    26    35    1
     8    35    36   ar
     9    35    37   ar
    10    26    27   ar
    11    27    28   ar
    12    28     1    1
    13     1     2   ar
    14     2     3    1
    15     2     4   ar
    16     4     5   ar
    17     5     6   ar
    18     6     7    1
    19     7     8   ar
    20     8     9   ar
    21     9    10    1
    22     9    11   ar
    23    11    12   ar
    24    12    13   ar
    25    13    14    1
    26    14    15    1
    27    15    16    1
    28    16    17   ar
    29    17    18   ar
    30    18    19   ar
    31    19    20    1
    32    19    21   ar
    33    21    22   ar
    34    22    23    1
    35    28    29   ar
    36    29    24   ar
    37     6     1   ar
    38    13     7   ar
    39    22    16   ar
    40    33    34    1
@<TRIPOS>MOLECULE
*****
 37 40 0 0 0
SMALL
GASTEIGER

@<TRIPOS>ATOM
      1 N          -7.9060  -19.0397   21.0697 N.ar    1  UNL1       -0.3097
      2 C          -7.7075  -20.1382   20.0677 C.ar    1  UNL1        0.0418
      3 C          -8.7642  -20.7193   19.1757 C.3     1  UNL1        0.0504
      4 C          -6.2670  -20.5535   20.1143 C.ar    1  UNL1        0.0146
      5 C          -5.5750  -19.7117   21.1452 C.ar    1  UNL1        0.0188
      6 C          -6.5880  -18.7762   21.7356 C.ar    1  UNL1        0.0666
      7 C          -6.3285  -17.7561   22.8044 C.ar    1  UNL1        0.0506
      8 C          -7.3631  -16.7152   23.1146 C.ar    1  UNL1        0.0112
      9 C          -7.1036  -15.6951   24.1833 C.ar    1  UNL1        0.0348
     10 BR         -8.1380  -14.6542   24.4936 Br      1  UNL1       -0.0490
     11 C          -5.8096  -15.7160   24.9419 C.ar    1  UNL1        0.0098
     12 C          -4.7752  -16.7570   24.6316 C.ar    1  UNL1        0.0375
     13 C          -5.0347  -17.7770   23.5629 C.ar    1  UNL1        0.1404
     14 O          -4.0001  -18.8180   23.2526 O.3     1  UNL1       -0.4705
     15 C          -2.6255  -18.4033   22.8186 C.3     1  UNL1        0.2342
     16 C          -2.3312  -18.1892   21.3634 C.ar    1  UNL1        0.0488
     17 C          -2.6025  -19.2838   20.3743 C.ar    1  UNL1        0.0039
     18 C          -2.3081  -19.0696   18.9191 C.ar    1  UNL1        0.0296
     19 C          -1.7424  -17.7609   18.4531 C.ar    1  UNL1        0.1424
     20 F          -1.4480  -17.5467   16.9979 F       1  UNL1       -0.2041
     21 C          -1.4711  -16.6664   19.4422 C.ar    1  UNL1        0.0590
     22 C          -1.7654  -16.8805   20.8973 C.ar    1  UNL1        0.1418
     23 F          -1.4940  -15.7859   21.8864 F       1  UNL1       -0.2043
     24 C         -11.2069  -17.8652   22.9337 C.ar    1  UNL1        0.0518
     25 C         -11.7758  -16.9093   21.9275 C.ar    1  UNL1        0.0159
     26 C         -11.0547  -16.6635   20.6353 C.ar    1  UNL1        0.0167
     27 C          -9.7648  -17.3737   20.3494 C.ar    1  UNL1        0.0187
     28 C          -9.1959  -18.3296   21.3556 C.ar    1  UNL1        0.0649
     29 C          -9.9170  -18.5753   22.6478 C.ar    1  UNL1        0.0322
     30 C         -14.1386  -18.5320   25.5241 C.3     1  UNL1        0.0949
     31 C         -13.4176  -18.2863   24.2320 C.2     1  UNL1        0.2266
     32 O         -14.1863  -18.2158   22.9458 O.2     1  UNL1       -0.2748
     33 N         -11.9279  -18.1109   24.2259 N.am    1  UNL1       -0.2839
     34 H         -11.4234  -18.1571   25.0700 H       1  UNL1        0.1549
     35 C         -11.6237  -15.7076   19.6290 C.2     1  UNL1        0.0730
     36 O         -13.1100  -15.5572   19.4942 O.co2   1  UNL1       -0.5446
     37 O         -10.7063  -14.9021   18.7575 O.co2   1  UNL1       -0.5446
@<TRIPOS>UNITY_ATOM_ATTR
36 1
charge -1
@<TRIPOS>BOND
     1    30    31    1
     2    31    32    2
     3    31    33   am
     4    33    24    1
     5    24    25   ar
     6    25    26   ar
     7    26    35    1
     8    35    36   ar
     9    35    37   ar
    10    26    27   ar
    11    27    28   ar
    12    28     1    1
    13     1     2   ar
    14     2     3    1
    15     2     4   ar
    16     4     5   ar
    17     5     6   ar
    18     6     7    1
    19     7     8   ar
    20     8     9   ar
    21     9    10    1
    22     9    11   ar
    23    11    12   ar
    24    12    13   ar
    25    13    14    1
    26    14    15    1
    27    15    16    1
    28    16    17   ar
    29    17    18   ar
    30    18    19   ar
    31    19    20    1
    32    19    21   ar
    33    21    22   ar
    34    22    23    1
    35    28    29   ar
    36    29    24   ar
    37     6     1   ar
    38    13     7   ar
    39    22    16   ar
    40    33    34    1
@<TRIPOS>MOLECULE
*****
 37 40 0 0 0
SMALL
GASTEIGER

@<TRIPOS>ATOM
      1 N          -7.0639  -16.7141   23.6119 N.ar    1  UNL1       -0.3097
      2 C          -6.4343  -15.6806   24.4981 C.ar    1  UNL1        0.0418
      3 C          -7.1656  -14.6779   25.3406 C.3     1  UNL1        0.0504
      4 C          -4.9450  -15.8257   24.3939 C.ar    1  UNL1        0.0146
      5 C          -4.6541  -16.9490   23.4433 C.ar    1  UNL1        0.0188
      6 C          -5.9637  -17.4981   22.9600 C.ar    1  UNL1        0.0666
      7 C          -6.1418  -18.6320   21.9944 C.ar    1  UNL1        0.0506
      8 C          -7.3103  -18.6396   21.0538 C.ar    1  UNL1        0.0112
      9 C          -7.4884  -19.7735   20.0882 C.ar    1  UNL1        0.0348
     10 BR         -8.6569  -19.7812   19.1477 Br      1  UNL1       -0.0490
     11 C          -6.4980  -20.8998   20.0630 C.ar    1  UNL1        0.0098
     12 C          -5.3295  -20.8922   21.0035 C.ar    1  UNL1        0.0375
     13 C          -5.1514  -19.7582   21.9691 C.ar    1  UNL1        0.1404
     14 O          -3.9829  -19.7506   22.9096 O.3     1  UNL1       -0.4705
     15 C          -2.6178  -19.3850   22.4068 C.3     1  UNL1        0.2342
     16 C          -2.4620  -18.7393   21.0619 C.ar    1  UNL1        0.0488
     17 C          -2.7242  -19.5308   19.8149 C.ar    1  UNL1        0.0039
     18 C          -2.5683  -18.8850   18.4701 C.ar    1  UNL1        0.0296
     19 C          -2.1502  -17.4478   18.3721 C.ar    1  UNL1        0.1424
     20 F          -1.9944  -16.8021   17.0272 F       1  UNL1       -0.2041
     21 C          -1.8880  -16.6563   19.6190 C.ar    1  UNL1        0.0590
     22 C          -2.0439  -17.3021   20.9639 C.ar    1  UNL1        0.1418
     23 F          -1.7817  -16.5105   22.2108 F       1  UNL1       -0.2043
     24 C         -10.7484  -16.3347   22.1869 C.ar    1  UNL1        0.0518
     25 C         -11.4783  -17.3511   23.0141 C.ar    1  UNL1        0.0159
     26 C         -10.7367  -18.1551   24.0405 C.ar    1  UNL1        0.0167
     27 C          -9.2653  -17.9428   24.2398 C.ar    1  UNL1        0.0187
     28 C          -8.5354  -16.9265   23.4127 C.ar    1  UNL1        0.0649
     29 C          -9.2769  -16.1224   22.3862 C.ar    1  UNL1        0.0322
     30 C         -12.3141  -15.2122   18.7173 C.3     1  UNL1        0.0949
     31 C         -11.5725  -16.0163   19.7437 C.2     1  UNL1        0.2266
     32 O         -10.9136  -17.3061   19.3533 O.2     1  UNL1       -0.2748
     33 N         -11.4899  -15.5306   21.1605 N.am    1  UNL1       -0.2839
     34 H         -11.9224  -14.6841   21.4167 H       1  UNL1        0.1549
     35 C         -11.4667  -19.1715   24.8677 C.2     1  UNL1        0.0730
     36 O         -10.7736  -20.4332   25.2891 O.co2   1  UNL1       -0.5446
     37 O         -12.8898  -18.9261   25.2734 O.co2   1  UNL1       -0.5446
@<TRIPOS>UNITY_ATOM_ATTR
36 1
charge -1
@<TRIPOS>BOND
     1    30    31    1
     2    31    32    2
     3    31    33   am
     4    33    24    1
     5    24    25   ar
     6    25    26   ar
     7    26    35    1
     8    35    36   ar
     9    35    37   ar
    10    26    27   ar
    11    27    28   ar
    12    28     1    1
    13     1     2   ar
    14     2     3    1
    15     2     4   ar
    16     4     5   ar
    17     5     6   ar
    18     6     7    1
    19     7     8   ar
    20     8     9   ar
    21     9    10    1
    22     9    11   ar
    23    11    12   ar
    24    12    13   ar
    25    13    14    1
    26    14    15    1
    27    15    16    1
    28    16    17   ar
    29    17    18   ar
    30    18    19   ar
    31    19    20    1
    32    19    21   ar
    33    21    22   ar
    34    22    23    1
    35    28    29   ar
    36    29    24   ar
    37     6     1   ar
    38    13     7   ar
    39    22    16   ar
    40    33    34    1
@<TRIPOS>MOLECULE
*****
 37 40 0 0 0
SMALL
GASTEIGER

@<TRIPOS>ATOM
      1 N           3.0362    0.5596   20.6641 N.ar    1  UNL1       -0.3097
      2 C           1.7615    0.5038   19.8755 C.ar    1  UNL1        0.0418
      3 C           0.4883   -0.1639   20.3034 C.3     1  UNL1        0.0504
      4 C           1.9834    1.2331   18.5836 C.ar    1  UNL1        0.0146
      5 C           3.3953    1.7396   18.5739 C.ar    1  UNL1        0.0188
      6 C           4.0459    1.3233   19.8597 C.ar    1  UNL1        0.0666
      7 C           5.4583    1.6189   20.2692 C.ar    1  UNL1        0.0506
      8 C           5.7319    2.3192   21.5673 C.ar    1  UNL1        0.0112
      9 C           7.1443    2.6148   21.9768 C.ar    1  UNL1        0.0348
     10 BR          7.4180    3.3151   23.2747 Br      1  UNL1       -0.0490
     11 C           8.2832    2.2101   21.0883 C.ar    1  UNL1        0.0098
     12 C           8.0096    1.5098   19.7904 C.ar    1  UNL1        0.0375
     13 C           6.5972    1.2142   19.3809 C.ar    1  UNL1        0.1404
     14 O           6.3236    0.5139   18.0828 O.3     1  UNL1       -0.4705
     15 C           6.7184   -0.9225   17.9079 C.3     1  UNL1        0.2342
     16 C           5.9257   -2.0052   18.5783 C.ar    1  UNL1        0.0488
     17 C           6.5936   -2.9305   19.5519 C.ar    1  UNL1        0.0039
     18 C           5.8010   -4.0132   20.2223 C.ar    1  UNL1        0.0296
     19 C           4.3404   -4.1706   19.9191 C.ar    1  UNL1        0.1424
     20 F           3.5477   -5.2533   20.5895 F       1  UNL1       -0.2041
     21 C           3.6725   -3.2454   18.9456 C.ar    1  UNL1        0.0590
     22 C           4.4652   -2.1627   18.2752 C.ar    1  UNL1        0.1418
     23 F           3.7972   -1.2374   17.3016 F       1  UNL1       -0.2043
     24 C           4.2101   -1.9529   23.5031 C.ar    1  UNL1        0.0518
     25 C           3.7123   -1.2474   24.7296 C.ar    1  UNL1        0.0159
     26 C           2.9891    0.0605   24.6010 C.ar    1  UNL1        0.0167
     27 C           2.7638    0.6628   23.2459 C.ar    1  UNL1        0.0187
     28 C           3.2615   -0.0427   22.0193 C.ar    1  UNL1        0.0649
     29 C           3.9847   -1.3506   22.1480 C.ar    1  UNL1        0.0322
     30 C           7.1415   -4.5871   23.9701 C.3     1  UNL1        0.0949
     31 C           6.4183   -3.2792   23.8415 C.2     1  UNL1        0.2266
     32 O           7.1803   -1.9897   23.9228 O.2     1  UNL1       -0.2748
     33 N           4.9332   -3.2608   23.6317 N.am    1  UNL1       -0.2839
     34 H           4.4331   -4.1071   23.5783 H       1  UNL1        0.1549
     35 C           2.4913    0.7660   25.8276 C.2     1  UNL1        0.0730
     36 O           1.8252    2.1043   25.7046 O.co2   1  UNL1       -0.5446
     37 O           2.6597    0.1332   27.1771 O.co2   1  UNL1       -0.5446
@<TRIPOS>UNITY_ATOM_ATTR
36 1
charge -1
@<TRIPOS>BOND
     1    30    31    1
     2    31    32    2
     3    31    33   am
     4    33    24    1
     5    24    25   ar
     6    25    26   ar
     7    26    35    1
     8    35    36   ar
     9    35    37   ar
    10    26    27   ar
    11    27    28   ar
    12    28     1    1
    13     1     2   ar
    14     2     3    1
    15     2     4   ar
    16     4     5   ar
    17     5     6   ar
    18     6     7    1
    19     7     8   ar
    20     8     9   ar
    21     9    10    1
    22     9    11   ar
    23    11    12   ar
    24    12    13   ar
    25    13    14    1
    26    14    15    1
    27    15    16    1
    28    16    17   ar
    29    17    18   ar
    30    18    19   ar
    31    19    20    1
    32    19    21   ar
    33    21    22   ar
    34    22    23    1
    35    28    29   ar
    36    29    24   ar
    37     6     1   ar
    38    13     7   ar
    39    22    16   ar
    40    33    34    1
@<TRIPOS>MOLECULE
*****
 37 40 0 0 0
SMALL
GASTEIGER

@<TRIPOS>ATOM
      1 N           4.1265   -2.0661   20.8607 N.ar    1  UNL1       -0.3097
      2 C           4.3206   -3.4506   20.3171 C.ar    1  UNL1        0.0418
      3 C           4.2333   -3.8515   18.8743 C.3     1  UNL1        0.0504
      4 C           4.6173   -4.3638   21.4695 C.ar    1  UNL1        0.0146
      5 C           4.6066   -3.5436   22.7254 C.ar    1  UNL1        0.0188
      6 C           4.3032   -2.1236   22.3492 C.ar    1  UNL1        0.0666
      7 C           4.1956   -0.9646   23.2953 C.ar    1  UNL1        0.0506
      8 C           2.8459   -0.4586   23.7108 C.ar    1  UNL1        0.0112
      9 C           2.7382    0.7004   24.6569 C.ar    1  UNL1        0.0348
     10 BR          1.3887    1.2064   25.0724 Br      1  UNL1       -0.0490
     11 C           3.9801    1.3534   25.1875 C.ar    1  UNL1        0.0098
     12 C           5.3296    0.8473   24.7720 C.ar    1  UNL1        0.0375
     13 C           5.4373   -0.3117   23.8259 C.ar    1  UNL1        0.1404
     14 O           6.7869   -0.8177   23.4104 O.3     1  UNL1       -0.4705
     15 C           7.6358   -1.5777   24.3858 C.3     1  UNL1        0.2342
     16 C           7.7116   -3.0738   24.3075 C.ar    1  UNL1        0.0488
     17 C           7.1855   -3.9116   25.4351 C.ar    1  UNL1        0.0039
     18 C           7.2613   -5.4076   25.3567 C.ar    1  UNL1        0.0296
     19 C           7.8633   -6.0659   24.1508 C.ar    1  UNL1        0.1424
     20 F           7.9392   -7.5619   24.0724 F       1  UNL1       -0.2041
     21 C           8.3895   -5.2281   23.0233 C.ar    1  UNL1        0.0590
     22 C           8.3137   -3.7321   23.1016 C.ar    1  UNL1        0.1418
     23 F           8.8399   -2.8944   21.9740 F       1  UNL1       -0.2043
     24 C           4.5809    1.0783   18.4825 C.ar    1  UNL1        0.0518
     25 C           3.1801    1.6137   18.4496 C.ar    1  UNL1        0.0159
     26 C           2.0948    0.9224   19.2204 C.ar    1  UNL1        0.0167
     27 C           2.4102   -0.3041   20.0241 C.ar    1  UNL1        0.0187
     28 C           3.8110   -0.8395   20.0570 C.ar    1  UNL1        0.0649
     29 C           4.8963   -0.1482   19.2862 C.ar    1  UNL1        0.0322
     30 C           7.6937    1.6610   16.0907 C.3     1  UNL1        0.0949
     31 C           6.6084    0.9698   16.8615 C.2     1  UNL1        0.2266
     32 O           6.4651   -0.5213   16.7821 O.2     1  UNL1       -0.2748
     33 N           5.6663    1.7696   17.7116 N.am    1  UNL1       -0.2839
     34 H           5.7603    2.7482   17.7637 H       1  UNL1        0.1549
     35 C           0.6939    1.4578   19.1875 C.2     1  UNL1        0.0730
     36 O          -0.2741    1.0930   20.2737 O.co2   1  UNL1       -0.5446
     37 O           0.2611    2.3580   18.0684 O.co2   1  UNL1       -0.5446
@<TRIPOS>UNITY_ATOM_ATTR
36 1
charge -1
@<TRIPOS>BOND
     1    30    31    1
     2    31    32    2
     3    31    33   am
     4    33    24    1
     5    24    25   ar
     6    25    26   ar
     7    26    35    1
     8    35    36   ar
     9    35    37   ar
    10    26    27   ar
    11    27    28   ar
    12    28     1    1
    13     1     2   ar
    14     2     3    1
    15     2     4   ar
    16     4     5   ar
    17     5     6   ar
    18     6     7    1
    19     7     8   ar
    20     8     9   ar
    21     9    10    1
    22     9    11   ar
    23    11    12   ar
    24    12    13   ar
    25    13    14    1
    26    14    15    1
    27    15    16    1
    28    16    17   ar
    29    17    18   ar
    30    18    19   ar
    31    19    20    1
    32    19    21   ar
    33    21    22   ar
    34    22    23    1
    35    28    29   ar
    36    29    24   ar
    37     6     1   ar
    38    13     7   ar
    39    22    16   ar
    40    33    34    1
@<TRIPOS>MOLECULE
*****
 37 40 0 0 0
SMALL
GASTEIGER

@<TRIPOS>ATOM
      1 N          -6.4106  -19.7553   21.2609 N.ar    1  UNL1       -0.3097
      2 C          -5.8851  -20.8397   20.3676 C.ar    1  UNL1        0.0418
      3 C          -6.7126  -21.8243   19.5957 C.3     1  UNL1        0.0504
      4 C          -4.3870  -20.7666   20.3817 C.ar    1  UNL1        0.0146
      5 C          -3.9865  -19.6370   21.2838 C.ar    1  UNL1        0.0188
      6 C          -5.2372  -19.0120   21.8271 C.ar    1  UNL1        0.0666
      7 C          -5.3028  -17.8480   22.7710 C.ar    1  UNL1        0.0506
      8 C          -6.6302  -17.2516   23.1349 C.ar    1  UNL1        0.0112
      9 C          -6.6959  -16.0876   24.0788 C.ar    1  UNL1        0.0348
     10 BR         -8.0232  -15.4911   24.4428 Br      1  UNL1       -0.0490
     11 C          -5.4343  -15.5201   24.6587 C.ar    1  UNL1        0.0098
     12 C          -4.1070  -16.1165   24.2948 C.ar    1  UNL1        0.0375
     13 C          -4.0413  -17.2805   23.3509 C.ar    1  UNL1        0.1404
     14 O          -2.7139  -17.8770   22.9870 O.3     1  UNL1       -0.4705
     15 C          -1.7254  -17.0776   22.1910 C.3     1  UNL1        0.2342
     16 C          -1.6417  -17.2545   20.7038 C.ar    1  UNL1        0.0488
     17 C          -2.8578  -17.0371   19.8530 C.ar    1  UNL1        0.0039
     18 C          -2.7741  -17.2140   18.3658 C.ar    1  UNL1        0.0296
     19 C          -1.4743  -17.6082   17.7294 C.ar    1  UNL1        0.1424
     20 F          -1.3906  -17.7851   16.2423 F       1  UNL1       -0.2041
     21 C          -0.2582  -17.8256   18.5802 C.ar    1  UNL1        0.0590
     22 C          -0.3419  -17.6487   20.0674 C.ar    1  UNL1        0.1418
     23 F           0.8743  -17.8661   20.9181 F       1  UNL1       -0.2043
     24 C         -10.1336  -18.4629   20.7929 C.ar    1  UNL1        0.0518
     25 C         -10.7460  -18.8849   22.0956 C.ar    1  UNL1        0.0159
     26 C          -9.9133  -19.5970   23.1200 C.ar    1  UNL1        0.0167
     27 C          -8.4681  -19.8871   22.8418 C.ar    1  UNL1        0.0187
     28 C          -7.8558  -19.4651   21.5392 C.ar    1  UNL1        0.0649
     29 C          -8.6885  -18.7530   20.5147 C.ar    1  UNL1        0.0322
     30 C         -12.1491  -15.5927   18.9355 C.3     1  UNL1        0.0949
     31 C         -11.3164  -16.3049   19.9600 C.2     1  UNL1        0.2266
     32 O         -10.8337  -15.5710   21.1759 O.2     1  UNL1       -0.2748
     33 N         -10.9663  -17.7508   19.7685 N.am    1  UNL1       -0.2839
     34 H         -11.2831  -18.2324   18.9704 H       1  UNL1        0.1549
     35 C         -10.5257  -20.0189   24.4227 C.2     1  UNL1        0.0730
     36 O          -9.8734  -21.0896   25.2462 O.co2   1  UNL1       -0.5446
     37 O         -11.7905  -19.3702   24.9018 O.co2   1  UNL1       -0.5446
@<TRIPOS>UNITY_ATOM_ATTR
36 1
charge -1
@<TRIPOS>BOND
     1    30    31    1
     2    31    32    2
     3    31    33   am
     4    33    24    1
     5    24    25   ar
     6    25    26   ar
     7    26    35    1
     8    35    36   ar
     9    35    37   ar
    10    26    27   ar
    11    27    28   ar
    12    28     1    1
    13     1     2   ar
    14     2     3    1
    15     2     4   ar
    16     4     5   ar
    17     5     6   ar
    18     6     7    1
    19     7     8   ar
    20     8     9   ar
    21     9    10    1
    22     9    11   ar
    23    11    12   ar
    24    12    13   ar
    25    13    14    1
    26    14    15    1
    27    15    16    1
    28    16    17   ar
    29    17    18   ar
    30    18    19   ar
    31    19    20    1
    32    19    21   ar
    33    21    22   ar
    34    22    23    1
    35    28    29   ar
    36    29    24   ar
    37     6     1   ar
    38    13     7   ar
    39    22    16   ar
    40    33    34    1
@<TRIPOS>MOLECULE
*****
 37 40 0 0 0
SMALL
GASTEIGER

@<TRIPOS>ATOM
      1 N          -9.3210  -15.7834   21.7316 N.ar    1  UNL1       -0.3097
      2 C          -9.3554  -14.8140   20.5873 C.ar    1  UNL1        0.0418
      3 C          -8.3189  -13.7737   20.2818 C.3     1  UNL1        0.0504
      4 C         -10.6081  -15.0677   19.8024 C.ar    1  UNL1        0.0146
      5 C         -11.3481  -16.1938   20.4615 C.ar    1  UNL1        0.0188
      6 C         -10.5526  -16.6361   21.6538 C.ar    1  UNL1        0.0666
      7 C         -10.9235  -17.7378   22.6018 C.ar    1  UNL1        0.0506
      8 C         -12.1299  -17.5953   23.4819 C.ar    1  UNL1        0.0112
      9 C         -12.5008  -18.6969   24.4299 C.ar    1  UNL1        0.0348
     10 BR        -13.7071  -18.5545   25.3101 Br      1  UNL1       -0.0490
     11 C         -11.6656  -19.9410   24.4979 C.ar    1  UNL1        0.0098
     12 C         -10.4593  -20.0835   23.6177 C.ar    1  UNL1        0.0375
     13 C         -10.0884  -18.9818   22.6697 C.ar    1  UNL1        0.1404
     14 O          -8.8820  -19.1243   21.7896 O.3     1  UNL1       -0.4705
     15 C          -7.7080  -19.9353   22.2518 C.3     1  UNL1        0.2342
     16 C          -6.3701  -19.7590   21.5966 C.ar    1  UNL1        0.0488
     17 C          -5.1143  -20.0339   22.3697 C.ar    1  UNL1        0.0039
     18 C          -3.7766  -19.8577   21.7145 C.ar    1  UNL1        0.0296
     19 C          -3.6945  -19.4066   20.2863 C.ar    1  UNL1        0.1424
     20 F          -2.3567  -19.2303   19.6312 F       1  UNL1       -0.2041
     21 C          -4.9503  -19.1317   19.5133 C.ar    1  UNL1        0.0590
     22 C          -6.2880  -19.3079   20.1685 C.ar    1  UNL1        0.1418
     23 F          -7.5438  -19.0330   19.3953 F       1  UNL1       -0.2043
     24 C          -5.8042  -16.4814   23.4331 C.ar    1  UNL1        0.0518
     25 C          -6.0904  -16.0809   24.8500 C.ar    1  UNL1        0.0159
     26 C          -7.4534  -15.5811   25.2274 C.ar    1  UNL1        0.0167
     27 C          -8.5303  -15.4820   24.1880 C.ar    1  UNL1        0.0187
     28 C          -8.2441  -15.8825   22.7711 C.ar    1  UNL1        0.0649
     29 C          -6.8811  -16.3822   22.3936 C.ar    1  UNL1        0.0322
     30 C          -2.0605  -16.5324   22.1172 C.3     1  UNL1        0.0949
     31 C          -3.4235  -16.0327   22.4946 C.2     1  UNL1        0.2266
     32 O          -3.7687  -14.5845   22.3111 O.2     1  UNL1       -0.2748
     33 N          -4.4412  -16.9811   23.0556 N.am    1  UNL1       -0.2839
     34 H          -4.2146  -17.9316   23.1760 H       1  UNL1        0.1549
     35 C          -7.7395  -15.1806   26.6444 C.2     1  UNL1        0.0730
     36 O          -6.6266  -15.1300   27.6488 O.co2   1  UNL1       -0.5446
     37 O          -9.1386  -14.8307   27.0569 O.co2   1  UNL1       -0.5446
@<TRIPOS>UNITY_ATOM_ATTR
36 1
charge -1
@<TRIPOS>BOND
     1    30    31    1
     2    31    32    2
     3    31    33   am
     4    33    24    1
     5    24    25   ar
     6    25    26   ar
     7    26    35    1
     8    35    36   ar
     9    35    37   ar
    10    26    27   ar
    11    27    28   ar
    12    28     1    1
    13     1     2   ar
    14     2     3    1
    15     2     4   ar
    16     4     5   ar
    17     5     6   ar
    18     6     7    1
    19     7     8   ar
    20     8     9   ar
    21     9    10    1
    22     9    11   ar
    23    11    12   ar
    24    12    13   ar
    25    13    14    1
    26    14    15    1
    27    15    16    1
    28    16    17   ar
    29    17    18   ar
    30    18    19   ar
    31    19    20    1
    32    19    21   ar
    33    21    22   ar
    34    22    23    1
    35    28    29   ar
    36    29    24   ar
    37     6     1   ar
    38    13     7   ar
    39    22    16   ar
    40    33    34    1
@<TRIPOS>MOLECULE
*****
 37 40 0 0 0
SMALL
GASTEIGER

@<TRIPOS>ATOM
      1 N           4.9033   -0.7603   21.9813 N.ar    1  UNL1       -0.3097
      2 C           5.3864   -2.1477   22.2846 C.ar    1  UNL1        0.0418
      3 C           4.6071   -3.2182   22.9893 C.3     1  UNL1        0.0504
      4 C           6.7855   -2.2765   21.7595 C.ar    1  UNL1        0.0146
      5 C           7.1672   -0.9688   21.1316 C.ar    1  UNL1        0.0188
      6 C           6.0040   -0.0317   21.2687 C.ar    1  UNL1        0.0666
      7 C           5.9507    1.3851   20.7792 C.ar    1  UNL1        0.0506
      8 C           5.6766    2.5017   21.7427 C.ar    1  UNL1        0.0112
      9 C           5.6234    3.9185   21.2532 C.ar    1  UNL1        0.0348
     10 BR          5.3493    5.0351   22.2166 Br      1  UNL1       -0.0490
     11 C           5.8443    4.2189   19.8002 C.ar    1  UNL1        0.0098
     12 C           6.1183    3.1024   18.8368 C.ar    1  UNL1        0.0375
     13 C           6.1716    1.6855   19.3263 C.ar    1  UNL1        0.1404
     14 O           6.4457    0.5690   18.3628 O.3     1  UNL1       -0.4705
     15 C           5.3059   -0.1511   17.7053 C.3     1  UNL1        0.2342
     16 C           4.8487   -1.4765   18.2384 C.ar    1  UNL1        0.0488
     17 C           3.4665   -1.6215   18.8031 C.ar    1  UNL1        0.0039
     18 C           3.0093   -2.9469   19.3361 C.ar    1  UNL1        0.0296
     19 C           3.9342   -4.1274   19.3046 C.ar    1  UNL1        0.1424
     20 F           3.4770   -5.4528   19.8377 F       1  UNL1       -0.2041
     21 C           5.3163   -3.9824   18.7400 C.ar    1  UNL1        0.0590
     22 C           5.7736   -2.6570   18.2069 C.ar    1  UNL1        0.1418
     23 F           7.1557   -2.5121   17.6423 F       1  UNL1       -0.2043
     24 C           1.8294    0.5623   24.1147 C.ar    1  UNL1        0.0518
     25 C           0.8620    0.9207   23.0259 C.ar    1  UNL1        0.0159
     26 C           1.2416    0.7188   21.5889 C.ar    1  UNL1        0.0167
     27 C           2.5887    0.1584   21.2407 C.ar    1  UNL1        0.0187
     28 C           3.5561   -0.1999   22.3295 C.ar    1  UNL1        0.0649
     29 C           3.1765    0.0020   23.7665 C.ar    1  UNL1        0.0322
     30 C           1.4650    2.2271   27.6988 C.3     1  UNL1        0.0949
     31 C           1.8446    2.0252   26.2618 C.2     1  UNL1        0.2266
     32 O           2.6193    3.0842   25.5348 O.2     1  UNL1       -0.2748
     33 N           1.4497    0.7643   25.5518 N.am    1  UNL1       -0.2839
     34 H           0.9413    0.0692   26.0289 H       1  UNL1        0.1549
     35 C           0.2741    1.0772   20.5000 C.2     1  UNL1        0.0730
     36 O          -0.9251    1.9229   20.8108 O.co2   1  UNL1       -0.5446
     37 O           0.5059    0.5899   19.1005 O.co2   1  UNL1       -0.5446
@<TRIPOS>UNITY_ATOM_ATTR
36 1
charge -1
@<TRIPOS>BOND
     1    30    31    1
     2    31    32    2
     3    31    33   am
     4    33    24    1
     5    24    25   ar
     6    25    26   ar
     7    26    35    1
     8    35    36   ar
     9    35    37   ar
    10    26    27   ar
    11    27    28   ar
    12    28     1    1
    13     1     2   ar
    14     2     3    1
    15     2     4   ar
    16     4     5   ar
    17     5     6   ar
    18     6     7    1
    19     7     8   ar
    20     8     9   ar
    21     9    10    1
    22     9    11   ar
    23    11    12   ar
    24    12    13   ar
    25    13    14    1
    26    14    15    1
    27    15    16    1
    28    16    17   ar
    29    17    18   ar
    30    18    19   ar
    31    19    20    1
    32    19    21   ar
    33    21    22   ar
    34    22    23    1
    35    28    29   ar
    36    29    24   ar
    37     6     1   ar
    38    13     7   ar
    39    22    16   ar
    40    33    34    1
