@<TRIPOS>MOLECULE
*****
 30 35 0 0 0
SMALL
GASTEIGER

@<TRIPOS>ATOM
      1 O           6.5573   -4.7520   22.7751 O.2     1  UNL1       -0.2863
      2 C           5.5900   -3.6118   22.6555 C.ar    1  UNL1        0.2030
      3 C           5.1351   -2.8821   23.8846 C.ar    1  UNL1        0.0955
      4 C           4.1678   -1.7419   23.7651 C.ar    1  UNL1        0.2024
      5 O           3.6553   -1.3314   22.4164 O.2     1  UNL1       -0.4398
      6 C           4.1102   -2.0610   21.1873 C.ar    1  UNL1        0.1498
      7 C           3.5978   -1.6505   19.8387 C.ar    1  UNL1        0.0352
      8 C           4.0527   -2.3803   18.6096 C.ar    1  UNL1        0.0031
      9 C           5.0199   -3.5204   18.7291 C.ar    1  UNL1        0.0003
     10 C           5.5324   -3.9309   20.0777 C.ar    1  UNL1        0.0062
     11 C           5.0775   -3.2013   21.3068 C.ar    1  UNL1        0.0736
     12 C           2.6305   -0.5104   19.7191 C.ar    1  UNL1        0.0089
     13 C           1.2173   -0.6727   20.1952 C.ar    1  UNL1        0.0006
     14 C           0.2500    0.4675   20.0756 C.ar    1  UNL1        0.0000
     15 C           0.6959    1.7700   19.4800 C.ar    1  UNL1        0.0005
     16 C           2.1090    1.9323   19.0039 C.ar    1  UNL1        0.0065
     17 C           3.0763    0.7921   19.1235 C.ar    1  UNL1        0.0295
     18 S           4.3960    1.2442   18.5720 S.2     1  UNL1       -0.0869
     19 C           4.2443    2.6637   18.1116 C.ar    1  UNL1        0.0295
     20 C           5.2106    3.6239   17.4838 C.ar    1  UNL1        0.0065
     21 C           4.7634    5.0095   17.1230 C.ar    1  UNL1        0.0005
     22 C           3.3500    5.4348   17.3899 C.ar    1  UNL1        0.0000
     23 C           2.3837    4.4745   18.0177 C.ar    1  UNL1        0.0005
     24 C           2.8308    3.0890   18.3786 C.ar    1  UNL1        0.0065
     25 N           3.7129   -1.0122   24.9942 N.pl3   1  UNL1       -0.2742
     26 C           4.1064   -1.5128   26.3522 C.3     1  UNL1        0.1257
     27 C           3.6515   -0.7832   27.5813 C.3     1  UNL1        0.1637
     28 O           2.8032    0.4471   27.4523 O.3     1  UNL1       -0.3501
     29 C           2.4097    0.9478   26.0942 C.3     1  UNL1        0.1637
     30 C           2.8646    0.2181   24.8651 C.3     1  UNL1        0.1257
@<TRIPOS>BOND
     1     1     2    2
     2     2     3   ar
     3     3     4   ar
     4     4    25    1
     5    25    26    1
     6    26    27    1
     7    27    28    1
     8    28    29    1
     9    29    30    1
    10     4     5   ar
    11     5     6   ar
    12     6     7   ar
    13     7    12    1
    14    12    13   ar
    15    13    14   ar
    16    14    15   ar
    17    15    16   ar
    18    16    17   ar
    19    17    18   ar
    20    18    19   ar
    21    19    20   ar
    22    20    21   ar
    23    21    22   ar
    24    22    23   ar
    25    23    24   ar
    26     7     8   ar
    27     8     9   ar
    28     9    10   ar
    29    10    11   ar
    30    11     2   ar
    31    30    25    1
    32    11     6   ar
    33    17    12   ar
    34    24    19   ar
    35    24    16   ar
@<TRIPOS>MOLECULE
*****
 30 35 0 0 0
SMALL
GASTEIGER

@<TRIPOS>ATOM
      1 O           1.8951    4.3499   18.4552 O.2     1  UNL1       -0.2863
      2 C           2.7533    3.1286   18.6033 C.ar    1  UNL1        0.2030
      3 C           4.1893    3.1643   18.1713 C.ar    1  UNL1        0.0955
      4 C           5.0477    1.9430   18.3194 C.ar    1  UNL1        0.2024
      5 O           4.4699    0.6861   18.8995 O.2     1  UNL1       -0.4398
      6 C           3.0339    0.6504   19.3314 C.ar    1  UNL1        0.1498
      7 C           2.4562   -0.6064   19.9114 C.ar    1  UNL1        0.0352
      8 C           1.0201   -0.6420   20.3434 C.ar    1  UNL1        0.0031
      9 C           0.1618    0.5792   20.1953 C.ar    1  UNL1        0.0003
     10 C           0.7396    1.8361   19.6153 C.ar    1  UNL1        0.0062
     11 C           2.1756    1.8717   19.1833 C.ar    1  UNL1        0.0736
     12 C           3.3144   -1.8276   20.0595 C.ar    1  UNL1        0.0089
     13 C           3.4984   -2.7602   18.8992 C.ar    1  UNL1        0.0006
     14 C           4.3566   -3.9814   19.0473 C.ar    1  UNL1        0.0000
     15 C           5.0309   -4.2701   20.3557 C.ar    1  UNL1        0.0005
     16 C           4.8470   -3.3375   21.5161 C.ar    1  UNL1        0.0065
     17 C           3.9887   -2.1163   21.3680 C.ar    1  UNL1        0.0295
     18 S           3.9928   -1.3854   22.6778 S.2     1  UNL1       -0.0869
     19 C           4.8535   -2.1548   23.6355 C.ar    1  UNL1        0.0295
     20 C           5.2248   -1.9128   25.0685 C.ar    1  UNL1        0.0065
     21 C           6.1239   -2.8772   25.7834 C.ar    1  UNL1        0.0005
     22 C           6.6519   -4.0838   25.0654 C.ar    1  UNL1        0.0000
     23 C           6.2806   -4.3259   23.6324 C.ar    1  UNL1        0.0005
     24 C           5.3815   -3.3614   22.9174 C.ar    1  UNL1        0.0065
     25 N           6.4837    1.9786   17.8874 N.pl3   1  UNL1       -0.2742
     26 C           6.8263    2.1013   16.4323 C.3     1  UNL1        0.1257
     27 C           8.2623    2.1369   16.0004 C.3     1  UNL1        0.1637
     28 O           9.3557    2.0499   17.0235 O.3     1  UNL1       -0.3501
     29 C           9.0131    1.9273   18.4787 C.3     1  UNL1        0.1637
     30 C           7.5771    1.8916   18.9107 C.3     1  UNL1        0.1257
@<TRIPOS>BOND
     1     1     2    2
     2     2     3   ar
     3     3     4   ar
     4     4    25    1
     5    25    26    1
     6    26    27    1
     7    27    28    1
     8    28    29    1
     9    29    30    1
    10     4     5   ar
    11     5     6   ar
    12     6     7   ar
    13     7    12    1
    14    12    13   ar
    15    13    14   ar
    16    14    15   ar
    17    15    16   ar
    18    16    17   ar
    19    17    18   ar
    20    18    19   ar
    21    19    20   ar
    22    20    21   ar
    23    21    22   ar
    24    22    23   ar
    25    23    24   ar
    26     7     8   ar
    27     8     9   ar
    28     9    10   ar
    29    10    11   ar
    30    11     2   ar
    31    30    25    1
    32    11     6   ar
    33    17    12   ar
    34    24    19   ar
    35    24    16   ar
@<TRIPOS>MOLECULE
*****
 30 35 0 0 0
SMALL
GASTEIGER

@<TRIPOS>ATOM
      1 O         -10.1815   -8.5466   17.1080 O.2     1  UNL1       -0.2863
      2 C         -11.3380   -7.6542   17.4484 C.ar    1  UNL1        0.2030
      3 C         -12.7434   -8.1499   17.2778 C.ar    1  UNL1        0.0955
      4 C         -13.9001   -7.2575   17.6183 C.ar    1  UNL1        0.2024
      5 O         -13.6512   -5.8693   18.1294 O.2     1  UNL1       -0.4398
      6 C         -12.2459   -5.3736   18.3000 C.ar    1  UNL1        0.1498
      7 C         -11.9970   -3.9856   18.8111 C.ar    1  UNL1        0.0352
      8 C         -10.5916   -3.4899   18.9817 C.ar    1  UNL1        0.0031
      9 C          -9.4350   -4.3822   18.6413 C.ar    1  UNL1        0.0003
     10 C          -9.6838   -5.7704   18.1302 C.ar    1  UNL1        0.0062
     11 C         -11.0892   -6.2661   17.9596 C.ar    1  UNL1        0.0736
     12 C         -13.1536   -3.0932   19.1516 C.ar    1  UNL1        0.0089
     13 C         -14.2592   -3.6003   20.0293 C.ar    1  UNL1        0.0006
     14 C         -15.4157   -2.7079   20.3698 C.ar    1  UNL1        0.0000
     15 C         -15.4667   -1.3083   19.8326 C.ar    1  UNL1        0.0005
     16 C         -14.3611   -0.8012   18.9548 C.ar    1  UNL1        0.0065
     17 C         -13.2046   -1.6936   18.6144 C.ar    1  UNL1        0.0295
     18 S         -12.2681   -0.9224   17.7322 S.2     1  UNL1       -0.0869
     19 C         -12.8458    0.4467   17.5275 C.ar    1  UNL1        0.0295
     20 C         -12.3612    1.6348   16.7506 C.ar    1  UNL1        0.0065
     21 C         -13.1701    2.8977   16.7294 C.ar    1  UNL1        0.0005
     22 C         -14.4637    2.9726   17.4851 C.ar    1  UNL1        0.0000
     23 C         -14.9484    1.7846   18.2619 C.ar    1  UNL1        0.0005
     24 C         -14.1394    0.5216   18.2831 C.ar    1  UNL1        0.0065
     25 N         -15.3055   -7.7532   17.4477 N.pl3   1  UNL1       -0.2742
     26 C         -16.2148   -7.1008   16.4491 C.3     1  UNL1        0.1257
     27 C         -17.6202   -7.5965   16.2785 C.3     1  UNL1        0.1637
     28 O         -18.1162   -8.7446   17.1065 O.3     1  UNL1       -0.3501
     29 C         -17.2069   -9.3971   18.1052 C.3     1  UNL1        0.1637
     30 C         -15.8015   -8.9014   18.2758 C.3     1  UNL1        0.1257
@<TRIPOS>BOND
     1     1     2    2
     2     2     3   ar
     3     3     4   ar
     4     4    25    1
     5    25    26    1
     6    26    27    1
     7    27    28    1
     8    28    29    1
     9    29    30    1
    10     4     5   ar
    11     5     6   ar
    12     6     7   ar
    13     7    12    1
    14    12    13   ar
    15    13    14   ar
    16    14    15   ar
    17    15    16   ar
    18    16    17   ar
    19    17    18   ar
    20    18    19   ar
    21    19    20   ar
    22    20    21   ar
    23    21    22   ar
    24    22    23   ar
    25    23    24   ar
    26     7     8   ar
    27     8     9   ar
    28     9    10   ar
    29    10    11   ar
    30    11     2   ar
    31    30    25    1
    32    11     6   ar
    33    17    12   ar
    34    24    19   ar
    35    24    16   ar
@<TRIPOS>MOLECULE
*****
 30 35 0 0 0
SMALL
GASTEIGER

@<TRIPOS>ATOM
      1 O          -9.8325   -4.9400   19.2770 O.2     1  UNL1       -0.2863
      2 C         -11.3046   -4.8436   19.0054 C.ar    1  UNL1        0.2030
      3 C         -12.1584   -6.0759   19.0541 C.ar    1  UNL1        0.0955
      4 C         -13.6306   -5.9796   18.7825 C.ar    1  UNL1        0.2024
      5 O         -14.2488   -4.6509   18.4621 O.2     1  UNL1       -0.4398
      6 C         -13.3949   -3.4187   18.4134 C.ar    1  UNL1        0.1498
      7 C         -14.0130   -2.0901   18.0931 C.ar    1  UNL1        0.0352
      8 C         -13.1591   -0.8578   18.0443 C.ar    1  UNL1        0.0031
      9 C         -11.6871   -0.9541   18.3159 C.ar    1  UNL1        0.0003
     10 C         -11.0689   -2.2827   18.6362 C.ar    1  UNL1        0.0062
     11 C         -11.9228   -3.5150   18.6850 C.ar    1  UNL1        0.0736
     12 C         -15.4851   -1.9938   17.8215 C.ar    1  UNL1        0.0089
     13 C         -16.0886   -2.7568   16.6797 C.ar    1  UNL1        0.0006
     14 C         -17.5606   -2.6604   16.4081 C.ar    1  UNL1        0.0000
     15 C         -18.4292   -1.8010   17.2783 C.ar    1  UNL1        0.0005
     16 C         -17.8257   -1.0380   18.4200 C.ar    1  UNL1        0.0065
     17 C         -16.3536   -1.1344   18.6916 C.ar    1  UNL1        0.0295
     18 S         -16.0443   -0.2733   19.8802 S.2     1  UNL1       -0.0869
     19 C         -17.3252    0.3553   20.3432 C.ar    1  UNL1        0.0295
     20 C         -17.6312    1.2969   21.4699 C.ar    1  UNL1        0.0065
     21 C         -19.0382    1.7659   21.6942 C.ar    1  UNL1        0.0005
     22 C         -20.1392    1.2933   20.7917 C.ar    1  UNL1        0.0000
     23 C         -19.8332    0.3516   19.6650 C.ar    1  UNL1        0.0005
     24 C         -18.4262   -0.1174   19.4407 C.ar    1  UNL1        0.0065
     25 N         -14.4844   -7.2118   18.8313 N.pl3   1  UNL1       -0.2742
     26 C         -15.7287   -7.2295   19.6687 C.3     1  UNL1        0.1257
     27 C         -16.5825   -8.4618   19.7174 C.3     1  UNL1        0.1637
     28 O         -16.1921   -9.6764   18.9288 O.3     1  UNL1       -0.3501
     29 C         -14.9478   -9.6588   18.0913 C.3     1  UNL1        0.1637
     30 C         -14.0940   -8.4265   18.0425 C.3     1  UNL1        0.1257
@<TRIPOS>BOND
     1     1     2    2
     2     2     3   ar
     3     3     4   ar
     4     4    25    1
     5    25    26    1
     6    26    27    1
     7    27    28    1
     8    28    29    1
     9    29    30    1
    10     4     5   ar
    11     5     6   ar
    12     6     7   ar
    13     7    12    1
    14    12    13   ar
    15    13    14   ar
    16    14    15   ar
    17    15    16   ar
    18    16    17   ar
    19    17    18   ar
    20    18    19   ar
    21    19    20   ar
    22    20    21   ar
    23    21    22   ar
    24    22    23   ar
    25    23    24   ar
    26     7     8   ar
    27     8     9   ar
    28     9    10   ar
    29    10    11   ar
    30    11     2   ar
    31    30    25    1
    32    11     6   ar
    33    17    12   ar
    34    24    19   ar
    35    24    16   ar
@<TRIPOS>MOLECULE
*****
 30 35 0 0 0
SMALL
GASTEIGER

@<TRIPOS>ATOM
      1 O           1.0415    1.4681   25.7160 O.2     1  UNL1       -0.2863
      2 C           1.3414    1.1520   24.2806 C.ar    1  UNL1        0.2030
      3 C           0.5799    1.8396   23.1864 C.ar    1  UNL1        0.0955
      4 C           0.8798    1.5235   21.7510 C.ar    1  UNL1        0.2024
      5 O           1.9411    0.5199   21.4099 O.2     1  UNL1       -0.4398
      6 C           2.7026   -0.1676   22.5041 C.ar    1  UNL1        0.1498
      7 C           3.7639   -1.1712   22.1631 C.ar    1  UNL1        0.0352
      8 C           4.5254   -1.8587   23.2574 C.ar    1  UNL1        0.0031
      9 C           4.2256   -1.5427   24.6927 C.ar    1  UNL1        0.0003
     10 C           3.1643   -0.5391   25.0338 C.ar    1  UNL1        0.0062
     11 C           2.4028    0.1484   23.9396 C.ar    1  UNL1        0.0736
     12 C           4.0638   -1.4872   20.7278 C.ar    1  UNL1        0.0089
     13 C           3.6084   -2.7878   20.1353 C.ar    1  UNL1        0.0006
     14 C           3.9083   -3.1039   18.6999 C.ar    1  UNL1        0.0000
     15 C           4.6635   -2.1194   17.8571 C.ar    1  UNL1        0.0005
     16 C           5.1189   -0.8188   18.4496 C.ar    1  UNL1        0.0065
     17 C           4.8190   -0.5027   19.8849 C.ar    1  UNL1        0.0295
     18 S           5.3911    0.8497   20.1910 S.2     1  UNL1       -0.0869
     19 C           6.0445    1.3695   18.9448 C.ar    1  UNL1        0.0295
     20 C           6.7710    2.6485   18.6511 C.ar    1  UNL1        0.0065
     21 C           7.3292    2.8963   17.2811 C.ar    1  UNL1        0.0005
     22 C           7.1610    1.8651   16.2049 C.ar    1  UNL1        0.0000
     23 C           6.4345    0.5861   16.4986 C.ar    1  UNL1        0.0005
     24 C           5.8763    0.3383   17.8686 C.ar    1  UNL1        0.0065
     25 N           0.1183    2.2111   20.6567 N.pl3   1  UNL1       -0.2742
     26 C          -1.2109    2.8414   20.9496 C.3     1  UNL1        0.1257
     27 C          -1.9724    3.5289   19.8554 C.3     1  UNL1        0.1637
     28 O          -1.4046    3.5862   18.4682 O.3     1  UNL1       -0.3501
     29 C          -0.0754    2.9559   18.1753 C.3     1  UNL1        0.1637
     30 C           0.6861    2.2684   19.2695 C.3     1  UNL1        0.1257
@<TRIPOS>BOND
     1     1     2    2
     2     2     3   ar
     3     3     4   ar
     4     4    25    1
     5    25    26    1
     6    26    27    1
     7    27    28    1
     8    28    29    1
     9    29    30    1
    10     4     5   ar
    11     5     6   ar
    12     6     7   ar
    13     7    12    1
    14    12    13   ar
    15    13    14   ar
    16    14    15   ar
    17    15    16   ar
    18    16    17   ar
    19    17    18   ar
    20    18    19   ar
    21    19    20   ar
    22    20    21   ar
    23    21    22   ar
    24    22    23   ar
    25    23    24   ar
    26     7     8   ar
    27     8     9   ar
    28     9    10   ar
    29    10    11   ar
    30    11     2   ar
    31    30    25    1
    32    11     6   ar
    33    17    12   ar
    34    24    19   ar
    35    24    16   ar
@<TRIPOS>MOLECULE
*****
 30 35 0 0 0
SMALL
GASTEIGER

@<TRIPOS>ATOM
      1 O           5.2025   -1.5744   27.7185 O.2     1  UNL1       -0.2863
      2 C           4.7398   -1.5080   26.2932 C.ar    1  UNL1        0.2030
      3 C           3.6389   -0.5659   25.9053 C.ar    1  UNL1        0.0955
      4 C           3.1761   -0.4994   24.4799 C.ar    1  UNL1        0.2024
      5 O           3.8143   -1.3750   23.4426 O.2     1  UNL1       -0.4398
      6 C           4.9152   -2.3171   23.8305 C.ar    1  UNL1        0.1498
      7 C           5.5533   -3.1926   22.7932 C.ar    1  UNL1        0.0352
      8 C           6.6543   -4.1347   23.1812 C.ar    1  UNL1        0.0031
      9 C           7.1171   -4.2012   24.6064 C.ar    1  UNL1        0.0003
     10 C           6.4789   -3.3256   25.6438 C.ar    1  UNL1        0.0062
     11 C           5.3780   -2.3836   25.2558 C.ar    1  UNL1        0.0736
     12 C           5.0906   -3.1261   21.3679 C.ar    1  UNL1        0.0089
     13 C           4.1822   -4.1886   20.8240 C.ar    1  UNL1        0.0006
     14 C           3.7195   -4.1222   19.3987 C.ar    1  UNL1        0.0000
     15 C           4.1652   -2.9932   18.5173 C.ar    1  UNL1        0.0005
     16 C           5.0736   -1.9307   19.0612 C.ar    1  UNL1        0.0065
     17 C           5.5363   -1.9972   20.4865 C.ar    1  UNL1        0.0295
     18 S           6.4228   -0.8144   20.7416 S.2     1  UNL1       -0.0869
     19 C           6.5080   -0.0169   19.4740 C.ar    1  UNL1        0.0295
     20 C           7.2371    1.2483   19.1312 C.ar    1  UNL1        0.0065
     21 C           7.1323    1.8236   17.7499 C.ar    1  UNL1        0.0005
     22 C           6.2984    1.1336   16.7114 C.ar    1  UNL1        0.0000
     23 C           5.5693   -0.1316   17.0541 C.ar    1  UNL1        0.0005
     24 C           5.6741   -0.7069   18.4354 C.ar    1  UNL1        0.0065
     25 N           2.0751    0.4426   24.0920 N.pl3   1  UNL1       -0.2742
     26 C           1.2387    1.0958   25.1520 C.3     1  UNL1        0.1257
     27 C           0.1378    2.0378   24.7640 C.3     1  UNL1        0.1637
     28 O          -0.1267    2.3266   23.3161 O.3     1  UNL1       -0.3501
     29 C           0.7097    1.6735   22.2561 C.3     1  UNL1        0.1637
     30 C           1.8107    0.7315   22.6440 C.3     1  UNL1        0.1257
@<TRIPOS>BOND
     1     1     2    2
     2     2     3   ar
     3     3     4   ar
     4     4    25    1
     5    25    26    1
     6    26    27    1
     7    27    28    1
     8    28    29    1
     9    29    30    1
    10     4     5   ar
    11     5     6   ar
    12     6     7   ar
    13     7    12    1
    14    12    13   ar
    15    13    14   ar
    16    14    15   ar
    17    15    16   ar
    18    16    17   ar
    19    17    18   ar
    20    18    19   ar
    21    19    20   ar
    22    20    21   ar
    23    21    22   ar
    24    22    23   ar
    25    23    24   ar
    26     7     8   ar
    27     8     9   ar
    28     9    10   ar
    29    10    11   ar
    30    11     2   ar
    31    30    25    1
    32    11     6   ar
    33    17    12   ar
    34    24    19   ar
    35    24    16   ar
@<TRIPOS>MOLECULE
*****
 30 35 0 0 0
SMALL
GASTEIGER

@<TRIPOS>ATOM
      1 O           2.5809    0.1914   27.0467 O.2     1  UNL1       -0.2863
      2 C           3.1855   -0.4075   25.8114 C.ar    1  UNL1        0.2030
      3 C           4.3219   -1.3796   25.9282 C.ar    1  UNL1        0.0955
      4 C           4.9265   -1.9785   24.6929 C.ar    1  UNL1        0.2024
      5 O           4.3948   -1.6052   23.3409 O.2     1  UNL1       -0.4398
      6 C           3.2584   -0.6331   23.2241 C.ar    1  UNL1        0.1498
      7 C           2.7267   -0.2599   21.8722 C.ar    1  UNL1        0.0352
      8 C           1.5902    0.7123   21.7555 C.ar    1  UNL1        0.0031
      9 C           0.9856    1.3112   22.9906 C.ar    1  UNL1        0.0003
     10 C           1.5174    0.9379   24.3426 C.ar    1  UNL1        0.0062
     11 C           2.6538   -0.0342   24.4594 C.ar    1  UNL1        0.0736
     12 C           3.3313   -0.8587   20.6369 C.ar    1  UNL1        0.0089
     13 C           3.1285   -2.3134   20.3322 C.ar    1  UNL1        0.0006
     14 C           3.7331   -2.9122   19.0970 C.ar    1  UNL1        0.0000
     15 C           4.5404   -2.0564   18.1664 C.ar    1  UNL1        0.0005
     16 C           4.7432   -0.6018   18.4712 C.ar    1  UNL1        0.0065
     17 C           4.1386   -0.0029   19.7064 C.ar    1  UNL1        0.0295
     18 S           4.5064    1.4508   19.7445 S.2     1  UNL1       -0.0869
     19 C           5.3384    1.7504   18.5328 C.ar    1  UNL1        0.0295
     20 C           5.9815    3.0144   18.0444 C.ar    1  UNL1        0.0065
     21 C           6.7710    3.0098   16.7690 C.ar    1  UNL1        0.0005
     22 C           6.9173    1.7412   15.9821 C.ar    1  UNL1        0.0000
     23 C           6.2742    0.4772   16.4705 C.ar    1  UNL1        0.0005
     24 C           5.4847    0.4818   17.7458 C.ar    1  UNL1        0.0065
     25 N           6.0629   -2.9506   24.8097 N.pl3   1  UNL1       -0.2742
     26 C           6.3916   -3.8612   23.6640 C.3     1  UNL1        0.1257
     27 C           7.5280   -4.8333   23.7808 C.3     1  UNL1        0.1637
     28 O           8.3356   -4.8948   25.0432 O.3     1  UNL1       -0.3501
     29 C           8.0069   -3.9842   26.1889 C.3     1  UNL1        0.1637
     30 C           6.8706   -3.0121   26.0722 C.3     1  UNL1        0.1257
@<TRIPOS>BOND
     1     1     2    2
     2     2     3   ar
     3     3     4   ar
     4     4    25    1
     5    25    26    1
     6    26    27    1
     7    27    28    1
     8    28    29    1
     9    29    30    1
    10     4     5   ar
    11     5     6   ar
    12     6     7   ar
    13     7    12    1
    14    12    13   ar
    15    13    14   ar
    16    14    15   ar
    17    15    16   ar
    18    16    17   ar
    19    17    18   ar
    20    18    19   ar
    21    19    20   ar
    22    20    21   ar
    23    21    22   ar
    24    22    23   ar
    25    23    24   ar
    26     7     8   ar
    27     8     9   ar
    28     9    10   ar
    29    10    11   ar
    30    11     2   ar
    31    30    25    1
    32    11     6   ar
    33    17    12   ar
    34    24    19   ar
    35    24    16   ar
@<TRIPOS>MOLECULE
*****
 30 35 0 0 0
SMALL
GASTEIGER

@<TRIPOS>ATOM
      1 O          -0.3220    2.5566   25.2753 O.2     1  UNL1       -0.2863
      2 C           0.6552    1.7135   24.5109 C.ar    1  UNL1        0.2030
      3 C           1.6762    0.8964   25.2456 C.ar    1  UNL1        0.0955
      4 C           2.6534    0.0533   24.4811 C.ar    1  UNL1        0.2024
      5 O           2.6096    0.0274   22.9819 O.2     1  UNL1       -0.4398
      6 C           1.5886    0.8446   22.2473 C.ar    1  UNL1        0.1498
      7 C           1.5448    0.8187   20.7482 C.ar    1  UNL1        0.0352
      8 C           0.5238    1.6360   20.0135 C.ar    1  UNL1        0.0031
      9 C          -0.4534    2.4790   20.7779 C.ar    1  UNL1        0.0003
     10 C          -0.4096    2.5048   22.2770 C.ar    1  UNL1        0.0062
     11 C           0.6114    1.6877   23.0117 C.ar    1  UNL1        0.0736
     12 C           2.5220   -0.0243   19.9837 C.ar    1  UNL1        0.0089
     13 C           2.4485   -1.5201   20.0679 C.ar    1  UNL1        0.0006
     14 C           3.4257   -2.3632   19.3034 C.ar    1  UNL1        0.0000
     15 C           4.4763   -1.7104   18.4548 C.ar    1  UNL1        0.0005
     16 C           4.5498   -0.2146   18.3707 C.ar    1  UNL1        0.0065
     17 C           3.5726    0.6285   19.1351 C.ar    1  UNL1        0.0295
     18 S           3.8879    2.0688   18.8592 S.2     1  UNL1       -0.0869
     19 C           5.0599    2.1159   17.9242 C.ar    1  UNL1        0.0295
     20 C           5.8074    3.2614   17.3088 C.ar    1  UNL1        0.0065
     21 C           6.9641    2.9958   16.3914 C.ar    1  UNL1        0.0005
     22 C           7.3731    1.5846   16.0895 C.ar    1  UNL1        0.0000
     23 C           6.6256    0.4390   16.7049 C.ar    1  UNL1        0.0005
     24 C           5.4690    0.7047   17.6223 C.ar    1  UNL1        0.0065
     25 N           3.6744   -0.7639   25.2158 N.pl3   1  UNL1       -0.2742
     26 C           4.7396   -1.4949   24.4537 C.3     1  UNL1        0.1257
     27 C           5.7606   -2.3120   25.1884 C.3     1  UNL1        0.1637
     28 O           5.7163   -2.3983   26.6852 O.3     1  UNL1       -0.3501
     29 C           4.6511   -1.6673   27.4474 C.3     1  UNL1        0.1637
     30 C           3.6301   -0.8502   26.7127 C.3     1  UNL1        0.1257
@<TRIPOS>BOND
     1     1     2    2
     2     2     3   ar
     3     3     4   ar
     4     4    25    1
     5    25    26    1
     6    26    27    1
     7    27    28    1
     8    28    29    1
     9    29    30    1
    10     4     5   ar
    11     5     6   ar
    12     6     7   ar
    13     7    12    1
    14    12    13   ar
    15    13    14   ar
    16    14    15   ar
    17    15    16   ar
    18    16    17   ar
    19    17    18   ar
    20    18    19   ar
    21    19    20   ar
    22    20    21   ar
    23    21    22   ar
    24    22    23   ar
    25    23    24   ar
    26     7     8   ar
    27     8     9   ar
    28     9    10   ar
    29    10    11   ar
    30    11     2   ar
    31    30    25    1
    32    11     6   ar
    33    17    12   ar
    34    24    19   ar
    35    24    16   ar
@<TRIPOS>MOLECULE
*****
 30 35 0 0 0
SMALL
GASTEIGER

@<TRIPOS>ATOM
      1 O           3.5463   -1.0459   33.6202 O.2     1  UNL1       -0.2863
      2 C           3.9103   -1.0399   32.1651 C.ar    1  UNL1        0.2030
      3 C           2.9381   -0.5143   31.1510 C.ar    1  UNL1        0.0955
      4 C           3.3020   -0.5083   29.6957 C.ar    1  UNL1        0.2024
      5 O           4.6382   -1.0280   29.2547 O.2     1  UNL1       -0.4398
      6 C           5.6104   -1.5536   30.2688 C.ar    1  UNL1        0.1498
      7 C           6.9466   -2.0733   29.8277 C.ar    1  UNL1        0.0352
      8 C           7.9188   -2.5989   30.8419 C.ar    1  UNL1        0.0031
      9 C           7.5550   -2.6049   32.2970 C.ar    1  UNL1        0.0003
     10 C           6.2187   -2.0852   32.7381 C.ar    1  UNL1        0.0062
     11 C           5.2465   -1.5596   31.7240 C.ar    1  UNL1        0.0736
     12 C           7.3105   -2.0673   28.3726 C.ar    1  UNL1        0.0089
     13 C           7.5542   -0.7669   27.6658 C.ar    1  UNL1        0.0006
     14 C           7.9182   -0.7610   26.2106 C.ar    1  UNL1        0.0000
     15 C           8.0385   -2.0554   25.4623 C.ar    1  UNL1        0.0005
     16 C           7.7948   -3.3558   26.1691 C.ar    1  UNL1        0.0065
     17 C           7.4308   -3.3617   27.6242 C.ar    1  UNL1        0.0295
     18 S           7.2505   -4.7884   28.0510 S.2     1  UNL1       -0.0869
     19 C           7.5031   -5.6641   26.8597 C.ar    1  UNL1        0.0295
     20 C           7.4703   -7.1534   26.6837 C.ar    1  UNL1        0.0065
     21 C           7.7738   -7.7572   25.3446 C.ar    1  UNL1        0.0005
     22 C           8.1101   -6.8718   24.1815 C.ar    1  UNL1        0.0000
     23 C           8.1430   -5.3825   24.3575 C.ar    1  UNL1        0.0005
     24 C           7.8395   -4.7787   25.6965 C.ar    1  UNL1        0.0065
     25 N           2.3298    0.0174   28.6816 N.pl3   1  UNL1       -0.2742
     26 C           2.8212    0.4872   27.3447 C.3     1  UNL1        0.1257
     27 C           1.8490    1.0129   26.3306 C.3     1  UNL1        0.1637
     28 O           0.3853    1.0687   26.6534 O.3     1  UNL1       -0.3501
     29 C          -0.1063    0.5988   27.9904 C.3     1  UNL1        0.1637
     30 C           0.8660    0.0731   29.0045 C.3     1  UNL1        0.1257
@<TRIPOS>BOND
     1     1     2    2
     2     2     3   ar
     3     3     4   ar
     4     4    25    1
     5    25    26    1
     6    26    27    1
     7    27    28    1
     8    28    29    1
     9    29    30    1
    10     4     5   ar
    11     5     6   ar
    12     6     7   ar
    13     7    12    1
    14    12    13   ar
    15    13    14   ar
    16    14    15   ar
    17    15    16   ar
    18    16    17   ar
    19    17    18   ar
    20    18    19   ar
    21    19    20   ar
    22    20    21   ar
    23    21    22   ar
    24    22    23   ar
    25    23    24   ar
    26     7     8   ar
    27     8     9   ar
    28     9    10   ar
    29    10    11   ar
    30    11     2   ar
    31    30    25    1
    32    11     6   ar
    33    17    12   ar
    34    24    19   ar
    35    24    16   ar
