@<TRIPOS>MOLECULE
*****
 42 45 0 0 0
SMALL
GASTEIGER

@<TRIPOS>ATOM
      1 C           0.6579    1.9615   26.9145 C.ar    1  UNL1        0.0053
      2 C          -0.5735    2.3599   26.1564 C.ar    1  UNL1        0.0033
      3 C          -0.6493    2.1319   24.6758 C.ar    1  UNL1        0.0382
      4 C           0.5064    1.5054   23.9533 C.ar    1  UNL1        0.1529
      5 C           1.7378    1.1069   24.7115 C.ar    1  UNL1        0.0882
      6 C           1.8135    1.3349   26.1921 C.ar    1  UNL1        0.0181
      7 N           2.8934    0.4804   23.9890 N.am    1  UNL1       -0.2514
      8 C           2.8177    0.2523   22.5084 C.2     1  UNL1        0.2697
      9 O           3.9734   -0.3742   21.7860 O.2     1  UNL1       -0.2704
     10 C           1.5863    0.6508   21.7502 C.3     1  UNL1        0.2199
     11 C           0.6423    0.8565   20.6027 C.3     1  UNL1        0.0579
     12 O           0.4306    1.2773   22.4726 O.3     1  UNL1       -0.4686
     13 C           0.2707    1.1230   29.3429 C.ar    1  UNL1        0.0645
     14 N           0.3465    1.3509   30.8235 N.ar    1  UNL1       -0.2183
     15 C           0.8852    2.6455   31.3565 C.ar    1  UNL1        0.2145
     16 N           0.9610    2.8735   32.8371 N.pl3   1  UNL1       -0.3274
     17 N           1.3482    3.7120   30.4088 N.ar    1  UNL1       -0.1995
     18 C           1.2724    3.4840   28.9281 C.ar    1  UNL1        0.1293
     19 N           1.7353    4.5505   27.9803 N.pl3   1  UNL1       -0.3425
     20 C           0.7337    2.1895   28.3952 C.ar    1  UNL1        0.0449
     21 H           0.6571    2.1735   33.4591 H       1  UNL1        0.1452
     22 H           1.3146    3.7231   33.1869 H       1  UNL1        0.1452
     23 H           2.0889    5.4002   28.3301 H       1  UNL1        0.1437
     24 H           1.6856    4.4009   27.0085 H       1  UNL1        0.1437
     25 C          -1.7205   -0.5059   28.9794 C.3     1  UNL1        0.0067
     26 C          -0.2680   -0.1716   28.8100 C.3     1  UNL1        0.0460
     27 C           2.4141    0.0958   20.6293 C.ar    1  UNL1        0.0264
     28 C           2.4311   -1.3815   20.3697 C.ar    1  UNL1        0.0293
     29 C           3.2589   -1.9366   19.2487 C.ar    1  UNL1        0.1422
     30 F           3.2759   -3.4139   18.9892 F       1  UNL1       -0.2041
     31 C           4.0698   -1.0145   18.3873 C.ar    1  UNL1        0.0592
     32 C           4.0528    0.4628   18.6469 C.ar    1  UNL1        0.1422
     33 F           4.8637    1.3850   17.7854 F       1  UNL1       -0.2041
     34 C           3.2250    1.0180   19.7678 C.ar    1  UNL1        0.0293
     35 C           4.1248    0.0819   24.7472 C.3     1  UNL1        0.1172
     36 C           4.3235   -1.3472   25.1573 C.3     1  UNL1        0.1129
     37 N           3.7168   -1.8528   26.4326 N.3     1  UNL1       -0.1815
     38 H           3.7301   -2.8714   26.3814 H       1  UNL1        0.1485
     39 S           4.3236   -1.4776   27.7521 S.O2    1  UNL1        0.0427
     40 C           4.9303   -1.1023   29.0716 C.3     1  UNL1        0.1957
     41 O           5.6907   -1.7624   27.2044 O.2     1  UNL1       -0.1575
     42 O           2.9565   -1.1927   28.2997 O.2     1  UNL1       -0.1575
@<TRIPOS>BOND
     1    25    26    1
     2    26    13    1
     3    13    14   ar
     4    14    15   ar
     5    15    16    1
     6    15    17   ar
     7    17    18   ar
     8    18    19    1
     9    18    20   ar
    10    20     1    1
    11     1     2   ar
    12     2     3   ar
    13     3     4   ar
    14     4     5   ar
    15     5     6   ar
    16     5     7    1
    17     7    35    1
    18    35    36    1
    19    36    37    1
    20    37    39    1
    21    39    40    1
    22    39    41    2
    23    39    42    2
    24     7     8   am
    25     8     9    2
    26     8    10    1
    27    10    11    1
    28    10    27    1
    29    27    28   ar
    30    28    29   ar
    31    29    30    1
    32    29    31   ar
    33    31    32   ar
    34    32    33    1
    35    32    34   ar
    36    10    12    1
    37    20    13   ar
    38     6     1   ar
    39    34    27   ar
    40    12     4    1
    41    16    21    1
    42    16    22    1
    43    19    23    1
    44    19    24    1
    45    37    38    1
@<TRIPOS>MOLECULE
*****
 42 45 0 0 0
SMALL
GASTEIGER

@<TRIPOS>ATOM
      1 C           0.7293    1.9048   26.9067 C.ar    1  UNL1        0.0053
      2 C          -0.5002    2.2974   26.1424 C.ar    1  UNL1        0.0033
      3 C          -0.5711    2.0606   24.6629 C.ar    1  UNL1        0.0382
      4 C           0.5875    1.4311   23.9477 C.ar    1  UNL1        0.1529
      5 C           1.8170    1.0385   24.7120 C.ar    1  UNL1        0.0882
      6 C           1.8879    1.2753   26.1915 C.ar    1  UNL1        0.0181
      7 N           2.9756    0.4091   23.9969 N.am    1  UNL1       -0.2514
      8 C           2.9048    0.1723   22.5174 C.2     1  UNL1        0.2697
      9 O           4.0634   -0.4571   21.8022 O.2     1  UNL1       -0.2704
     10 C           1.6752    0.5649   21.7530 C.3     1  UNL1        0.2199
     11 C           0.7347    0.7628   20.6014 C.3     1  UNL1        0.0579
     12 O           0.5166    1.1943   22.4682 O.3     1  UNL1       -0.4686
     13 C           0.3823    1.0615   29.3395 C.ar    1  UNL1        0.0645
     14 N           0.4532    1.2982   30.8189 N.ar    1  UNL1       -0.2183
     15 C           0.9420    2.6151   31.3452 C.ar    1  UNL1        0.2145
     16 N           1.0129    2.8519   32.8247 N.pl3   1  UNL1       -0.3274
     17 N           1.3599    3.6952   30.3919 N.ar    1  UNL1       -0.1995
     18 C           1.2890    3.4584   28.9124 C.ar    1  UNL1        0.1293
     19 N           1.7069    4.5385   27.9591 N.pl3   1  UNL1       -0.3425
     20 C           0.8002    2.1416   28.3862 C.ar    1  UNL1        0.0449
     21 H           0.7386    2.1430   33.4503 H       1  UNL1        0.1452
     22 H           1.3337    3.7162   33.1701 H       1  UNL1        0.1452
     23 H           2.0277    5.4028   28.3045 H       1  UNL1        0.1437
     24 H           1.6603    4.3831   26.9881 H       1  UNL1        0.1437
     25 C          -1.5625   -0.6050   28.9025 C.3     1  UNL1        0.0067
     26 C          -0.1065   -0.2554   28.8132 C.3     1  UNL1        0.0460
     27 C           2.5072    0.0042   20.6380 C.ar    1  UNL1        0.0264
     28 C           3.3345    0.9203   19.7857 C.ar    1  UNL1        0.0293
     29 C           4.1664    0.3596   18.6706 C.ar    1  UNL1        0.1422
     30 F           4.9938    1.2758   17.8183 F       1  UNL1       -0.2041
     31 C           4.1711   -1.1171   18.4077 C.ar    1  UNL1        0.0592
     32 C           3.3439   -2.0332   19.2600 C.ar    1  UNL1        0.1422
     33 F           3.3485   -3.5100   18.9971 F       1  UNL1       -0.2041
     34 C           2.5119   -1.4726   20.3751 C.ar    1  UNL1        0.0293
     35 C           4.2051    0.0165   24.7612 C.3     1  UNL1        0.1172
     36 C           4.4055   -1.4105   25.1778 C.3     1  UNL1        0.1129
     37 N           4.2280   -2.5154   24.1789 N.3     1  UNL1       -0.1815
     38 H           3.7760   -2.1042   23.3622 H       1  UNL1        0.1485
     39 S           5.4221   -3.2724   23.6778 S.O2    1  UNL1        0.0427
     40 C           6.6162   -4.0293   23.1767 C.3     1  UNL1        0.1957
     41 O           6.2012   -2.8426   24.8854 O.2     1  UNL1       -0.1575
     42 O           4.6429   -3.7021   22.4702 O.2     1  UNL1       -0.1575
@<TRIPOS>BOND
     1    25    26    1
     2    26    13    1
     3    13    14   ar
     4    14    15   ar
     5    15    16    1
     6    15    17   ar
     7    17    18   ar
     8    18    19    1
     9    18    20   ar
    10    20     1    1
    11     1     2   ar
    12     2     3   ar
    13     3     4   ar
    14     4     5   ar
    15     5     6   ar
    16     5     7    1
    17     7    35    1
    18    35    36    1
    19    36    37    1
    20    37    39    1
    21    39    40    1
    22    39    41    2
    23    39    42    2
    24     7     8   am
    25     8     9    2
    26     8    10    1
    27    10    11    1
    28    10    27    1
    29    27    28   ar
    30    28    29   ar
    31    29    30    1
    32    29    31   ar
    33    31    32   ar
    34    32    33    1
    35    32    34   ar
    36    10    12    1
    37    20    13   ar
    38     6     1   ar
    39    34    27   ar
    40    12     4    1
    41    16    21    1
    42    16    22    1
    43    19    23    1
    44    19    24    1
    45    37    38    1
@<TRIPOS>MOLECULE
*****
 42 45 0 0 0
SMALL
GASTEIGER

@<TRIPOS>ATOM
      1 C           0.6523    1.7531   26.7698 C.ar    1  UNL1        0.0053
      2 C          -0.5838    2.1167   26.0019 C.ar    1  UNL1        0.0033
      3 C          -0.6387    1.8932   24.5197 C.ar    1  UNL1        0.0382
      4 C           0.5424    1.3061   23.8054 C.ar    1  UNL1        0.1529
      5 C           1.7785    0.9425   24.5733 C.ar    1  UNL1        0.0882
      6 C           1.8335    1.1660   26.0555 C.ar    1  UNL1        0.0181
      7 N           2.9597    0.3554   23.8590 N.am    1  UNL1       -0.2514
      8 C           2.9047    0.1319   22.3768 C.2     1  UNL1        0.2697
      9 O           4.0859   -0.4552   21.6626 O.2     1  UNL1       -0.2704
     10 C           1.6685    0.4956   21.6088 C.3     1  UNL1        0.2199
     11 C           0.7293    0.6772   20.4535 C.3     1  UNL1        0.0579
     12 O           0.4874    1.0827   22.3231 O.3     1  UNL1       -0.4686
     13 C           1.1031    3.3180   28.7941 C.ar    1  UNL1        0.0645
     14 N           1.1581    3.5415   30.2764 N.ar    1  UNL1       -0.2183
     15 C           0.8173    2.4235   31.2166 C.ar    1  UNL1        0.2145
     16 N           0.8724    2.6470   32.6988 N.pl3   1  UNL1       -0.3274
     17 N           0.4216    1.0820   30.6746 N.ar    1  UNL1       -0.1995
     18 C           0.3666    0.8585   29.1923 C.ar    1  UNL1        0.1293
     19 N          -0.0291   -0.4829   28.6502 N.pl3   1  UNL1       -0.3425
     20 C           0.7073    1.9765   28.2521 C.ar    1  UNL1        0.0449
     21 H           1.1321    3.5275   33.0546 H       1  UNL1        0.1452
     22 H           0.6487    1.9132   33.3159 H       1  UNL1        0.1452
     23 H          -0.2528   -1.2167   29.2673 H       1  UNL1        0.1437
     24 H          -0.0652   -0.6296   27.6774 H       1  UNL1        0.1437
     25 C           0.4027    5.4521   27.4883 C.3     1  UNL1        0.0067
     26 C           1.4438    4.4360   27.8539 C.3     1  UNL1        0.0460
     27 C           2.5235   -0.0284   20.4933 C.ar    1  UNL1        0.0264
     28 C           3.3511    0.9176   19.6748 C.ar    1  UNL1        0.0293
     29 C           4.2061    0.3935   18.5592 C.ar    1  UNL1        0.1422
     30 F           5.0338    1.3397   17.7406 F       1  UNL1       -0.2041
     31 C           4.2335   -1.0764   18.2622 C.ar    1  UNL1        0.0592
     32 C           3.4059   -2.0225   19.0808 C.ar    1  UNL1        0.1422
     33 F           3.4332   -3.4925   18.7838 F       1  UNL1       -0.2041
     34 C           2.5509   -1.4985   20.1963 C.ar    1  UNL1        0.0293
     35 C           4.1958   -0.0082   24.6270 C.3     1  UNL1        0.1172
     36 C           4.4089   -1.4225   25.0792 C.3     1  UNL1        0.1129
     37 N           3.7650   -1.9109   26.3430 N.3     1  UNL1       -0.1815
     38 H           3.8069   -2.9298   26.3201 H       1  UNL1        0.1485
     39 S           4.3082   -1.4849   27.6746 S.O2    1  UNL1        0.0427
     40 C           4.8515   -1.0590   29.0063 C.3     1  UNL1        0.1957
     41 O           5.7052   -1.7083   27.1761 O.2     1  UNL1       -0.1575
     42 O           2.9113   -1.2616   28.1731 O.2     1  UNL1       -0.1575
@<TRIPOS>BOND
     1    25    26    1
     2    26    13    1
     3    13    14   ar
     4    14    15   ar
     5    15    16    1
     6    15    17   ar
     7    17    18   ar
     8    18    19    1
     9    18    20   ar
    10    20     1    1
    11     1     2   ar
    12     2     3   ar
    13     3     4   ar
    14     4     5   ar
    15     5     6   ar
    16     5     7    1
    17     7    35    1
    18    35    36    1
    19    36    37    1
    20    37    39    1
    21    39    40    1
    22    39    41    2
    23    39    42    2
    24     7     8   am
    25     8     9    2
    26     8    10    1
    27    10    11    1
    28    10    27    1
    29    27    28   ar
    30    28    29   ar
    31    29    30    1
    32    29    31   ar
    33    31    32   ar
    34    32    33    1
    35    32    34   ar
    36    10    12    1
    37    20    13   ar
    38     6     1   ar
    39    34    27   ar
    40    12     4    1
    41    16    21    1
    42    16    22    1
    43    19    23    1
    44    19    24    1
    45    37    38    1
@<TRIPOS>MOLECULE
*****
 42 45 0 0 0
SMALL
GASTEIGER

@<TRIPOS>ATOM
      1 C          -4.6554  -18.8842   21.5313 C.ar    1  UNL1        0.0053
      2 C          -4.8432  -20.3436   21.8224 C.ar    1  UNL1        0.0033
      3 C          -6.1848  -20.8553   22.2561 C.ar    1  UNL1        0.0382
      4 C          -7.3386  -19.9076   22.3988 C.ar    1  UNL1        0.1529
      5 C          -7.1509  -18.4481   22.1078 C.ar    1  UNL1        0.0882
      6 C          -5.8093  -17.9364   21.6740 C.ar    1  UNL1        0.0181
      7 N          -8.3048  -17.5004   22.2505 N.am    1  UNL1       -0.2514
      8 C          -9.6464  -18.0121   22.6842 C.2     1  UNL1        0.2697
      9 O         -10.8003  -17.0643   22.8269 O.2     1  UNL1       -0.2704
     10 C          -9.8342  -19.4716   22.9753 C.3     1  UNL1        0.2199
     11 C         -10.5034  -20.7569   23.3627 C.3     1  UNL1        0.0579
     12 O          -8.6803  -20.4193   22.8326 O.3     1  UNL1       -0.4686
     13 C          -2.6194  -17.3132   21.9012 C.ar    1  UNL1        0.0645
     14 N          -1.2778  -16.8014   21.4675 N.ar    1  UNL1       -0.2183
     15 C          -0.6305  -17.3489   20.2300 C.ar    1  UNL1        0.2145
     16 N           0.7111  -16.8371   19.7963 N.pl3   1  UNL1       -0.3274
     17 N          -1.3248  -18.4081   19.4263 N.ar    1  UNL1       -0.1995
     18 C          -2.6665  -18.9198   19.8601 C.ar    1  UNL1        0.1293
     19 N          -3.3608  -19.9790   19.0563 N.pl3   1  UNL1       -0.3425
     20 C          -3.3137  -18.3724   21.0975 C.ar    1  UNL1        0.0449
     21 H           1.1668  -16.1419   20.3238 H       1  UNL1        0.1452
     22 H           1.1360  -17.1964   18.9841 H       1  UNL1        0.1452
     23 H          -2.9360  -20.3383   18.2441 H       1  UNL1        0.1437
     24 H          -4.2414  -20.3149   19.3410 H       1  UNL1        0.1437
     25 C          -3.4194  -17.6343   24.3522 C.3     1  UNL1        0.0067
     26 C          -3.2667  -16.7658   23.1388 C.3     1  UNL1        0.0460
     27 C         -11.2204  -18.9702   23.2525 C.ar    1  UNL1        0.0264
     28 C         -12.0779  -18.4745   22.1261 C.ar    1  UNL1        0.0293
     29 C         -13.4642  -17.9731   22.4033 C.ar    1  UNL1        0.1422
     30 F         -14.3217  -17.4773   21.2768 F       1  UNL1       -0.2041
     31 C         -13.9930  -17.9675   23.8069 C.ar    1  UNL1        0.0592
     32 C         -13.1355  -18.4633   24.9334 C.ar    1  UNL1        0.1422
     33 F         -13.6644  -18.4577   26.3371 F       1  UNL1       -0.2041
     34 C         -11.7492  -18.9646   24.6562 C.ar    1  UNL1        0.0293
     35 C          -8.1170  -16.0409   21.9594 C.3     1  UNL1        0.1172
     36 C          -7.9333  -15.0689   23.0869 C.3     1  UNL1        0.1129
     37 N          -6.6110  -14.9762   23.7893 N.3     1  UNL1       -0.1815
     38 H          -6.2687  -14.0258   23.6482 H       1  UNL1        0.1485
     39 S          -6.5222  -15.2545   25.2606 S.O2    1  UNL1        0.0427
     40 C          -6.4334  -15.5327   26.7318 C.3     1  UNL1        0.1957
     41 O          -7.9063  -15.8321   25.2348 O.2     1  UNL1       -0.1575
     42 O          -5.1382  -14.6768   25.2863 O.2     1  UNL1       -0.1575
@<TRIPOS>BOND
     1    25    26    1
     2    26    13    1
     3    13    14   ar
     4    14    15   ar
     5    15    16    1
     6    15    17   ar
     7    17    18   ar
     8    18    19    1
     9    18    20   ar
    10    20     1    1
    11     1     2   ar
    12     2     3   ar
    13     3     4   ar
    14     4     5   ar
    15     5     6   ar
    16     5     7    1
    17     7    35    1
    18    35    36    1
    19    36    37    1
    20    37    39    1
    21    39    40    1
    22    39    41    2
    23    39    42    2
    24     7     8   am
    25     8     9    2
    26     8    10    1
    27    10    11    1
    28    10    27    1
    29    27    28   ar
    30    28    29   ar
    31    29    30    1
    32    29    31   ar
    33    31    32   ar
    34    32    33    1
    35    32    34   ar
    36    10    12    1
    37    20    13   ar
    38     6     1   ar
    39    34    27   ar
    40    12     4    1
    41    16    21    1
    42    16    22    1
    43    19    23    1
    44    19    24    1
    45    37    38    1
@<TRIPOS>MOLECULE
*****
 42 45 0 0 0
SMALL
GASTEIGER

@<TRIPOS>ATOM
      1 C           0.8991    1.5145   26.5095 C.ar    1  UNL1        0.0053
      2 C          -0.2570    1.9834   25.6768 C.ar    1  UNL1        0.0033
      3 C          -0.2492    1.7661   24.1926 C.ar    1  UNL1        0.0382
      4 C           0.9147    1.0799   23.5412 C.ar    1  UNL1        0.1529
      5 C           2.0708    0.6110   24.3740 C.ar    1  UNL1        0.0882
      6 C           2.0630    0.8283   25.8581 C.ar    1  UNL1        0.0181
      7 N           3.2348   -0.0753   23.7226 N.am    1  UNL1       -0.2514
      8 C           3.2426   -0.2926   22.2384 C.2     1  UNL1        0.2697
      9 O           4.4066   -0.9788   21.5870 O.2     1  UNL1       -0.2704
     10 C           2.0865    0.1764   21.4056 C.3     1  UNL1        0.2199
     11 C           1.2314    0.4386   20.2014 C.3     1  UNL1        0.0579
     12 O           0.9225    0.8626   22.0570 O.3     1  UNL1       -0.4686
     13 C           1.5317    2.9571   28.5756 C.ar    1  UNL1        0.0645
     14 N           1.5239    3.1744   30.0597 N.ar    1  UNL1       -0.2183
     15 C           0.8757    2.1665   30.9620 C.ar    1  UNL1        0.2145
     16 N           0.8680    2.3838   32.4461 N.pl3   1  UNL1       -0.3274
     17 N           0.2353    0.9412   30.3801 N.ar    1  UNL1       -0.1995
     18 C           0.2431    0.7239   28.8959 C.ar    1  UNL1        0.1293
     19 N          -0.3973   -0.5013   28.3139 N.pl3   1  UNL1       -0.3425
     20 C           0.8913    1.7318   27.9937 C.ar    1  UNL1        0.0449
     21 H           1.2883    3.1880   32.8281 H       1  UNL1        0.1452
     22 H           0.4426    1.7223   33.0383 H       1  UNL1        0.1452
     23 H          -0.8227   -1.1629   28.9060 H       1  UNL1        0.1437
     24 H          -0.3922   -0.6440   27.3398 H       1  UNL1        0.1437
     25 C           1.3969    5.1476   27.1851 C.3     1  UNL1        0.0067
     26 C           2.1799    3.9650   27.6734 C.3     1  UNL1        0.0460
     27 C           2.9534   -0.4188   20.3360 C.ar    1  UNL1        0.0264
     28 C           2.8732   -1.8862   20.0357 C.ar    1  UNL1        0.0293
     29 C           3.7402   -2.4814   18.9661 C.ar    1  UNL1        0.1422
     30 F           3.6599   -3.9489   18.6658 F       1  UNL1       -0.2041
     31 C           4.6875   -1.6092   18.1968 C.ar    1  UNL1        0.0592
     32 C           4.7677   -0.1418   18.4971 C.ar    1  UNL1        0.1422
     33 F           5.7150    0.7305   17.7278 F       1  UNL1       -0.2041
     34 C           3.9008    0.4535   19.5667 C.ar    1  UNL1        0.0293
     35 C           4.3909   -0.5442   24.5553 C.3     1  UNL1        0.1172
     36 C           4.5204   -1.9961   24.9088 C.3     1  UNL1        0.1129
     37 N           4.6477   -3.0239   23.8236 N.3     1  UNL1       -0.1815
     38 H           4.4533   -2.5476   22.9428 H       1  UNL1        0.1485
     39 S           5.9391   -3.7644   23.6397 S.O2    1  UNL1        0.0427
     40 C           7.2305   -4.5049   23.4558 C.3     1  UNL1        0.1957
     41 O           5.5201   -4.1505   22.2522 O.2     1  UNL1       -0.1575
     42 O           6.3581   -3.3782   25.0273 O.2     1  UNL1       -0.1575
@<TRIPOS>BOND
     1    25    26    1
     2    26    13    1
     3    13    14   ar
     4    14    15   ar
     5    15    16    1
     6    15    17   ar
     7    17    18   ar
     8    18    19    1
     9    18    20   ar
    10    20     1    1
    11     1     2   ar
    12     2     3   ar
    13     3     4   ar
    14     4     5   ar
    15     5     6   ar
    16     5     7    1
    17     7    35    1
    18    35    36    1
    19    36    37    1
    20    37    39    1
    21    39    40    1
    22    39    41    2
    23    39    42    2
    24     7     8   am
    25     8     9    2
    26     8    10    1
    27    10    11    1
    28    10    27    1
    29    27    28   ar
    30    28    29   ar
    31    29    30    1
    32    29    31   ar
    33    31    32   ar
    34    32    33    1
    35    32    34   ar
    36    10    12    1
    37    20    13   ar
    38     6     1   ar
    39    34    27   ar
    40    12     4    1
    41    16    21    1
    42    16    22    1
    43    19    23    1
    44    19    24    1
    45    37    38    1
@<TRIPOS>MOLECULE
*****
 42 45 0 0 0
SMALL
GASTEIGER

@<TRIPOS>ATOM
      1 C           0.9319    1.5197   26.5008 C.ar    1  UNL1        0.0053
      2 C          -0.2249    1.9771   25.6626 C.ar    1  UNL1        0.0033
      3 C          -0.2110    1.7538   24.1794 C.ar    1  UNL1        0.0382
      4 C           0.9597    1.0731   23.5344 C.ar    1  UNL1        0.1529
      5 C           2.1165    0.6157   24.3726 C.ar    1  UNL1        0.0882
      6 C           2.1026    0.8390   25.8558 C.ar    1  UNL1        0.0181
      7 N           3.2872   -0.0650   23.7276 N.am    1  UNL1       -0.2514
      8 C           3.3012   -0.2883   22.2444 C.2     1  UNL1        0.2697
      9 O           4.4719   -0.9690   21.5993 O.2     1  UNL1       -0.2704
     10 C           2.1443    0.1691   21.4061 C.3     1  UNL1        0.2199
     11 C           1.2912    0.4205   20.1982 C.3     1  UNL1        0.0579
     12 O           0.9736    0.8498   22.0511 O.3     1  UNL1       -0.4686
     13 C           1.6022    2.9432   28.5683 C.ar    1  UNL1        0.0645
     14 N           1.5884    3.1665   30.0515 N.ar    1  UNL1       -0.2183
     15 C           0.8902    2.1895   30.9505 C.ar    1  UNL1        0.2145
     16 N           0.8764    2.4128   32.4337 N.pl3   1  UNL1       -0.3274
     17 N           0.2060    0.9893   30.3663 N.ar    1  UNL1       -0.1995
     18 C           0.2199    0.7660   28.8831 C.ar    1  UNL1        0.1293
     19 N          -0.4644   -0.4342   28.2989 N.pl3   1  UNL1       -0.3425
     20 C           0.9180    1.7430   27.9841 C.ar    1  UNL1        0.0449
     21 H           1.3255    3.2006   32.8171 H       1  UNL1        0.1452
     22 H           0.4182    1.7717   33.0238 H       1  UNL1        0.1452
     23 H          -0.9226   -1.0754   28.8889 H       1  UNL1        0.1437
     24 H          -0.4553   -0.5807   27.3254 H       1  UNL1        0.1437
     25 C           1.5654    5.1214   27.1525 C.3     1  UNL1        0.0067
     26 C           2.3003    3.9201   27.6692 C.3     1  UNL1        0.0460
     27 C           3.0188   -0.4243   20.3416 C.ar    1  UNL1        0.0264
     28 C           3.9827    0.4463   19.5913 C.ar    1  UNL1        0.0293
     29 C           4.8571   -0.1472   18.5268 C.ar    1  UNL1        0.1422
     30 F           5.8210    0.7235   17.7764 F       1  UNL1       -0.2041
     31 C           4.7677   -1.6111   18.2126 C.ar    1  UNL1        0.0592
     32 C           3.8038   -2.4817   18.9629 C.ar    1  UNL1        0.1422
     33 F           3.7143   -3.9457   18.6487 F       1  UNL1       -0.2041
     34 C           2.9293   -1.8883   20.0274 C.ar    1  UNL1        0.0293
     35 C           4.4440   -0.5225   24.5657 C.3     1  UNL1        0.1172
     36 C           4.5887   -1.9737   24.9163 C.3     1  UNL1        0.1129
     37 N           4.8003   -2.9895   23.8329 N.3     1  UNL1       -0.1815
     38 H           4.7298   -2.4922   22.9452 H       1  UNL1        0.1485
     39 S           6.0733   -3.7814   23.7857 S.O2    1  UNL1        0.0427
     40 C           7.3464   -4.5733   23.7385 C.3     1  UNL1        0.1957
     41 O           6.3770   -3.3775   25.1980 O.2     1  UNL1       -0.1575
     42 O           5.7697   -4.1854   22.3734 O.2     1  UNL1       -0.1575
@<TRIPOS>BOND
     1    25    26    1
     2    26    13    1
     3    13    14   ar
     4    14    15   ar
     5    15    16    1
     6    15    17   ar
     7    17    18   ar
     8    18    19    1
     9    18    20   ar
    10    20     1    1
    11     1     2   ar
    12     2     3   ar
    13     3     4   ar
    14     4     5   ar
    15     5     6   ar
    16     5     7    1
    17     7    35    1
    18    35    36    1
    19    36    37    1
    20    37    39    1
    21    39    40    1
    22    39    41    2
    23    39    42    2
    24     7     8   am
    25     8     9    2
    26     8    10    1
    27    10    11    1
    28    10    27    1
    29    27    28   ar
    30    28    29   ar
    31    29    30    1
    32    29    31   ar
    33    31    32   ar
    34    32    33    1
    35    32    34   ar
    36    10    12    1
    37    20    13   ar
    38     6     1   ar
    39    34    27   ar
    40    12     4    1
    41    16    21    1
    42    16    22    1
    43    19    23    1
    44    19    24    1
    45    37    38    1
@<TRIPOS>MOLECULE
*****
 42 45 0 0 0
SMALL
GASTEIGER

@<TRIPOS>ATOM
      1 C         -10.1996  -19.1192   22.4165 C.ar    1  UNL1        0.0053
      2 C         -10.2101  -20.1245   21.3033 C.ar    1  UNL1        0.0033
      3 C          -8.9488  -20.4192   20.5469 C.ar    1  UNL1        0.0382
      4 C          -7.6770  -19.7084   20.9035 C.ar    1  UNL1        0.1529
      5 C          -7.6664  -18.7031   22.0166 C.ar    1  UNL1        0.0882
      6 C          -8.9277  -18.4084   22.7731 C.ar    1  UNL1        0.0181
      7 N          -6.3945  -17.9923   22.3733 N.am    1  UNL1       -0.2514
      8 C          -5.1332  -18.2869   21.6168 C.2     1  UNL1        0.2697
      9 O          -3.8614  -17.5762   21.9735 O.2     1  UNL1       -0.2704
     10 C          -5.1438  -19.2923   20.5036 C.3     1  UNL1        0.2199
     11 C          -4.6535  -20.1549   19.3786 C.3     1  UNL1        0.0579
     12 O          -6.4156  -20.0031   20.1470 O.3     1  UNL1       -0.4686
     13 C         -12.5721  -18.0646   22.5114 C.ar    1  UNL1        0.0645
     14 N         -13.8334  -17.7699   23.2679 N.ar    1  UNL1       -0.2183
     15 C         -13.9835  -18.2352   24.6860 C.ar    1  UNL1        0.2145
     16 N         -15.2448  -17.9405   25.4425 N.pl3   1  UNL1       -0.3274
     17 N         -12.8723  -18.9952   25.3476 N.ar    1  UNL1       -0.1995
     18 C         -11.6110  -19.2898   24.5911 C.ar    1  UNL1        0.1293
     19 N         -10.4998  -20.0498   25.2527 N.pl3   1  UNL1       -0.3425
     20 C         -11.4609  -18.8245   23.1730 C.ar    1  UNL1        0.0449
     21 H         -15.9741  -17.4417   25.0083 H       1  UNL1        0.1452
     22 H         -15.3433  -18.2459   26.3732 H       1  UNL1        0.1452
     23 H         -10.5983  -20.3552   26.1834 H       1  UNL1        0.1437
     24 H          -9.6719  -20.2432   24.7561 H       1  UNL1        0.1437
     25 C         -11.8270  -16.2528   20.8048 C.3     1  UNL1        0.0067
     26 C         -12.4219  -17.5993   21.0933 C.3     1  UNL1        0.0460
     27 C          -3.7017  -18.8812   20.4696 C.ar    1  UNL1        0.0264
     28 C          -2.8431  -19.0557   21.6871 C.ar    1  UNL1        0.0293
     29 C          -1.4009  -18.6445   21.6530 C.ar    1  UNL1        0.1422
     30 F          -0.5423  -18.8191   22.8706 F       1  UNL1       -0.2041
     31 C          -0.8174  -18.0588   20.4015 C.ar    1  UNL1        0.0592
     32 C          -1.6760  -17.8842   19.1840 C.ar    1  UNL1        0.1422
     33 F          -1.0924  -17.2985   17.9325 F       1  UNL1       -0.2041
     34 C          -3.1181  -18.2954   19.2180 C.ar    1  UNL1        0.0293
     35 C          -6.3840  -16.9870   23.4864 C.3     1  UNL1        0.1172
     36 C          -6.8936  -15.5968   23.2463 C.3     1  UNL1        0.1129
     37 N          -6.9431  -14.6106   24.3756 N.3     1  UNL1       -0.1815
     38 H          -7.8302  -14.1139   24.2941 H       1  UNL1        0.1485
     39 S          -6.8434  -15.0889   25.7938 S.O2    1  UNL1        0.0427
     40 C          -6.7437  -15.5672   27.2120 C.3     1  UNL1        0.1957
     41 O          -5.3802  -14.7586   25.8024 O.2     1  UNL1       -0.1575
     42 O          -8.3066  -15.4192   25.7853 O.2     1  UNL1       -0.1575
@<TRIPOS>BOND
     1    25    26    1
     2    26    13    1
     3    13    14   ar
     4    14    15   ar
     5    15    16    1
     6    15    17   ar
     7    17    18   ar
     8    18    19    1
     9    18    20   ar
    10    20     1    1
    11     1     2   ar
    12     2     3   ar
    13     3     4   ar
    14     4     5   ar
    15     5     6   ar
    16     5     7    1
    17     7    35    1
    18    35    36    1
    19    36    37    1
    20    37    39    1
    21    39    40    1
    22    39    41    2
    23    39    42    2
    24     7     8   am
    25     8     9    2
    26     8    10    1
    27    10    11    1
    28    10    27    1
    29    27    28   ar
    30    28    29   ar
    31    29    30    1
    32    29    31   ar
    33    31    32   ar
    34    32    33    1
    35    32    34   ar
    36    10    12    1
    37    20    13   ar
    38     6     1   ar
    39    34    27   ar
    40    12     4    1
    41    16    21    1
    42    16    22    1
    43    19    23    1
    44    19    24    1
    45    37    38    1
@<TRIPOS>MOLECULE
*****
 42 45 0 0 0
SMALL
GASTEIGER

@<TRIPOS>ATOM
      1 C           0.4397    2.1622   26.9715 C.ar    1  UNL1        0.0053
      2 C           1.3077    1.3292   26.0757 C.ar    1  UNL1        0.0033
      3 C           1.1048    1.3649   24.5900 C.ar    1  UNL1        0.0382
      4 C           0.0338    2.2337   24.0000 C.ar    1  UNL1        0.1529
      5 C          -0.8343    3.0668   24.8957 C.ar    1  UNL1        0.0882
      6 C          -0.6314    3.0310   26.3815 C.ar    1  UNL1        0.0181
      7 N          -1.9053    3.9356   24.3057 N.am    1  UNL1       -0.2514
      8 C          -2.1083    3.9713   22.8200 C.2     1  UNL1        0.2697
      9 O          -3.1793    4.8401   22.2300 O.2     1  UNL1       -0.2704
     10 C          -1.2402    3.1383   21.9242 C.3     1  UNL1        0.2199
     11 C          -0.6759    2.5341   20.6725 C.3     1  UNL1        0.0579
     12 O          -0.1691    2.2695   22.5141 O.3     1  UNL1       -0.4686
     13 C          -0.2883    1.3295   29.3224 C.ar    1  UNL1        0.0645
     14 N          -0.0855    1.2938   30.8082 N.ar    1  UNL1       -0.2183
     15 C           1.0483    2.0550   31.4289 C.ar    1  UNL1        0.2145
     16 N           1.2512    2.0192   32.9147 N.pl3   1  UNL1       -0.3274
     17 N           1.9792    2.8519   30.5638 N.ar    1  UNL1       -0.1995
     18 C           1.7763    2.8876   29.0780 C.ar    1  UNL1        0.1293
     19 N           2.7072    3.6845   28.2129 N.pl3   1  UNL1       -0.3425
     20 C           0.6426    2.1265   28.4573 C.ar    1  UNL1        0.0449
     21 H           0.6402    1.4962   33.4824 H       1  UNL1        0.1452
     22 H           1.9953    2.5188   33.3220 H       1  UNL1        0.1452
     23 H           3.4513    4.1841   28.6202 H       1  UNL1        0.1437
     24 H           2.5740    3.7080   27.2377 H       1  UNL1        0.1437
     25 C          -1.4424   -0.9302   28.7640 C.3     1  UNL1        0.0067
     26 C          -1.4221    0.5684   28.7017 C.3     1  UNL1        0.0460
     27 C          -2.1152    3.7972   20.8995 C.ar    1  UNL1        0.0264
     28 C          -3.4036    3.1500   20.4857 C.ar    1  UNL1        0.0293
     29 C          -4.2787    3.8090   19.4609 C.ar    1  UNL1        0.1422
     30 F          -5.5671    3.1617   19.0471 F       1  UNL1       -0.2041
     31 C          -3.8655    5.1151   18.8501 C.ar    1  UNL1        0.0592
     32 C          -2.5771    5.7623   19.2640 C.ar    1  UNL1        0.1422
     33 F          -2.1639    7.0685   18.6531 F       1  UNL1       -0.2041
     34 C          -1.7020    5.1034   20.2886 C.ar    1  UNL1        0.0293
     35 C          -2.7734    4.7686   25.2015 C.3     1  UNL1        0.1172
     36 C          -4.1427    4.2862   25.5790 C.3     1  UNL1        0.1129
     37 N          -5.0632    3.7431   24.5265 N.3     1  UNL1       -0.1815
     38 H          -5.3235    2.8017   24.8203 H       1  UNL1        0.1485
     39 S          -6.3382    4.4633   24.2011 S.O2    1  UNL1        0.0427
     40 C          -7.6132    5.1834   23.8758 C.3     1  UNL1        0.1957
     41 O          -6.3665    3.8044   22.8539 O.2     1  UNL1       -0.1575
     42 O          -6.3098    5.1221   25.5484 O.2     1  UNL1       -0.1575
@<TRIPOS>BOND
     1    25    26    1
     2    26    13    1
     3    13    14   ar
     4    14    15   ar
     5    15    16    1
     6    15    17   ar
     7    17    18   ar
     8    18    19    1
     9    18    20   ar
    10    20     1    1
    11     1     2   ar
    12     2     3   ar
    13     3     4   ar
    14     4     5   ar
    15     5     6   ar
    16     5     7    1
    17     7    35    1
    18    35    36    1
    19    36    37    1
    20    37    39    1
    21    39    40    1
    22    39    41    2
    23    39    42    2
    24     7     8   am
    25     8     9    2
    26     8    10    1
    27    10    11    1
    28    10    27    1
    29    27    28   ar
    30    28    29   ar
    31    29    30    1
    32    29    31   ar
    33    31    32   ar
    34    32    33    1
    35    32    34   ar
    36    10    12    1
    37    20    13   ar
    38     6     1   ar
    39    34    27   ar
    40    12     4    1
    41    16    21    1
    42    16    22    1
    43    19    23    1
    44    19    24    1
    45    37    38    1
@<TRIPOS>MOLECULE
*****
 42 45 0 0 0
SMALL
GASTEIGER

@<TRIPOS>ATOM
      1 C           2.8678    0.5297   27.1721 C.ar    1  UNL1        0.0053
      2 C           3.6554   -0.6130   27.7414 C.ar    1  UNL1        0.0033
      3 C           4.2857   -1.6195   26.8251 C.ar    1  UNL1        0.0382
      4 C           4.1286   -1.4833   25.3396 C.ar    1  UNL1        0.1529
      5 C           3.3411   -0.3407   24.7703 C.ar    1  UNL1        0.0882
      6 C           2.7107    0.6658   25.6866 C.ar    1  UNL1        0.0181
      7 N           3.1839   -0.2045   23.2848 N.am    1  UNL1       -0.2514
      8 C           3.8143   -1.2110   22.3686 C.2     1  UNL1        0.2697
      9 O           3.6572   -1.0748   20.8830 O.2     1  UNL1       -0.2704
     10 C           4.6019   -2.3537   22.9378 C.3     1  UNL1        0.2199
     11 C           5.4354   -3.5993   22.9985 C.3     1  UNL1        0.0579
     12 O           4.7590   -2.4899   24.4233 O.3     1  UNL1       -0.4686
     13 C           0.9587    1.2057   28.7994 C.ar    1  UNL1        0.0645
     14 N           0.3282    2.2122   29.7156 N.ar    1  UNL1       -0.2183
     15 C           0.9765    3.5493   29.9208 C.ar    1  UNL1        0.2145
     16 N           0.3461    4.5558   30.8370 N.pl3   1  UNL1       -0.3274
     17 N           2.2552    3.8798   29.2097 N.ar    1  UNL1       -0.1995
     18 C           2.8857    2.8732   28.2935 C.ar    1  UNL1        0.1293
     19 N           4.1644    3.2037   27.5824 N.pl3   1  UNL1       -0.3425
     20 C           2.2374    1.5362   28.0883 C.ar    1  UNL1        0.0449
     21 H          -0.4932    4.3388   31.3037 H       1  UNL1        0.1452
     22 H           0.7715    5.4333   30.9717 H       1  UNL1        0.1452
     23 H           4.5899    4.0813   27.7171 H       1  UNL1        0.1437
     24 H           4.5782    2.5431   26.9811 H       1  UNL1        0.1437
     25 C          -1.1568   -0.3016   28.8559 C.3     1  UNL1        0.0067
     26 C           0.3104   -0.1314   28.5942 C.3     1  UNL1        0.0460
     27 C           4.7342   -2.6501   21.4734 C.ar    1  UNL1        0.0264
     28 C           3.7171   -3.5137   20.7881 C.ar    1  UNL1        0.0293
     29 C           3.8494   -3.8101   19.3236 C.ar    1  UNL1        0.1422
     30 F           2.8322   -4.6738   18.6383 F       1  UNL1       -0.2041
     31 C           4.9988   -3.2430   18.5445 C.ar    1  UNL1        0.0592
     32 C           6.0159   -2.3795   19.2298 C.ar    1  UNL1        0.1422
     33 F           7.1654   -1.8123   18.4506 F       1  UNL1       -0.2041
     34 C           5.8837   -2.0830   20.6942 C.ar    1  UNL1        0.0293
     35 C           2.3964    0.9381   22.7155 C.3     1  UNL1        0.1172
     36 C           0.9937    0.7155   22.2328 C.3     1  UNL1        0.1129
     37 N           0.7511    0.1962   20.8466 N.3     1  UNL1       -0.1815
     38 H          -0.1322   -0.3132   20.8734 H       1  UNL1        0.1485
     39 S           0.6659    1.1506   19.6925 S.O2    1  UNL1        0.0427
     40 C           0.5806    2.1049   18.5384 C.3     1  UNL1        0.1957
     41 O           1.4842    0.2121   18.8560 O.2     1  UNL1       -0.1575
     42 O          -0.1524    2.0890   20.5290 O.2     1  UNL1       -0.1575
@<TRIPOS>BOND
     1    25    26    1
     2    26    13    1
     3    13    14   ar
     4    14    15   ar
     5    15    16    1
     6    15    17   ar
     7    17    18   ar
     8    18    19    1
     9    18    20   ar
    10    20     1    1
    11     1     2   ar
    12     2     3   ar
    13     3     4   ar
    14     4     5   ar
    15     5     6   ar
    16     5     7    1
    17     7    35    1
    18    35    36    1
    19    36    37    1
    20    37    39    1
    21    39    40    1
    22    39    41    2
    23    39    42    2
    24     7     8   am
    25     8     9    2
    26     8    10    1
    27    10    11    1
    28    10    27    1
    29    27    28   ar
    30    28    29   ar
    31    29    30    1
    32    29    31   ar
    33    31    32   ar
    34    32    33    1
    35    32    34   ar
    36    10    12    1
    37    20    13   ar
    38     6     1   ar
    39    34    27   ar
    40    12     4    1
    41    16    21    1
    42    16    22    1
    43    19    23    1
    44    19    24    1
    45    37    38    1
