@<TRIPOS>MOLECULE
*****
 30 33 0 0 0
SMALL
GASTEIGER

@<TRIPOS>ATOM
      1 C          -9.2256  -18.5370   22.2304 C.ar    1  UNL1        0.1122
      2 N          -8.0084  -17.6861   22.0201 N.ar    1  UNL1       -0.2259
      3 C          -6.8058  -18.5824   22.0474 C.ar    1  UNL1        0.1412
      4 C          -7.2800  -19.9873   22.2745 C.ar    1  UNL1        0.0710
      5 S          -8.7754  -19.9592   22.3876 S.2     1  UNL1       -0.0670
      6 C         -12.2374  -15.4495   18.9675 C.3     1  UNL1        0.0320
      7 C         -11.7063  -16.3167   20.0701 C.3     1  UNL1        0.1155
      8 C         -12.5935  -16.6980   21.2179 C.3     1  UNL1        0.0328
      9 C         -12.0624  -17.5652   22.3205 C.3     1  UNL1        0.0426
     10 C         -12.9497  -17.9465   23.4683 C.3     1  UNL1        0.0673
     11 S         -12.4186  -18.8137   24.5710 S.3     1  UNL1       -0.0807
     12 C         -11.0001  -19.2996   24.5259 C.2     1  UNL1        0.1483
     13 N         -10.4690  -20.1668   25.6285 N.pl3   1  UNL1       -0.3380
     14 N         -10.1129  -18.9183   23.3781 N.2     1  UNL1       -0.2464
     15 C         -10.6440  -18.0511   22.2755 C.3     1  UNL1        0.1549
     16 C          -9.7568  -17.6698   21.1277 C.3     1  UNL1        0.1705
     17 O         -10.2879  -16.8026   20.0250 O.3     1  UNL1       -0.3538
     18 H         -11.0513  -20.4170   26.3818 H       1  UNL1        0.1442
     19 H          -9.5380  -20.4857   25.5989 H       1  UNL1        0.1442
     20 N          -5.3797  -18.1498   21.8774 N.am    1  UNL1       -0.2641
     21 C          -4.5525  -18.7148   20.7610 C.2     1  UNL1        0.2683
     22 O          -5.1516  -19.7126   19.8145 O.2     1  UNL1       -0.2681
     23 H          -4.9866  -17.4949   22.4986 H       1  UNL1        0.1566
     24 C          -3.1264  -18.2822   20.5911 C.ar    1  UNL1        0.1349
     25 C          -2.1664  -19.1462   19.8282 C.ar    1  UNL1        0.0246
     26 C          -0.7402  -18.7136   19.6583 C.ar    1  UNL1        0.0147
     27 C          -0.2741  -17.4170   20.2510 C.ar    1  UNL1        0.0768
     28 CL          1.1521  -16.9844   20.0811 Cl      1  UNL1       -0.0806
     29 C          -1.2341  -16.5530   21.0139 C.ar    1  UNL1        0.1103
     30 N          -2.6602  -16.9856   21.1838 N.ar    1  UNL1       -0.2384
@<TRIPOS>BOND
     1     7     6    1
     2     7     8    1
     3     9     8    1
     4     9    10    1
     5    10    11    1
     6    11    12    1
     7    12    13    1
     8    12    14    2
     9    14    15    1
    10    15     1    1
    11     1     2   ar
    12     2     3   ar
    13     3    20    1
    14    20    21   am
    15    21    22    2
    16    21    24    1
    17    24    25   ar
    18    25    26   ar
    19    26    27   ar
    20    27    28    1
    21    27    29   ar
    22    29    30   ar
    23     3     4   ar
    24     4     5   ar
    25    15    16    1
    26    16    17    1
    27    17     7    1
    28    15     9    1
    29     5     1   ar
    30    30    24   ar
    31    13    18    1
    32    13    19    1
    33    20    23    1
@<TRIPOS>MOLECULE
*****
 30 33 0 0 0
SMALL
GASTEIGER

@<TRIPOS>ATOM
      1 C         -10.2637  -18.6860   22.8438 C.ar    1  UNL1        0.1122
      2 N          -8.9931  -18.0234   22.4003 N.ar    1  UNL1       -0.2259
      3 C          -7.8652  -18.9865   22.6249 C.ar    1  UNL1        0.1412
      4 C          -8.4387  -20.2443   23.2071 C.ar    1  UNL1        0.0710
      5 S          -9.9210  -20.0587   23.3424 S.2     1  UNL1       -0.0670
      6 C         -14.4574  -18.6357   26.2584 C.3     1  UNL1        0.0320
      7 C         -13.5169  -18.4512   25.1046 C.3     1  UNL1        0.1155
      8 C         -13.9487  -17.6627   23.9038 C.3     1  UNL1        0.0328
      9 C         -13.0082  -17.4782   22.7499 C.3     1  UNL1        0.0426
     10 C         -13.4399  -16.6897   21.5491 C.3     1  UNL1        0.0673
     11 S         -12.4994  -16.5052   20.3952 S.3     1  UNL1       -0.0807
     12 C         -11.1271  -17.1091   20.4422 C.2     1  UNL1        0.1483
     13 N         -10.1866  -16.9246   19.2883 N.pl3   1  UNL1       -0.3380
     14 N         -10.6954  -17.8976   21.6430 N.2     1  UNL1       -0.2464
     15 C         -11.6359  -18.0821   22.7969 C.3     1  UNL1        0.1549
     16 C         -11.2042  -18.8705   23.9976 C.3     1  UNL1        0.1705
     17 O         -12.1447  -19.0551   25.1515 O.3     1  UNL1       -0.3538
     18 H         -10.4700  -16.4071   18.5002 H       1  UNL1        0.1442
     19 H          -9.2860  -17.3210   19.3192 H       1  UNL1        0.1442
     20 N          -6.4180  -18.7357   22.3207 N.am    1  UNL1       -0.2641
     21 C          -5.8106  -19.2814   21.0624 C.2     1  UNL1        0.2683
     22 O          -6.6506  -20.0778   20.1083 O.2     1  UNL1       -0.2681
     23 H          -5.8667  -18.2131   22.9469 H       1  UNL1        0.1566
     24 C          -4.3634  -19.0306   20.7582 C.ar    1  UNL1        0.1349
     25 C          -3.3117  -19.3937   21.7642 C.ar    1  UNL1        0.0246
     26 C          -1.8644  -19.1430   21.4599 C.ar    1  UNL1        0.0147
     27 C          -1.4688  -18.5292   20.1498 C.ar    1  UNL1        0.0768
     28 CL         -0.0216  -18.2784   19.8455 Cl      1  UNL1       -0.0806
     29 C          -2.5206  -18.1661   19.1437 C.ar    1  UNL1        0.1103
     30 N          -3.9678  -18.4168   19.4480 N.ar    1  UNL1       -0.2384
@<TRIPOS>BOND
     1     7     6    1
     2     7     8    1
     3     9     8    1
     4     9    10    1
     5    10    11    1
     6    11    12    1
     7    12    13    1
     8    12    14    2
     9    14    15    1
    10    15     1    1
    11     1     2   ar
    12     2     3   ar
    13     3    20    1
    14    20    21   am
    15    21    22    2
    16    21    24    1
    17    24    25   ar
    18    25    26   ar
    19    26    27   ar
    20    27    28    1
    21    27    29   ar
    22    29    30   ar
    23     3     4   ar
    24     4     5   ar
    25    15    16    1
    26    16    17    1
    27    17     7    1
    28    15     9    1
    29     5     1   ar
    30    30    24   ar
    31    13    18    1
    32    13    19    1
    33    20    23    1
@<TRIPOS>MOLECULE
*****
 30 33 0 0 0
SMALL
GASTEIGER

@<TRIPOS>ATOM
      1 C          -2.9522    3.8101   20.8483 C.ar    1  UNL1        0.1122
      2 N          -2.2998    2.4728   20.6582 N.ar    1  UNL1       -0.2259
      3 C          -0.8136    2.6766   20.6667 C.ar    1  UNL1        0.1412
      4 C          -0.5476    4.1399   20.8620 C.ar    1  UNL1        0.0710
      5 S          -1.8692    4.8404   20.9742 S.2     1  UNL1       -0.0670
      6 C          -6.4467    4.7593   24.8654 C.3     1  UNL1        0.0320
      7 C          -5.7739    4.5299   23.5445 C.3     1  UNL1        0.1155
      8 C          -6.5771    4.5618   22.2781 C.3     1  UNL1        0.0328
      9 C          -5.9043    4.3324   20.9573 C.3     1  UNL1        0.0426
     10 C          -6.7076    4.3643   19.6908 C.3     1  UNL1        0.0673
     11 S          -6.0348    4.1349   18.3700 S.3     1  UNL1       -0.0807
     12 C          -4.5586    3.8738   18.3155 C.2     1  UNL1        0.1483
     13 N          -3.8858    3.6445   16.9946 N.pl3   1  UNL1       -0.3380
     14 N          -3.7554    3.8420   19.5819 N.2     1  UNL1       -0.2464
     15 C          -4.4282    4.0713   20.9028 C.3     1  UNL1        0.1549
     16 C          -3.6250    4.0395   22.1691 C.3     1  UNL1        0.1705
     17 O          -4.2978    4.2688   23.4900 O.3     1  UNL1       -0.3538
     18 H          -4.4130    3.6654   16.1634 H       1  UNL1        0.1442
     19 H          -2.9170    3.4731   16.9589 H       1  UNL1        0.1442
     20 N           0.2241    1.6053   20.5079 N.am    1  UNL1       -0.2641
     21 C           0.8116    1.3247   19.1566 C.2     1  UNL1        0.2683
     22 O           0.3613    2.1155   17.9641 O.2     1  UNL1       -0.2681
     23 H           0.5197    1.0863   21.2905 H       1  UNL1        0.1566
     24 C           1.8494    0.2534   18.9978 C.ar    1  UNL1        0.1349
     25 C           1.9515   -0.8481   20.0109 C.ar    1  UNL1        0.0246
     26 C           2.9892   -1.9194   19.8520 C.ar    1  UNL1        0.0147
     27 C           3.9249   -1.8893   18.6801 C.ar    1  UNL1        0.0768
     28 CL          4.9627   -2.9606   18.5212 Cl      1  UNL1       -0.0806
     29 C           3.8228   -0.7878   17.6670 C.ar    1  UNL1        0.1103
     30 N           2.7851    0.2835   17.8258 N.ar    1  UNL1       -0.2384
@<TRIPOS>BOND
     1     7     6    1
     2     7     8    1
     3     9     8    1
     4     9    10    1
     5    10    11    1
     6    11    12    1
     7    12    13    1
     8    12    14    2
     9    14    15    1
    10    15     1    1
    11     1     2   ar
    12     2     3   ar
    13     3    20    1
    14    20    21   am
    15    21    22    2
    16    21    24    1
    17    24    25   ar
    18    25    26   ar
    19    26    27   ar
    20    27    28    1
    21    27    29   ar
    22    29    30   ar
    23     3     4   ar
    24     4     5   ar
    25    15    16    1
    26    16    17    1
    27    17     7    1
    28    15     9    1
    29     5     1   ar
    30    30    24   ar
    31    13    18    1
    32    13    19    1
    33    20    23    1
@<TRIPOS>MOLECULE
*****
 30 33 0 0 0
SMALL
GASTEIGER

@<TRIPOS>ATOM
      1 C           2.9842    0.0468   19.7972 C.ar    1  UNL1        0.1122
      2 N           1.5752    0.3205   19.3615 N.ar    1  UNL1       -0.2259
      3 C           0.8452    0.9409   20.5158 C.ar    1  UNL1        0.1412
      4 C           1.8032    1.0507   21.6649 C.ar    1  UNL1        0.0710
      5 S           3.1251    0.4982   21.2208 S.2     1  UNL1       -0.0670
      6 C           4.5518   -5.0419   18.8500 C.3     1  UNL1        0.0320
      7 C           4.3888   -3.5512   18.8856 C.3     1  UNL1        0.1155
      8 C           5.3045   -2.6772   18.0810 C.3     1  UNL1        0.0328
      9 C           5.1416   -1.1865   18.1166 C.3     1  UNL1        0.0426
     10 C           6.0574   -0.3124   17.3120 C.3     1  UNL1        0.0673
     11 S           5.8944    1.1782   17.3476 S.3     1  UNL1       -0.0807
     12 C           4.8156    1.7949   18.1880 C.2     1  UNL1        0.1483
     13 N           4.6527    3.2856   18.2236 N.pl3   1  UNL1       -0.3380
     14 N           3.8999    0.9209   18.9926 N.2     1  UNL1       -0.2464
     15 C           4.0629   -0.5698   18.9569 C.3     1  UNL1        0.1549
     16 C           3.1472   -1.4439   19.7616 C.3     1  UNL1        0.1705
     17 O           3.3101   -2.9346   19.7259 O.3     1  UNL1       -0.3538
     18 H           5.2537    3.8593   17.6955 H       1  UNL1        0.1442
     19 H           3.9447    3.6903   18.7751 H       1  UNL1        0.1442
     20 N          -0.5905    1.3753   20.5203 N.am    1  UNL1       -0.2641
     21 C          -0.9423    2.8052   20.2351 C.2     1  UNL1        0.2683
     22 O           0.1416    3.8008   19.9454 O.2     1  UNL1       -0.2681
     23 H          -1.3019    0.7218   20.7104 H       1  UNL1        0.1566
     24 C          -2.3780    3.2395   20.2395 C.ar    1  UNL1        0.1349
     25 C          -2.9446    3.9689   19.0575 C.ar    1  UNL1        0.0246
     26 C          -4.3803    4.4032   19.0619 C.ar    1  UNL1        0.0147
     27 C          -5.2495    4.1083   20.2483 C.ar    1  UNL1        0.0768
     28 CL         -6.6852    4.5426   20.2527 Cl      1  UNL1       -0.0806
     29 C          -4.6829    3.3789   21.4302 C.ar    1  UNL1        0.1103
     30 N          -3.2472    2.9446   21.4258 N.ar    1  UNL1       -0.2384
@<TRIPOS>BOND
     1     7     6    1
     2     7     8    1
     3     9     8    1
     4     9    10    1
     5    10    11    1
     6    11    12    1
     7    12    13    1
     8    12    14    2
     9    14    15    1
    10    15     1    1
    11     1     2   ar
    12     2     3   ar
    13     3    20    1
    14    20    21   am
    15    21    22    2
    16    21    24    1
    17    24    25   ar
    18    25    26   ar
    19    26    27   ar
    20    27    28    1
    21    27    29   ar
    22    29    30   ar
    23     3     4   ar
    24     4     5   ar
    25    15    16    1
    26    16    17    1
    27    17     7    1
    28    15     9    1
    29     5     1   ar
    30    30    24   ar
    31    13    18    1
    32    13    19    1
    33    20    23    1
@<TRIPOS>MOLECULE
*****
 30 33 0 0 0
SMALL
GASTEIGER

@<TRIPOS>ATOM
      1 C          -2.4872    3.8427   20.9598 C.ar    1  UNL1        0.1122
      2 N          -1.7769    2.6141   20.4740 N.ar    1  UNL1       -0.2259
      3 C          -0.3959    3.0153   20.0473 C.ar    1  UNL1        0.1412
      4 C          -0.2527    4.4919   20.2695 C.ar    1  UNL1        0.0710
      5 S          -1.5452    5.0033   20.8334 S.2     1  UNL1       -0.0670
      6 C          -7.3295    4.4384   18.6259 C.3     1  UNL1        0.0320
      7 C          -6.1839    4.2592   19.5775 C.3     1  UNL1        0.1155
      8 C          -6.4438    4.1379   21.0498 C.3     1  UNL1        0.0328
      9 C          -5.2982    3.9586   22.0013 C.3     1  UNL1        0.0426
     10 C          -5.5581    3.8374   23.4737 C.3     1  UNL1        0.0673
     11 S          -4.4125    3.6581   24.4252 S.3     1  UNL1       -0.0807
     12 C          -3.0070    3.6002   23.9044 C.2     1  UNL1        0.1483
     13 N          -1.8613    3.4210   24.8560 N.pl3   1  UNL1       -0.3380
     14 N          -2.7471    3.7215   22.4321 N.2     1  UNL1       -0.2464
     15 C          -3.8927    3.9007   21.4806 C.3     1  UNL1        0.1549
     16 C          -3.6328    4.0220   20.0083 C.3     1  UNL1        0.1705
     17 O          -4.7785    4.2012   19.0567 O.3     1  UNL1       -0.3538
     18 H          -2.0319    3.3414   25.8223 H       1  UNL1        0.1442
     19 H          -0.9389    3.3829   24.5142 H       1  UNL1        0.1442
     20 N           0.6570    2.1006   19.4955 N.am    1  UNL1       -0.2641
     21 C           0.9339    0.7864   20.1634 C.2     1  UNL1        0.2683
     22 O           0.1578    0.3870   21.3834 O.2     1  UNL1       -0.2681
     23 H           1.1664    2.3627   18.6948 H       1  UNL1        0.1566
     24 C           1.9868   -0.1283   19.6116 C.ar    1  UNL1        0.1349
     25 C           2.6450    0.1897   18.3017 C.ar    1  UNL1        0.0246
     26 C           3.6979   -0.7250   17.7498 C.ar    1  UNL1        0.0147
     27 C           4.0927   -1.9577   18.5077 C.ar    1  UNL1        0.0768
     28 CL          5.1456   -2.8725   17.9559 Cl      1  UNL1       -0.0806
     29 C           3.4345   -2.2757   19.8176 C.ar    1  UNL1        0.1103
     30 N           2.3816   -1.3610   20.3695 N.ar    1  UNL1       -0.2384
@<TRIPOS>BOND
     1     7     6    1
     2     7     8    1
     3     9     8    1
     4     9    10    1
     5    10    11    1
     6    11    12    1
     7    12    13    1
     8    12    14    2
     9    14    15    1
    10    15     1    1
    11     1     2   ar
    12     2     3   ar
    13     3    20    1
    14    20    21   am
    15    21    22    2
    16    21    24    1
    17    24    25   ar
    18    25    26   ar
    19    26    27   ar
    20    27    28    1
    21    27    29   ar
    22    29    30   ar
    23     3     4   ar
    24     4     5   ar
    25    15    16    1
    26    16    17    1
    27    17     7    1
    28    15     9    1
    29     5     1   ar
    30    30    24   ar
    31    13    18    1
    32    13    19    1
    33    20    23    1
@<TRIPOS>MOLECULE
*****
 30 33 0 0 0
SMALL
GASTEIGER

@<TRIPOS>ATOM
      1 C          -8.9624  -18.8897   20.9195 C.ar    1  UNL1        0.1122
      2 N          -7.5724  -18.3595   21.1115 N.ar    1  UNL1       -0.2259
      3 C          -6.7577  -18.7501   19.9140 C.ar    1  UNL1        0.1412
      4 C          -7.6443  -19.5216   18.9819 C.ar    1  UNL1        0.0710
      5 S          -9.0068  -19.6079   19.6033 S.2     1  UNL1       -0.0670
      6 C         -10.2855  -21.2337   25.6105 C.3     1  UNL1        0.0320
      7 C         -10.2260  -20.3990   24.3655 C.3     1  UNL1        0.1155
      8 C         -11.3111  -19.4045   24.0768 C.3     1  UNL1        0.0328
      9 C         -11.2516  -18.5698   22.8318 C.3     1  UNL1        0.0426
     10 C         -12.3367  -17.5752   22.5431 C.3     1  UNL1        0.0673
     11 S         -12.2772  -16.7406   21.2982 S.3     1  UNL1       -0.0807
     12 C         -11.1325  -16.9006   20.3420 C.2     1  UNL1        0.1483
     13 N         -11.0730  -16.0660   19.0970 N.pl3   1  UNL1       -0.3380
     14 N         -10.0475  -17.8951   20.6307 N.2     1  UNL1       -0.2464
     15 C         -10.1070  -18.7298   21.8757 C.3     1  UNL1        0.1549
     16 C          -9.0219  -19.7243   22.1644 C.3     1  UNL1        0.1705
     17 O          -9.0814  -20.5590   23.4093 O.3     1  UNL1       -0.3538
     18 H         -11.7852  -15.4132   18.9075 H       1  UNL1        0.1442
     19 H         -10.3218  -16.1709   18.4695 H       1  UNL1        0.1442
     20 N          -5.3107  -18.4260   19.6883 N.am    1  UNL1       -0.2641
     21 C          -4.3502  -18.4414   20.8402 C.2     1  UNL1        0.2683
     22 O          -4.8367  -18.7809   22.2180 O.2     1  UNL1       -0.2681
     23 H          -4.9914  -18.2032   18.7841 H       1  UNL1        0.1566
     24 C          -2.9031  -18.1173   20.6145 C.ar    1  UNL1        0.1349
     25 C          -1.9816  -19.1559   20.0469 C.ar    1  UNL1        0.0246
     26 C          -0.5345  -18.8318   19.8212 C.ar    1  UNL1        0.0147
     27 C          -0.0089  -17.4692   20.1631 C.ar    1  UNL1        0.0768
     28 CL          1.4381  -17.1452   19.9374 Cl      1  UNL1       -0.0806
     29 C          -0.9304  -16.4306   20.7308 C.ar    1  UNL1        0.1103
     30 N          -2.3775  -16.7547   20.9565 N.ar    1  UNL1       -0.2384
@<TRIPOS>BOND
     1     7     6    1
     2     7     8    1
     3     9     8    1
     4     9    10    1
     5    10    11    1
     6    11    12    1
     7    12    13    1
     8    12    14    2
     9    14    15    1
    10    15     1    1
    11     1     2   ar
    12     2     3   ar
    13     3    20    1
    14    20    21   am
    15    21    22    2
    16    21    24    1
    17    24    25   ar
    18    25    26   ar
    19    26    27   ar
    20    27    28    1
    21    27    29   ar
    22    29    30   ar
    23     3     4   ar
    24     4     5   ar
    25    15    16    1
    26    16    17    1
    27    17     7    1
    28    15     9    1
    29     5     1   ar
    30    30    24   ar
    31    13    18    1
    32    13    19    1
    33    20    23    1
@<TRIPOS>MOLECULE
*****
 30 33 0 0 0
SMALL
GASTEIGER

@<TRIPOS>ATOM
      1 C           3.8085   -0.5634   22.1096 C.ar    1  UNL1        0.1122
      2 N           3.9117   -1.9795   22.5934 N.ar    1  UNL1       -0.2259
      3 C           4.9706   -2.0308   23.6548 C.ar    1  UNL1        0.1412
      4 C           5.5217   -0.6463   23.8269 C.ar    1  UNL1        0.0710
      5 S           4.8035    0.2606   22.8720 S.2     1  UNL1       -0.0670
      6 C           3.7690   -0.8357   16.7083 C.3     1  UNL1        0.0320
      7 C           3.4708   -0.5771   18.1555 C.3     1  UNL1        0.1155
      8 C           2.2384    0.1853   18.5426 C.3     1  UNL1        0.0328
      9 C           1.9401    0.4440   19.9897 C.3     1  UNL1        0.0426
     10 C           0.7077    1.2064   20.3768 C.3     1  UNL1        0.0673
     11 S           0.4094    1.4651   21.8240 S.3     1  UNL1       -0.0807
     12 C           1.3437    0.9613   22.8840 C.2     1  UNL1        0.1483
     13 N           1.0454    1.2200   24.3311 N.pl3   1  UNL1       -0.3380
     14 N           2.5761    0.1990   22.4968 N.2     1  UNL1       -0.2464
     15 C           2.8743   -0.0597   21.0497 C.3     1  UNL1        0.1549
     16 C           4.1067   -0.8221   20.6625 C.3     1  UNL1        0.1705
     17 O           4.4049   -1.0808   19.2154 O.3     1  UNL1       -0.3538
     18 H           0.2366    1.7204   24.5852 H       1  UNL1        0.1442
     19 H           1.6586    0.8894   25.0268 H       1  UNL1        0.1442
     20 N           5.4024   -3.2520   24.4111 N.am    1  UNL1       -0.2641
     21 C           6.6537   -3.9771   24.0133 C.2     1  UNL1        0.2683
     22 O           7.4733   -3.4809   22.8590 O.2     1  UNL1       -0.2681
     23 H           4.8645   -3.5776   25.1687 H       1  UNL1        0.1566
     24 C           7.0856   -5.1983   24.7697 C.ar    1  UNL1        0.1349
     25 C           6.8560   -5.2841   26.2495 C.ar    1  UNL1        0.0246
     26 C           7.2878   -6.5054   27.0059 C.ar    1  UNL1        0.0147
     27 C           7.9492   -7.6407   26.2825 C.ar    1  UNL1        0.0768
     28 CL          8.3811   -8.8619   27.0388 Cl      1  UNL1       -0.0806
     29 C           8.1788   -7.5549   24.8026 C.ar    1  UNL1        0.1103
     30 N           7.7470   -6.3336   24.0463 N.ar    1  UNL1       -0.2384
@<TRIPOS>BOND
     1     7     6    1
     2     7     8    1
     3     9     8    1
     4     9    10    1
     5    10    11    1
     6    11    12    1
     7    12    13    1
     8    12    14    2
     9    14    15    1
    10    15     1    1
    11     1     2   ar
    12     2     3   ar
    13     3    20    1
    14    20    21   am
    15    21    22    2
    16    21    24    1
    17    24    25   ar
    18    25    26   ar
    19    26    27   ar
    20    27    28    1
    21    27    29   ar
    22    29    30   ar
    23     3     4   ar
    24     4     5   ar
    25    15    16    1
    26    16    17    1
    27    17     7    1
    28    15     9    1
    29     5     1   ar
    30    30    24   ar
    31    13    18    1
    32    13    19    1
    33    20    23    1
@<TRIPOS>MOLECULE
*****
 30 33 0 0 0
SMALL
GASTEIGER

@<TRIPOS>ATOM
      1 C           4.3885   -1.4971   22.9672 C.ar    1  UNL1        0.1122
      2 N           3.8804   -1.9238   24.3126 N.ar    1  UNL1       -0.2259
      3 C           4.9462   -1.6276   25.3259 C.ar    1  UNL1        0.1412
      4 C           6.1129   -1.0180   24.6067 C.ar    1  UNL1        0.0710
      5 S           5.7683   -0.9373   23.1491 S.2     1  UNL1       -0.0670
      6 C           4.5936   -4.9652   18.8224 C.3     1  UNL1        0.0320
      7 C           4.2781   -3.8470   19.7710 C.3     1  UNL1        0.1155
      8 C           3.2212   -2.8419   19.4206 C.3     1  UNL1        0.0328
      9 C           2.9057   -1.7237   20.3693 C.3     1  UNL1        0.0426
     10 C           1.8487   -0.7186   20.0189 C.3     1  UNL1        0.0673
     11 S           1.5332    0.3997   20.9675 S.3     1  UNL1       -0.0807
     12 C           2.2747    0.5129   22.2665 C.2     1  UNL1        0.1483
     13 N           1.9592    1.6312   23.2152 N.pl3   1  UNL1       -0.3380
     14 N           3.3316   -0.4921   22.6169 N.2     1  UNL1       -0.2464
     15 C           3.6471   -1.6104   21.6683 C.3     1  UNL1        0.1549
     16 C           4.7040   -2.6154   22.0186 C.3     1  UNL1        0.1705
     17 O           5.0195   -3.7337   21.0700 O.3     1  UNL1       -0.3538
     18 H           1.2654    2.2908   22.9852 H       1  UNL1        0.1442
     19 H           2.4458    1.7055   24.0678 H       1  UNL1        0.1442
     20 N           4.8602   -1.8943   26.7994 N.am    1  UNL1       -0.2641
     21 C           4.6491   -0.7586   27.7561 C.2     1  UNL1        0.2683
     22 O           4.5238    0.6440   27.2391 O.2     1  UNL1       -0.2681
     23 H           4.9425   -2.8149   27.1387 H       1  UNL1        0.1566
     24 C           4.5631   -1.0253   29.2297 C.ar    1  UNL1        0.1349
     25 C           3.3711   -0.5542   30.0089 C.ar    1  UNL1        0.0246
     26 C           3.2852   -0.8209   31.4824 C.ar    1  UNL1        0.0147
     27 C           4.3912   -1.5586   32.1769 C.ar    1  UNL1        0.0768
     28 CL          4.3053   -1.8253   33.6504 Cl      1  UNL1       -0.0806
     29 C           5.5833   -2.0297   31.3977 C.ar    1  UNL1        0.1103
     30 N           5.6692   -1.7630   29.9241 N.ar    1  UNL1       -0.2384
@<TRIPOS>BOND
     1     7     6    1
     2     7     8    1
     3     9     8    1
     4     9    10    1
     5    10    11    1
     6    11    12    1
     7    12    13    1
     8    12    14    2
     9    14    15    1
    10    15     1    1
    11     1     2   ar
    12     2     3   ar
    13     3    20    1
    14    20    21   am
    15    21    22    2
    16    21    24    1
    17    24    25   ar
    18    25    26   ar
    19    26    27   ar
    20    27    28    1
    21    27    29   ar
    22    29    30   ar
    23     3     4   ar
    24     4     5   ar
    25    15    16    1
    26    16    17    1
    27    17     7    1
    28    15     9    1
    29     5     1   ar
    30    30    24   ar
    31    13    18    1
    32    13    19    1
    33    20    23    1
@<TRIPOS>MOLECULE
*****
 30 33 0 0 0
SMALL
GASTEIGER

@<TRIPOS>ATOM
      1 C           3.7235    0.3377   18.8477 C.ar    1  UNL1        0.1122
      2 N           4.5639   -0.1093   20.0069 N.ar    1  UNL1       -0.2259
      3 C           4.9848   -1.5269   19.7550 C.ar    1  UNL1        0.1412
      4 C           4.4045   -1.9560   18.4400 C.ar    1  UNL1        0.0710
      5 S           3.6250   -0.8037   17.8792 S.2     1  UNL1       -0.0670
      6 C           5.4256    5.0521   16.8161 C.3     1  UNL1        0.0320
      7 C           4.6478    3.9310   17.4392 C.3     1  UNL1        0.1155
      8 C           3.2390    4.1609   17.8999 C.3     1  UNL1        0.0328
      9 C           2.4613    3.0397   18.5230 C.3     1  UNL1        0.0426
     10 C           1.0524    3.2697   18.9837 C.3     1  UNL1        0.0673
     11 S           0.2746    2.1486   19.6068 S.3     1  UNL1       -0.0807
     12 C           0.9058    0.7975   19.7691 C.2     1  UNL1        0.1483
     13 N           0.1281   -0.3237   20.3922 N.pl3   1  UNL1       -0.3380
     14 N           2.3146    0.5676   19.3084 N.2     1  UNL1       -0.2464
     15 C           3.0924    1.6887   18.6853 C.3     1  UNL1        0.1549
     16 C           4.5012    1.4588   18.2246 C.3     1  UNL1        0.1705
     17 O           5.2789    2.5799   17.6015 O.3     1  UNL1       -0.3538
     18 H          -0.7966   -0.1728   20.6946 H       1  UNL1        0.1442
     19 H           0.5423   -1.2104   20.4987 H       1  UNL1        0.1442
     20 N           5.8365   -2.3677   20.6592 N.am    1  UNL1       -0.2641
     21 C           5.2968   -2.8330   21.9791 C.2     1  UNL1        0.2683
     22 O           3.9052   -2.4574   22.3947 O.2     1  UNL1       -0.2681
     23 H           6.7498   -2.6143   20.3864 H       1  UNL1        0.1566
     24 C           6.1484   -3.6738   22.8833 C.ar    1  UNL1        0.1349
     25 C           5.9762   -3.5865   24.3708 C.ar    1  UNL1        0.0246
     26 C           6.8279   -4.4273   25.2751 C.ar    1  UNL1        0.0147
     27 C           7.8518   -5.3554   24.6919 C.ar    1  UNL1        0.0768
     28 CL          8.7034   -6.1962   25.5961 Cl      1  UNL1       -0.0806
     29 C           8.0240   -5.4427   23.2043 C.ar    1  UNL1        0.1103
     30 N           7.1723   -4.6019   22.3001 N.ar    1  UNL1       -0.2384
@<TRIPOS>BOND
     1     7     6    1
     2     7     8    1
     3     9     8    1
     4     9    10    1
     5    10    11    1
     6    11    12    1
     7    12    13    1
     8    12    14    2
     9    14    15    1
    10    15     1    1
    11     1     2   ar
    12     2     3   ar
    13     3    20    1
    14    20    21   am
    15    21    22    2
    16    21    24    1
    17    24    25   ar
    18    25    26   ar
    19    26    27   ar
    20    27    28    1
    21    27    29   ar
    22    29    30   ar
    23     3     4   ar
    24     4     5   ar
    25    15    16    1
    26    16    17    1
    27    17     7    1
    28    15     9    1
    29     5     1   ar
    30    30    24   ar
    31    13    18    1
    32    13    19    1
    33    20    23    1
