@<TRIPOS>MOLECULE
*****
 41 44 0 0 0
SMALL
GASTEIGER

@<TRIPOS>ATOM
      1 C           7.7423   -4.5204   23.7138 C.ar    1  UNL1        0.0203
      2 C           8.0734   -5.9830   23.7494 C.ar    1  UNL1        0.0310
      3 C           7.8305   -6.7768   24.9987 C.ar    1  UNL1        0.1414
      4 F           8.1615   -8.2394   25.0343 F       1  UNL1       -0.2041
      5 C           7.2564   -6.1080   26.2125 C.ar    1  UNL1        0.0440
      6 C           6.9254   -4.6454   26.1770 C.ar    1  UNL1        0.0488
      7 C           7.1684   -3.8516   24.9276 C.ar    1  UNL1       -0.0067
      8 C           6.8373   -2.3891   24.8920 C.3     1  UNL1        0.0324
      9 C           6.9216   -3.6432   21.4101 C.ar    1  UNL1        0.1870
     10 C           7.1646   -2.8494   20.1608 C.ar    1  UNL1        0.1629
     11 N           6.1009   -2.7659   19.1065 N.pl3   1  UNL1       -0.3401
     12 N           8.4713   -2.1391   19.9658 N.ar    1  UNL1       -0.2063
     13 C           9.5350   -2.2226   21.0201 C.ar    1  UNL1        0.2002
     14 N           9.2920   -3.0163   22.2694 N.ar    1  UNL1       -0.2208
     15 C           7.9853   -3.7266   22.4644 C.ar    1  UNL1        0.1194
     16 H           5.2433   -3.2321   19.2345 H       1  UNL1        0.1438
     17 H           6.2604   -2.2449   18.2865 H       1  UNL1        0.1438
     18 O           5.6149   -4.3535   21.6052 O.3     1  UNL1       -0.4693
     19 C           4.4223   -3.6024   22.1186 C.3     1  UNL1        0.2270
     20 C           4.4631   -2.1061   22.2155 C.3     1  UNL1        0.1409
     21 C           2.5677   -1.2985   20.6326 C.2     1  UNL1        0.2493
     22 O           3.1672   -2.0922   19.5098 O.2     1  UNL1       -0.2699
     23 N           3.2156   -1.3054   21.9854 N.am    1  UNL1       -0.2722
     24 C           1.1755    0.3233   19.1555 C.2     1  UNL1        0.0048
     25 C           1.3203   -0.4978   20.4025 C.2     1  UNL1        0.0580
     26 C           2.6161   -0.5116   23.1081 C.3     1  UNL1        0.0939
     27 C           3.2289   -0.5666   24.4762 C.3     1  UNL1        0.0233
     28 N           6.3514   -3.9766   27.3907 N.am    1  UNL1       -0.2805
     29 C           7.2512   -3.5747   28.5215 C.2     1  UNL1        0.2517
     30 O           8.7249   -3.8416   28.4386 O.2     1  UNL1       -0.2697
     31 H           5.3842   -3.8015   27.4451 H       1  UNL1        0.1552
     32 C           6.6772   -2.9059   29.7354 C.ar    1  UNL1        0.0810
     33 C           6.3182   -1.4502   29.6904 C.ar    1  UNL1        0.0065
     34 C           5.7443   -0.7814   30.9042 C.ar    1  UNL1       -0.0040
     35 C           5.5293   -1.5684   32.1630 C.ar    1  UNL1       -0.0203
     36 C           5.8883   -3.0241   32.2080 C.ar    1  UNL1        0.0255
     37 C           6.4623   -3.6928   30.9942 C.ar    1  UNL1        0.1441
     38 F           6.8213   -5.1486   31.0391 F       1  UNL1       -0.2040
     39 C           4.9554   -0.8996   33.3768 C.3     1  UNL1        0.0224
     40 C           4.8718   -0.7649   34.8684 C.3     1  UNL1        0.0047
     41 C           4.0449    0.1241   33.9876 C.3     1  UNL1        0.0047
@<TRIPOS>BOND
     1    24    25    2
     2    25    21    1
     3    21    22    2
     4    21    23   am
     5    23    26    1
     6    26    27    1
     7    23    20    1
     8    20    19    1
     9    19    18    1
    10    18     9    1
    11     9    10   ar
    12    10    11    1
    13    10    12   ar
    14    12    13   ar
    15    13    14   ar
    16    14    15   ar
    17    15     1    1
    18     1     2   ar
    19     2     3   ar
    20     3     4    1
    21     3     5   ar
    22     5     6   ar
    23     6    28    1
    24    28    29   am
    25    29    30    2
    26    29    32    1
    27    32    33   ar
    28    33    34   ar
    29    34    35   ar
    30    35    39    1
    31    39    40    1
    32    40    41    1
    33    35    36   ar
    34    36    37   ar
    35    37    38    1
    36     6     7   ar
    37     7     8    1
    38    15     9   ar
    39     7     1   ar
    40    37    32   ar
    41    41    39    1
    42    11    16    1
    43    11    17    1
    44    28    31    1
@<TRIPOS>MOLECULE
*****
 41 44 0 0 0
SMALL
GASTEIGER

@<TRIPOS>ATOM
      1 C           4.8025   -1.8082   22.1801 C.ar    1  UNL1        0.0203
      2 C           5.8175   -2.1522   23.2295 C.ar    1  UNL1        0.0310
      3 C           5.5403   -1.8432   24.6709 C.ar    1  UNL1        0.1414
      4 F           6.5554   -2.1871   25.7203 F       1  UNL1       -0.2041
      5 C           4.2479   -1.1903   25.0629 C.ar    1  UNL1        0.0440
      6 C           3.2329   -0.8464   24.0134 C.ar    1  UNL1        0.0488
      7 C           3.5102   -1.1554   22.5720 C.ar    1  UNL1       -0.0067
      8 C           2.4951   -0.8115   21.5225 C.3     1  UNL1        0.0324
      9 C           5.9014   -1.1716   19.9135 C.ar    1  UNL1        0.1870
     10 C           6.1787   -1.4806   18.4721 C.ar    1  UNL1        0.1629
     11 N           7.0003   -0.5351   17.6470 N.pl3   1  UNL1       -0.3401
     12 N           5.6343   -2.7352   17.8559 N.ar    1  UNL1       -0.2063
     13 C           4.8127   -3.6807   18.6809 C.ar    1  UNL1        0.2002
     14 N           4.5354   -3.3717   20.1223 N.ar    1  UNL1       -0.2208
     15 C           5.0798   -2.1172   20.7386 C.ar    1  UNL1        0.1194
     16 H           7.3576    0.2884   18.0514 H       1  UNL1        0.1438
     17 H           7.1823   -0.7379   16.7009 H       1  UNL1        0.1438
     18 O           6.4457    0.0829   20.5298 O.3     1  UNL1       -0.4693
     19 C           5.6153    1.3319   20.5462 C.3     1  UNL1        0.2270
     20 C           5.0776    1.8920   19.2628 C.3     1  UNL1        0.1409
     21 C           2.6351    1.3526   18.5604 C.2     1  UNL1        0.2493
     22 O           3.0771    0.0120   18.0529 O.2     1  UNL1       -0.2699
     23 N           3.6353    2.2926   19.1654 N.am    1  UNL1       -0.2722
     24 C           0.2384    1.3929   19.5626 C.2     1  UNL1        0.0048
     25 C           1.1928    1.7531   18.4630 C.2     1  UNL1        0.0580
     26 C           3.1933    3.6331   19.6729 C.3     1  UNL1        0.0939
     27 C           2.9467    3.8362   21.1384 C.3     1  UNL1        0.0233
     28 N           1.9405   -0.1936   24.4054 N.am    1  UNL1       -0.2805
     29 C           1.8824    1.2911   24.6106 C.2     1  UNL1        0.2517
     30 O           3.1165    2.1230   24.4239 O.2     1  UNL1       -0.2697
     31 H           1.1305   -0.7396   24.5279 H       1  UNL1        0.1552
     32 C           0.5900    1.9441   25.0026 C.ar    1  UNL1        0.0810
     33 C           0.1008    1.8495   26.4174 C.ar    1  UNL1        0.0065
     34 C          -1.1915    2.5024   26.8093 C.ar    1  UNL1       -0.0040
     35 C          -1.9946    3.2499   25.7864 C.ar    1  UNL1       -0.0203
     36 C          -1.5054    3.3444   24.3716 C.ar    1  UNL1        0.0255
     37 C          -0.2131    2.6915   23.9797 C.ar    1  UNL1        0.1441
     38 F           0.2762    2.7860   22.5648 F       1  UNL1       -0.2040
     39 C          -3.2870    3.9028   26.1783 C.3     1  UNL1        0.0224
     40 C          -4.0424    4.8832   27.0257 C.3     1  UNL1        0.0047
     41 C          -4.7699    4.0533   26.0099 C.3     1  UNL1        0.0047
@<TRIPOS>BOND
     1    24    25    2
     2    25    21    1
     3    21    22    2
     4    21    23   am
     5    23    26    1
     6    26    27    1
     7    23    20    1
     8    20    19    1
     9    19    18    1
    10    18     9    1
    11     9    10   ar
    12    10    11    1
    13    10    12   ar
    14    12    13   ar
    15    13    14   ar
    16    14    15   ar
    17    15     1    1
    18     1     2   ar
    19     2     3   ar
    20     3     4    1
    21     3     5   ar
    22     5     6   ar
    23     6    28    1
    24    28    29   am
    25    29    30    2
    26    29    32    1
    27    32    33   ar
    28    33    34   ar
    29    34    35   ar
    30    35    39    1
    31    39    40    1
    32    40    41    1
    33    35    36   ar
    34    36    37   ar
    35    37    38    1
    36     6     7   ar
    37     7     8    1
    38    15     9   ar
    39     7     1   ar
    40    37    32   ar
    41    41    39    1
    42    11    16    1
    43    11    17    1
    44    28    31    1
@<TRIPOS>MOLECULE
*****
 41 44 0 0 0
SMALL
GASTEIGER

@<TRIPOS>ATOM
      1 C           3.3587   -0.4510   19.4665 C.ar    1  UNL1        0.0203
      2 C           4.3856    0.4283   18.8165 C.ar    1  UNL1        0.0310
      3 C           4.0098    1.8048   18.3542 C.ar    1  UNL1        0.1414
      4 F           5.0366    2.6841   17.7043 F       1  UNL1       -0.2041
      5 C           2.6071    2.3022   18.5419 C.ar    1  UNL1        0.0440
      6 C           1.5803    1.4230   19.1919 C.ar    1  UNL1        0.0488
      7 C           1.9561    0.0463   19.6542 C.ar    1  UNL1       -0.0067
      8 C           0.9292   -0.8330   20.3042 C.3     1  UNL1        0.0324
      9 C           4.2514   -2.0361   21.3214 C.ar    1  UNL1        0.1870
     10 C           4.6272   -3.4127   21.7836 C.ar    1  UNL1        0.1629
     11 N           5.1440   -3.6213   23.1763 N.pl3   1  UNL1       -0.3401
     12 N           4.4862   -4.5809   20.8532 N.ar    1  UNL1       -0.2063
     13 C           3.9694   -4.3724   19.4606 C.ar    1  UNL1        0.2002
     14 N           3.5936   -2.9958   18.9984 N.ar    1  UNL1       -0.2208
     15 C           3.7346   -1.8277   19.9288 C.ar    1  UNL1        0.1194
     16 H           5.2366   -2.8546   23.7870 H       1  UNL1        0.1438
     17 H           5.3907   -4.5248   23.4797 H       1  UNL1        0.1438
     18 O           4.3924   -0.8680   22.2518 O.3     1  UNL1       -0.4693
     19 C           3.3037   -0.5572   23.2357 C.3     1  UNL1        0.2270
     20 C           3.5274   -0.7907   24.7004 C.3     1  UNL1        0.1409
     21 C           2.8046   -0.3574   27.1580 C.2     1  UNL1        0.2493
     22 O           3.5373   -1.5925   27.5913 O.2     1  UNL1       -0.2699
     23 N           2.7997    0.0435   25.7126 N.am    1  UNL1       -0.2722
     24 C           0.9156   -0.1014   28.9233 C.2     1  UNL1        0.0048
     25 C           2.0769    0.4768   28.1703 C.2     1  UNL1        0.0580
     26 C           2.0670    1.2786   25.2794 C.3     1  UNL1        0.0939
     27 C           0.6218    1.1944   24.8868 C.3     1  UNL1        0.0233
     28 N           0.1776    1.9203   19.3796 N.am    1  UNL1       -0.2805
     29 C          -0.1553    2.8030   20.5457 C.2     1  UNL1        0.2517
     30 O           0.9143    3.1884   21.5241 O.2     1  UNL1       -0.2697
     31 H          -0.5244    1.6673   18.7374 H       1  UNL1        0.1552
     32 C          -1.5580    3.3004   20.7334 C.ar    1  UNL1        0.0810
     33 C          -2.1639    3.3360   22.1052 C.ar    1  UNL1        0.0065
     34 C          -3.5665    3.8333   22.2928 C.ar    1  UNL1       -0.0040
     35 C          -4.3633    4.2951   21.1088 C.ar    1  UNL1       -0.0203
     36 C          -3.7574    4.2595   19.7371 C.ar    1  UNL1        0.0255
     37 C          -2.3548    3.7621   19.5494 C.ar    1  UNL1        0.1441
     38 F          -1.7489    3.7265   18.1776 F       1  UNL1       -0.2040
     39 C          -5.7659    4.7925   21.2965 C.3     1  UNL1        0.0224
     40 C          -7.0169    4.8713   22.1205 C.3     1  UNL1        0.0047
     41 C          -6.9444    5.5750   20.7978 C.3     1  UNL1        0.0047
@<TRIPOS>BOND
     1    24    25    2
     2    25    21    1
     3    21    22    2
     4    21    23   am
     5    23    26    1
     6    26    27    1
     7    23    20    1
     8    20    19    1
     9    19    18    1
    10    18     9    1
    11     9    10   ar
    12    10    11    1
    13    10    12   ar
    14    12    13   ar
    15    13    14   ar
    16    14    15   ar
    17    15     1    1
    18     1     2   ar
    19     2     3   ar
    20     3     4    1
    21     3     5   ar
    22     5     6   ar
    23     6    28    1
    24    28    29   am
    25    29    30    2
    26    29    32    1
    27    32    33   ar
    28    33    34   ar
    29    34    35   ar
    30    35    39    1
    31    39    40    1
    32    40    41    1
    33    35    36   ar
    34    36    37   ar
    35    37    38    1
    36     6     7   ar
    37     7     8    1
    38    15     9   ar
    39     7     1   ar
    40    37    32   ar
    41    41    39    1
    42    11    16    1
    43    11    17    1
    44    28    31    1
@<TRIPOS>MOLECULE
*****
 41 44 0 0 0
SMALL
GASTEIGER

@<TRIPOS>ATOM
      1 C          -9.7343  -19.4934   21.1419 C.ar    1  UNL1        0.0203
      2 C         -10.3585  -20.0355   19.8902 C.ar    1  UNL1        0.0310
      3 C          -9.5614  -20.0982   18.6211 C.ar    1  UNL1        0.1414
      4 F         -10.1856  -20.6403   17.3695 F       1  UNL1       -0.2041
      5 C          -8.1401  -19.6188   18.6036 C.ar    1  UNL1        0.0440
      6 C          -7.5160  -19.0768   19.8552 C.ar    1  UNL1        0.0488
      7 C          -8.3131  -19.0141   21.1244 C.ar    1  UNL1       -0.0067
      8 C          -7.6890  -18.4720   22.3760 C.3     1  UNL1        0.0324
      9 C         -11.7447  -18.5524   22.4921 C.ar    1  UNL1        0.1870
     10 C         -12.5418  -18.4898   23.7612 C.ar    1  UNL1        0.1629
     11 N         -13.7551  -17.6115   23.8422 N.pl3   1  UNL1       -0.3401
     12 N         -12.1256  -19.3054   24.9493 N.ar    1  UNL1       -0.2063
     13 C         -10.9123  -20.1836   24.8683 C.ar    1  UNL1        0.2002
     14 N         -10.1153  -20.2463   23.5991 N.ar    1  UNL1       -0.2208
     15 C         -10.5315  -19.4307   22.4110 C.ar    1  UNL1        0.1194
     16 H         -14.0283  -17.0762   23.0625 H       1  UNL1        0.1438
     17 H         -14.2783  -17.5703   24.6752 H       1  UNL1        0.1438
     18 O         -12.1609  -17.7368   21.3039 O.3     1  UNL1       -0.4693
     19 C         -11.7774  -16.2894   21.2163 C.3     1  UNL1        0.2270
     20 C         -10.3309  -15.9001   21.1390 C.3     1  UNL1        0.1409
     21 C          -8.1801  -15.0499   22.3227 C.2     1  UNL1        0.2493
     22 O          -7.5833  -14.7047   20.9906 O.2     1  UNL1       -0.2699
     23 N          -9.5538  -15.6476   22.3970 N.am    1  UNL1       -0.2722
     24 C          -6.0505  -15.4193   23.7644 C.2     1  UNL1        0.0048
     25 C          -7.4030  -14.7974   23.5808 C.2     1  UNL1        0.0580
     26 C         -10.1506  -15.9928   23.7292 C.3     1  UNL1        0.0939
     27 C          -9.3656  -16.8073   24.7142 C.3     1  UNL1        0.0233
     28 N          -6.0948  -18.5974   19.8377 N.am    1  UNL1       -0.2805
     29 C          -4.9970  -19.4872   20.3406 C.2     1  UNL1        0.2517
     30 O          -5.3204  -20.8564   20.8610 O.2     1  UNL1       -0.2697
     31 H          -5.8825  -17.6988   19.4962 H       1  UNL1        0.1552
     32 C          -3.5757  -19.0079   20.3231 C.ar    1  UNL1        0.0810
     33 C          -2.9149  -18.6677   19.0203 C.ar    1  UNL1        0.0065
     34 C          -1.4936  -18.1884   19.0028 C.ar    1  UNL1       -0.0040
     35 C          -0.7332  -18.0493   20.2883 C.ar    1  UNL1       -0.0203
     36 C          -1.3940  -18.3895   21.5912 C.ar    1  UNL1        0.0255
     37 C          -2.8153  -18.8688   21.6086 C.ar    1  UNL1        0.1441
     38 F          -3.4762  -19.2090   22.9115 F       1  UNL1       -0.2040
     39 C           0.6881  -17.5700   20.2708 C.3     1  UNL1        0.0224
     40 C           2.0889  -17.6390   20.8028 C.3     1  UNL1        0.0047
     41 C           1.7489  -16.6708   19.7087 C.3     1  UNL1        0.0047
@<TRIPOS>BOND
     1    24    25    2
     2    25    21    1
     3    21    22    2
     4    21    23   am
     5    23    26    1
     6    26    27    1
     7    23    20    1
     8    20    19    1
     9    19    18    1
    10    18     9    1
    11     9    10   ar
    12    10    11    1
    13    10    12   ar
    14    12    13   ar
    15    13    14   ar
    16    14    15   ar
    17    15     1    1
    18     1     2   ar
    19     2     3   ar
    20     3     4    1
    21     3     5   ar
    22     5     6   ar
    23     6    28    1
    24    28    29   am
    25    29    30    2
    26    29    32    1
    27    32    33   ar
    28    33    34   ar
    29    34    35   ar
    30    35    39    1
    31    39    40    1
    32    40    41    1
    33    35    36   ar
    34    36    37   ar
    35    37    38    1
    36     6     7   ar
    37     7     8    1
    38    15     9   ar
    39     7     1   ar
    40    37    32   ar
    41    41    39    1
    42    11    16    1
    43    11    17    1
    44    28    31    1
@<TRIPOS>MOLECULE
*****
 41 44 0 0 0
SMALL
GASTEIGER

@<TRIPOS>ATOM
      1 C           4.1842   -1.3482   19.7119 C.ar    1  UNL1        0.0203
      2 C           4.1709   -2.4937   18.7435 C.ar    1  UNL1        0.0310
      3 C           4.3368   -3.8988   19.2415 C.ar    1  UNL1        0.1414
      4 F           4.3234   -5.0442   18.2731 F       1  UNL1       -0.2041
      5 C           4.5161   -4.1585   20.7080 C.ar    1  UNL1        0.0440
      6 C           4.5295   -3.0131   21.6764 C.ar    1  UNL1        0.0488
      7 C           4.3636   -1.6079   21.1783 C.ar    1  UNL1       -0.0067
      8 C           4.3770   -0.4624   22.1467 C.3     1  UNL1        0.0324
      9 C           2.6466    0.6503   19.0860 C.ar    1  UNL1        0.1870
     10 C           2.4807    2.0554   18.5880 C.ar    1  UNL1        0.1629
     11 N           1.1089    2.6488   18.4601 N.pl3   1  UNL1       -0.3401
     12 N           3.6865    2.8672   18.2177 N.ar    1  UNL1       -0.2063
     13 C           5.0582    2.2739   18.3456 C.ar    1  UNL1        0.2002
     14 N           5.2241    0.8688   18.8436 N.ar    1  UNL1       -0.2208
     15 C           4.0183    0.0570   19.2138 C.ar    1  UNL1        0.1194
     16 H           0.3175    2.1160   18.7031 H       1  UNL1        0.1438
     17 H           1.0001    3.5710   18.1332 H       1  UNL1        0.1438
     18 O           1.4408   -0.1615   19.4562 O.3     1  UNL1       -0.4693
     19 C           0.7522    0.0737   20.7679 C.3     1  UNL1        0.2270
     20 C           1.3489    1.0173   21.7697 C.3     1  UNL1        0.1409
     21 C          -0.3807    2.8465   22.4118 C.2     1  UNL1        0.2493
     22 O          -0.3593    3.3613   21.0031 O.2     1  UNL1       -0.2699
     23 N           0.4733    1.6745   22.7951 N.am    1  UNL1       -0.2722
     24 C          -2.7201    3.6875   23.1667 C.2     1  UNL1        0.0048
     25 C          -1.2563    3.5038   23.4373 C.2     1  UNL1        0.0580
     26 C           0.4519    1.1597   24.2038 C.3     1  UNL1        0.0939
     27 C           1.7277    1.0636   24.9868 C.3     1  UNL1        0.0233
     28 N           4.7089   -3.2727   23.1428 N.am    1  UNL1       -0.2805
     29 C           6.0866   -3.4402   23.7118 C.2     1  UNL1        0.2517
     30 O           7.2850   -3.3480   22.8143 O.2     1  UNL1       -0.2697
     31 H           3.9223   -3.3333   23.7318 H       1  UNL1        0.1552
     32 C           6.2660   -3.6999   25.1782 C.ar    1  UNL1        0.0810
     33 C           6.7648   -5.0342   25.6481 C.ar    1  UNL1        0.0065
     34 C           6.9441   -5.2938   27.1145 C.ar    1  UNL1       -0.0040
     35 C           6.6247   -4.2192   28.1110 C.ar    1  UNL1       -0.0203
     36 C           6.1260   -2.8849   27.6411 C.ar    1  UNL1        0.0255
     37 C           5.9466   -2.6252   26.1748 C.ar    1  UNL1        0.1441
     38 F           5.4478   -1.2909   25.7048 F       1  UNL1       -0.2040
     39 C           6.8041   -4.4789   29.5775 C.3     1  UNL1        0.0224
     40 C           6.8316   -3.9789   30.9914 C.3     1  UNL1        0.0047
     41 C           7.0874   -5.4286   30.7035 C.3     1  UNL1        0.0047
@<TRIPOS>BOND
     1    24    25    2
     2    25    21    1
     3    21    22    2
     4    21    23   am
     5    23    26    1
     6    26    27    1
     7    23    20    1
     8    20    19    1
     9    19    18    1
    10    18     9    1
    11     9    10   ar
    12    10    11    1
    13    10    12   ar
    14    12    13   ar
    15    13    14   ar
    16    14    15   ar
    17    15     1    1
    18     1     2   ar
    19     2     3   ar
    20     3     4    1
    21     3     5   ar
    22     5     6   ar
    23     6    28    1
    24    28    29   am
    25    29    30    2
    26    29    32    1
    27    32    33   ar
    28    33    34   ar
    29    34    35   ar
    30    35    39    1
    31    39    40    1
    32    40    41    1
    33    35    36   ar
    34    36    37   ar
    35    37    38    1
    36     6     7   ar
    37     7     8    1
    38    15     9   ar
    39     7     1   ar
    40    37    32   ar
    41    41    39    1
    42    11    16    1
    43    11    17    1
    44    28    31    1
@<TRIPOS>MOLECULE
*****
 41 44 0 0 0
SMALL
GASTEIGER

@<TRIPOS>ATOM
      1 C           3.5292   -0.3625   19.3083 C.ar    1  UNL1        0.0203
      2 C           4.5012    0.6078   18.7052 C.ar    1  UNL1        0.0310
      3 C           4.0551    1.9965   18.3552 C.ar    1  UNL1        0.1414
      4 F           5.0271    2.9668   17.7521 F       1  UNL1       -0.2041
      5 C           2.6370    2.4149   18.6082 C.ar    1  UNL1        0.0440
      6 C           1.6650    1.4445   19.2113 C.ar    1  UNL1        0.0488
      7 C           2.1111    0.0558   19.5613 C.ar    1  UNL1       -0.0067
      8 C           1.1392   -0.9146   20.1644 C.3     1  UNL1        0.0324
      9 C           4.3869   -2.0749   21.0639 C.ar    1  UNL1        0.1870
     10 C           4.8330   -3.4636   21.4139 C.ar    1  UNL1        0.1629
     11 N           5.2445   -3.7873   22.8196 N.pl3   1  UNL1       -0.3401
     12 N           4.8676   -4.5286   20.3582 N.ar    1  UNL1       -0.2063
     13 C           4.4561   -4.2050   18.9526 C.ar    1  UNL1        0.2002
     14 N           4.0100   -2.8163   18.6026 N.ar    1  UNL1       -0.2208
     15 C           3.9754   -1.7513   19.6583 C.ar    1  UNL1        0.1194
     16 H           5.2218   -3.0882   23.5125 H       1  UNL1        0.1438
     17 H           5.5373   -4.6987   23.0493 H       1  UNL1        0.1438
     18 O           4.3522   -1.0099   22.1196 O.3     1  UNL1       -0.4693
     19 C           3.1771   -0.9105   23.0465 C.3     1  UNL1        0.2270
     20 C           3.3190   -0.2097   24.3651 C.3     1  UNL1        0.1409
     21 C           4.2748    2.1950   24.1321 C.2     1  UNL1        0.2493
     22 O           5.6045    1.6277   23.7320 O.2     1  UNL1       -0.2699
     23 N           3.1321    1.2763   24.4486 N.am    1  UNL1       -0.2722
     24 C           3.9635    4.4930   22.9605 C.2     1  UNL1        0.0048
     25 C           4.0879    3.6810   24.2156 C.2     1  UNL1        0.0580
     26 C           1.8024    1.8436   24.8487 C.3     1  UNL1        0.0939
     27 C           0.5366    1.2081   24.3550 C.3     1  UNL1        0.0233
     28 N           0.2469    1.8628   19.4643 N.am    1  UNL1       -0.2805
     29 C          -0.0719    2.7790   20.6084 C.2     1  UNL1        0.2517
     30 O           1.0273    3.2768   21.4994 O.2     1  UNL1       -0.2697
     31 H          -0.4745    1.5361   18.8795 H       1  UNL1        0.1552
     32 C          -1.4901    3.1973   20.8615 C.ar    1  UNL1        0.0810
     33 C          -2.0299    3.2101   22.2609 C.ar    1  UNL1        0.0065
     34 C          -3.4479    3.6285   22.5139 C.ar    1  UNL1       -0.0040
     35 C          -4.3262    4.0340   21.3675 C.ar    1  UNL1       -0.0203
     36 C          -3.7864    4.0213   19.9681 C.ar    1  UNL1        0.0255
     37 C          -2.3683    3.6029   19.7151 C.ar    1  UNL1        0.1441
     38 F          -1.8284    3.5901   18.3156 F       1  UNL1       -0.2040
     39 C          -5.7443    4.4524   21.6206 C.3     1  UNL1        0.0224
     40 C          -6.9665    5.2173   21.2071 C.3     1  UNL1        0.0047
     41 C          -6.9782    4.4121   22.4725 C.3     1  UNL1        0.0047
@<TRIPOS>BOND
     1    24    25    2
     2    25    21    1
     3    21    22    2
     4    21    23   am
     5    23    26    1
     6    26    27    1
     7    23    20    1
     8    20    19    1
     9    19    18    1
    10    18     9    1
    11     9    10   ar
    12    10    11    1
    13    10    12   ar
    14    12    13   ar
    15    13    14   ar
    16    14    15   ar
    17    15     1    1
    18     1     2   ar
    19     2     3   ar
    20     3     4    1
    21     3     5   ar
    22     5     6   ar
    23     6    28    1
    24    28    29   am
    25    29    30    2
    26    29    32    1
    27    32    33   ar
    28    33    34   ar
    29    34    35   ar
    30    35    39    1
    31    39    40    1
    32    40    41    1
    33    35    36   ar
    34    36    37   ar
    35    37    38    1
    36     6     7   ar
    37     7     8    1
    38    15     9   ar
    39     7     1   ar
    40    37    32   ar
    41    41    39    1
    42    11    16    1
    43    11    17    1
    44    28    31    1
@<TRIPOS>MOLECULE
*****
 41 44 0 0 0
SMALL
GASTEIGER

@<TRIPOS>ATOM
      1 C           6.0772   -1.2154   27.7416 C.ar    1  UNL1        0.0203
      2 C           7.2099   -0.3534   28.2147 C.ar    1  UNL1        0.0310
      3 C           6.9551    1.0721   28.6054 C.ar    1  UNL1        0.1414
      4 F           8.0878    1.9342   29.0785 F       1  UNL1       -0.2041
      5 C           5.5674    1.6358   28.5231 C.ar    1  UNL1        0.0440
      6 C           4.4346    0.7737   28.0501 C.ar    1  UNL1        0.0488
      7 C           4.6896   -0.6519   27.6593 C.ar    1  UNL1       -0.0067
      8 C           3.5568   -1.5139   27.1862 C.3     1  UNL1        0.0324
      9 C           6.7574   -2.9704   25.9506 C.ar    1  UNL1        0.1870
     10 C           7.0123   -4.3959   25.5599 C.ar    1  UNL1        0.1629
     11 N           7.4376   -4.7253   24.1596 N.pl3   1  UNL1       -0.3401
     12 N           6.8420   -5.4922   26.5694 N.ar    1  UNL1       -0.2063
     13 C           6.4167   -5.1630   27.9696 C.ar    1  UNL1        0.2002
     14 N           6.1618   -3.7374   28.3603 N.ar    1  UNL1       -0.2208
     15 C           6.3321   -2.6411   27.3508 C.ar    1  UNL1        0.1194
     16 H           7.5494   -4.0058   23.4970 H       1  UNL1        0.1438
     17 H           7.6049   -5.6610   23.9031 H       1  UNL1        0.1438
     18 O           6.9277   -1.8741   24.9411 O.3     1  UNL1       -0.4693
     19 C           5.7541   -1.4143   24.1279 C.3     1  UNL1        0.2270
     20 C           4.6878   -2.3917   23.7308 C.3     1  UNL1        0.1409
     21 C           4.5466   -3.4048   21.3425 C.2     1  UNL1        0.2493
     22 O           5.5267   -4.4697   21.7363 O.2     1  UNL1       -0.2699
     23 N           4.1271   -2.3657   22.3397 N.am    1  UNL1       -0.2722
     24 C           3.4301   -4.6323   19.3434 C.2     1  UNL1        0.0048
     25 C           3.9859   -3.3788   19.9514 C.2     1  UNL1        0.0580
     26 C           3.1469   -1.3008   21.9459 C.3     1  UNL1        0.0939
     27 C           3.6389    0.0043   21.3940 C.3     1  UNL1        0.0233
     28 N           3.0470    1.3373   27.9678 N.am    1  UNL1       -0.2805
     29 C           2.5231    1.8524   26.6601 C.2     1  UNL1        0.2517
     30 O           3.3868    1.8040   25.4347 O.2     1  UNL1       -0.2697
     31 H           2.4801    1.3691   28.7720 H       1  UNL1        0.1552
     32 C           1.1354    2.4160   26.5777 C.ar    1  UNL1        0.0810
     33 C           0.7314    3.5486   27.4743 C.ar    1  UNL1        0.0065
     34 C          -0.6562    4.1122   27.3919 C.ar    1  UNL1       -0.0040
     35 C          -1.6399    3.5431   26.4129 C.ar    1  UNL1       -0.0203
     36 C          -1.2360    2.4105   25.5163 C.ar    1  UNL1        0.0255
     37 C           0.1517    1.8469   25.5987 C.ar    1  UNL1        0.1441
     38 F           0.5557    0.7143   24.7020 F       1  UNL1       -0.2040
     39 C          -3.0276    4.1067   26.3306 C.3     1  UNL1        0.0224
     40 C          -4.0887    4.8396   25.5644 C.3     1  UNL1        0.0047
     41 C          -4.3701    4.3499   26.9540 C.3     1  UNL1        0.0047
@<TRIPOS>BOND
     1    24    25    2
     2    25    21    1
     3    21    22    2
     4    21    23   am
     5    23    26    1
     6    26    27    1
     7    23    20    1
     8    20    19    1
     9    19    18    1
    10    18     9    1
    11     9    10   ar
    12    10    11    1
    13    10    12   ar
    14    12    13   ar
    15    13    14   ar
    16    14    15   ar
    17    15     1    1
    18     1     2   ar
    19     2     3   ar
    20     3     4    1
    21     3     5   ar
    22     5     6   ar
    23     6    28    1
    24    28    29   am
    25    29    30    2
    26    29    32    1
    27    32    33   ar
    28    33    34   ar
    29    34    35   ar
    30    35    39    1
    31    39    40    1
    32    40    41    1
    33    35    36   ar
    34    36    37   ar
    35    37    38    1
    36     6     7   ar
    37     7     8    1
    38    15     9   ar
    39     7     1   ar
    40    37    32   ar
    41    41    39    1
    42    11    16    1
    43    11    17    1
    44    28    31    1
@<TRIPOS>MOLECULE
*****
 41 44 0 0 0
SMALL
GASTEIGER

@<TRIPOS>ATOM
      1 C           3.8013   -0.1238   21.1429 C.ar    1  UNL1        0.0203
      2 C           4.9314    0.8159   21.4427 C.ar    1  UNL1        0.0310
      3 C           4.6730    2.2896   21.5502 C.ar    1  UNL1        0.1414
      4 F           5.8031    3.2293   21.8499 F       1  UNL1       -0.2041
      5 C           3.2845    2.8235   21.3580 C.ar    1  UNL1        0.0440
      6 C           2.1544    1.8838   21.0583 C.ar    1  UNL1        0.0488
      7 C           2.4129    0.4101   20.9507 C.ar    1  UNL1       -0.0067
      8 C           1.2828   -0.5296   20.6510 C.3     1  UNL1        0.0324
      9 C           4.2312   -2.2325   19.6873 C.ar    1  UNL1        0.1870
     10 C           4.4897   -3.7061   19.5798 C.ar    1  UNL1        0.1629
     11 N           4.6611   -4.3411   18.2317 N.pl3   1  UNL1       -0.3401
     12 N           4.5767   -4.5447   20.8205 N.ar    1  UNL1       -0.2063
     13 C           4.4052   -3.9097   22.1685 C.ar    1  UNL1        0.2002
     14 N           4.1468   -2.4361   22.2760 N.ar    1  UNL1       -0.2208
     15 C           4.0598   -1.5975   21.0354 C.ar    1  UNL1        0.1194
     16 H           4.6040   -3.7907   17.4175 H       1  UNL1        0.1438
     17 H           4.8307   -5.3083   18.1612 H       1  UNL1        0.1438
     18 O           4.1442   -1.3938   18.4467 O.3     1  UNL1       -0.4693
     19 C           5.3933   -1.0187   17.7059 C.3     1  UNL1        0.2270
     20 C           5.3861    0.1517   16.7678 C.3     1  UNL1        0.1409
     21 C           5.0136    2.4810   17.8567 C.2     1  UNL1        0.2493
     22 O           3.5605    2.1602   18.0458 O.2     1  UNL1       -0.2699
     23 N           5.9264    1.4768   17.2177 N.am    1  UNL1       -0.2722
     24 C           4.8143    5.0687   17.9766 C.2     1  UNL1        0.0048
     25 C           5.5538    3.8061   18.3067 C.2     1  UNL1        0.0580
     26 C           7.3794    1.7977   17.0287 C.3     1  UNL1        0.0939
     27 C           8.3877    1.3318   18.0367 C.3     1  UNL1        0.0233
     28 N           0.7659    2.4178   20.8661 N.am    1  UNL1       -0.2805
     29 C          -0.1531    2.5584   22.0432 C.2     1  UNL1        0.2517
     30 O           0.3163    2.1650   23.4124 O.2     1  UNL1       -0.2697
     31 H           0.4578    2.6759   19.9674 H       1  UNL1        0.1552
     32 C          -1.5417    3.0923   21.8510 C.ar    1  UNL1        0.0810
     33 C          -2.1466    3.1323   20.4790 C.ar    1  UNL1        0.0065
     34 C          -3.5351    3.6663   20.2869 C.ar    1  UNL1       -0.0040
     35 C          -4.3187    4.1601   21.4668 C.ar    1  UNL1       -0.0203
     36 C          -3.7138    4.1201   22.8388 C.ar    1  UNL1        0.0255
     37 C          -2.3253    3.5862   23.0309 C.ar    1  UNL1        0.1441
     38 F          -1.7202    3.5461   24.4029 F       1  UNL1       -0.2040
     39 C          -5.7073    4.6941   21.2746 C.3     1  UNL1        0.0224
     40 C          -6.7759    5.2406   20.3751 C.3     1  UNL1        0.0047
     41 C          -7.0436    5.0724   21.8414 C.3     1  UNL1        0.0047
@<TRIPOS>BOND
     1    24    25    2
     2    25    21    1
     3    21    22    2
     4    21    23   am
     5    23    26    1
     6    26    27    1
     7    23    20    1
     8    20    19    1
     9    19    18    1
    10    18     9    1
    11     9    10   ar
    12    10    11    1
    13    10    12   ar
    14    12    13   ar
    15    13    14   ar
    16    14    15   ar
    17    15     1    1
    18     1     2   ar
    19     2     3   ar
    20     3     4    1
    21     3     5   ar
    22     5     6   ar
    23     6    28    1
    24    28    29   am
    25    29    30    2
    26    29    32    1
    27    32    33   ar
    28    33    34   ar
    29    34    35   ar
    30    35    39    1
    31    39    40    1
    32    40    41    1
    33    35    36   ar
    34    36    37   ar
    35    37    38    1
    36     6     7   ar
    37     7     8    1
    38    15     9   ar
    39     7     1   ar
    40    37    32   ar
    41    41    39    1
    42    11    16    1
    43    11    17    1
    44    28    31    1
@<TRIPOS>MOLECULE
*****
 41 44 0 0 0
SMALL
GASTEIGER

@<TRIPOS>ATOM
      1 C           3.3317   -0.3052   19.3439 C.ar    1  UNL1        0.0203
      2 C           4.2795    0.6358   18.6611 C.ar    1  UNL1        0.0310
      3 C           3.8291    2.0186   18.2939 C.ar    1  UNL1        0.1414
      4 F           4.7769    2.9596   17.6111 F       1  UNL1       -0.2041
      5 C           2.4308    2.4605   18.6096 C.ar    1  UNL1        0.0440
      6 C           1.4830    1.5195   19.2924 C.ar    1  UNL1        0.0488
      7 C           1.9335    0.1366   19.6595 C.ar    1  UNL1       -0.0067
      8 C           0.9857   -0.8044   20.3424 C.3     1  UNL1        0.0324
      9 C           4.1764   -1.9979   21.1248 C.ar    1  UNL1        0.1870
     10 C           4.6269   -3.3807   21.4919 C.ar    1  UNL1        0.1629
     11 N           5.0211   -3.6906   22.9056 N.pl3   1  UNL1       -0.3401
     12 N           4.6832   -4.4538   20.4452 N.ar    1  UNL1       -0.2063
     13 C           4.2890   -4.1440   19.0315 C.ar    1  UNL1        0.2002
     14 N           3.8385   -2.7612   18.6644 N.ar    1  UNL1       -0.2208
     15 C           3.7822   -1.6881   19.7111 C.ar    1  UNL1        0.1194
     16 H           4.9841   -2.9863   23.5926 H       1  UNL1        0.1438
     17 H           5.3167   -4.5982   23.1466 H       1  UNL1        0.1438
     18 O           4.1201   -0.9248   22.1714 O.3     1  UNL1       -0.4693
     19 C           5.3738   -0.2108   22.5817 C.3     1  UNL1        0.2270
     20 C           6.3407    0.2662   21.5389 C.3     1  UNL1        0.1409
     21 C           5.5666    2.7463   21.5297 C.2     1  UNL1        0.2493
     22 O           4.1494    2.3048   21.7452 O.2     1  UNL1       -0.2699
     23 N           6.6623    1.7271   21.4265 N.am    1  UNL1       -0.2722
     24 C           5.3587    5.0050   20.2627 C.2     1  UNL1        0.0048
     25 C           5.8882    4.2072   21.4173 C.2     1  UNL1        0.0580
     26 C           8.0795    2.1686   21.2109 C.3     1  UNL1        0.0939
     27 C           8.7688    1.8701   19.9126 C.3     1  UNL1        0.0233
     28 N           0.0848    1.9614   19.6080 N.am    1  UNL1       -0.2805
     29 C          -0.1879    2.7575   20.8497 C.2     1  UNL1        0.2517
     30 O           0.9377    3.1118   21.7757 O.2     1  UNL1       -0.2697
     31 H          -0.6540    1.7288   19.0003 H       1  UNL1        0.1552
     32 C          -1.5862    3.1994   21.1654 C.ar    1  UNL1        0.0810
     33 C          -2.6006    3.3202   20.0671 C.ar    1  UNL1        0.0065
     34 C          -3.9987    3.7620   20.3829 C.ar    1  UNL1       -0.0040
     35 C          -4.3826    4.0831   21.7969 C.ar    1  UNL1       -0.0203
     36 C          -3.3682    3.9623   22.8953 C.ar    1  UNL1        0.0255
     37 C          -1.9700    3.5204   22.5795 C.ar    1  UNL1        0.1441
     38 F          -0.9555    3.3996   23.6779 F       1  UNL1       -0.2040
     39 C          -5.7808    4.5250   22.1127 C.3     1  UNL1        0.0224
     40 C          -7.1140    4.2622   22.7478 C.3     1  UNL1        0.0047
     41 C          -6.8695    5.5531   22.0243 C.3     1  UNL1        0.0047
@<TRIPOS>BOND
     1    24    25    2
     2    25    21    1
     3    21    22    2
     4    21    23   am
     5    23    26    1
     6    26    27    1
     7    23    20    1
     8    20    19    1
     9    19    18    1
    10    18     9    1
    11     9    10   ar
    12    10    11    1
    13    10    12   ar
    14    12    13   ar
    15    13    14   ar
    16    14    15   ar
    17    15     1    1
    18     1     2   ar
    19     2     3   ar
    20     3     4    1
    21     3     5   ar
    22     5     6   ar
    23     6    28    1
    24    28    29   am
    25    29    30    2
    26    29    32    1
    27    32    33   ar
    28    33    34   ar
    29    34    35   ar
    30    35    39    1
    31    39    40    1
    32    40    41    1
    33    35    36   ar
    34    36    37   ar
    35    37    38    1
    36     6     7   ar
    37     7     8    1
    38    15     9   ar
    39     7     1   ar
    40    37    32   ar
    41    41    39    1
    42    11    16    1
    43    11    17    1
    44    28    31    1
