@<TRIPOS>MOLECULE
*****
 35 40 0 0 0
SMALL
GASTEIGER

@<TRIPOS>ATOM
      1 C          -0.3277    3.2456   19.9091 C.ar    1  UNL1        0.0944
      2 C           0.1849    2.2891   18.8736 C.ar    1  UNL1        0.0977
      3 N           1.1281    1.3376   19.5480 N.ar    1  UNL1       -0.2840
      4 C           1.9321    0.1833   19.0272 C.ar    1  UNL1        0.1004
      5 C           2.8064   -0.6027   19.9589 C.ar    1  UNL1        0.0971
      6 N           2.8767   -0.2343   21.4112 N.ar    1  UNL1       -0.2264
      7 C           2.0728    0.9200   21.9320 C.ar    1  UNL1        0.1666
      8 C           1.1985    1.7060   21.0004 C.ar    1  UNL1        0.1797
      9 N           0.2988    2.8852   21.2236 N.ar    1  UNL1       -0.2268
     10 C           3.6104   -1.7571   19.4382 C.2     1  UNL1        0.0081
     11 C           3.1544   -3.1635   19.6915 C.2     1  UNL1       -0.0020
     12 C           3.9583   -4.3178   19.1708 C.2     1  UNL1        0.0010
     13 C           5.2182   -4.0658   18.3967 C.2     1  UNL1        0.0172
     14 C           5.6741   -2.6594   18.1433 C.2     1  UNL1        0.0900
     15 N           6.8647   -2.1054   17.4182 N.2     1  UNL1       -0.1519
     16 N           6.7965   -0.6087   17.4908 N.2     1  UNL1       -0.1507
     17 C           5.5639   -0.2377   18.2608 C.2     1  UNL1        0.1058
     18 C           4.8702   -1.5050   18.6640 C.3     1  UNL1        0.1088
     19 N           2.1432    1.2884   23.3843 N.pl3   1  UNL1       -0.2857
     20 C           0.9674    1.0340   24.2805 C.3     1  UNL1        0.1243
     21 C           1.0378    1.4023   25.7328 C.3     1  UNL1        0.1636
     22 O           2.2838    2.0252   26.2891 O.3     1  UNL1       -0.3501
     23 C           3.4595    2.2796   25.3930 C.3     1  UNL1        0.1636
     24 C           3.3892    1.9113   23.9406 C.3     1  UNL1        0.1243
     25 C          -1.2966    4.3658   19.6719 C.3     1  UNL1        0.1203
     26 N          -5.1950    4.4821   21.9169 N.3     1  UNL1       -0.1565
     27 C          -4.8174    3.2606   21.1325 C.3     1  UNL1        0.1128
     28 C          -3.5179    3.2219   20.3842 C.3     1  UNL1        0.0918
     29 N          -2.5960    4.4046   20.4202 N.3     1  UNL1       -0.2651
     30 C          -2.9737    5.6262   21.2047 C.3     1  UNL1        0.0918
     31 C          -4.2731    5.6649   21.9529 C.3     1  UNL1        0.1128
     32 C          -7.7938    4.5597   23.4134 C.3     1  UNL1        0.1960
     33 S          -6.4944    4.5209   22.6652 S.O2    1  UNL1        0.0457
     34 O          -5.8109    3.9683   23.8807 O.2     1  UNL1       -0.1572
     35 O          -7.1779    5.0735   21.4497 O.2     1  UNL1       -0.1572
@<TRIPOS>BOND
     1    32    33    1
     2    33    34    2
     3    33    35    2
     4    33    26    1
     5    26    27    1
     6    27    28    1
     7    28    29    1
     8    29    25    1
     9    25     1    1
    10     1     2   ar
    11     2     3   ar
    12     3     4   ar
    13     4     5   ar
    14     5    10    1
    15    10    11    2
    16    11    12    1
    17    12    13    2
    18    13    14    1
    19    14    15    2
    20    15    16    1
    21    16    17    2
    22    17    18    1
    23     5     6   ar
    24     6     7   ar
    25     7    19    1
    26    19    20    1
    27    20    21    1
    28    21    22    1
    29    22    23    1
    30    23    24    1
    31     7     8   ar
    32     8     9   ar
    33    29    30    1
    34    30    31    1
    35    31    26    1
    36     9     1   ar
    37     8     3   ar
    38    18    10    1
    39    24    19    1
    40    18    14    1
@<TRIPOS>MOLECULE
*****
 35 40 0 0 0
SMALL
GASTEIGER

@<TRIPOS>ATOM
      1 C           0.2982    2.6266   23.0473 C.ar    1  UNL1        0.0944
      2 C           0.9791    1.2948   23.1598 C.ar    1  UNL1        0.0977
      3 N           1.5558    0.9542   21.8177 N.ar    1  UNL1       -0.2840
      4 C           2.3346   -0.2321   21.3316 C.ar    1  UNL1        0.1004
      5 C           2.7888   -0.2971   19.9035 C.ar    1  UNL1        0.0971
      6 N           2.4642    0.8241   18.9615 N.ar    1  UNL1       -0.2264
      7 C           1.6855    2.0104   19.4475 C.ar    1  UNL1        0.1666
      8 C           1.2313    2.0755   20.8756 C.ar    1  UNL1        0.1797
      9 N           0.4540    3.1091   21.6355 N.ar    1  UNL1       -0.2268
     10 C           3.5675   -1.4834   19.4174 C.2     1  UNL1        0.0081
     11 C           3.0797   -2.8715   19.7092 C.2     1  UNL1       -0.0020
     12 C           3.8584   -4.0578   19.2232 C.2     1  UNL1        0.0010
     13 C           5.1250   -3.8560   18.4453 C.2     1  UNL1        0.0172
     14 C           5.6128   -2.4679   18.1535 C.2     1  UNL1        0.0900
     15 N           6.8168   -1.9614   17.4160 N.2     1  UNL1       -0.1519
     16 N           6.7822   -0.4621   17.4462 N.2     1  UNL1       -0.1507
     17 C           5.5568   -0.0420   18.2024 C.2     1  UNL1        0.1058
     18 C           4.8341   -1.2816   18.6395 C.3     1  UNL1        0.1088
     19 N           1.3609    3.1317   18.5054 N.pl3   1  UNL1       -0.2857
     20 C          -0.0258    3.2667   17.9496 C.3     1  UNL1        0.1243
     21 C          -0.3504    4.3878   17.0076 C.3     1  UNL1        0.1636
     22 O           0.7118    5.3742   16.6213 O.3     1  UNL1       -0.3501
     23 C           2.0984    5.2392   17.1771 C.3     1  UNL1        0.1636
     24 C           2.4231    4.1179   18.1192 C.3     1  UNL1        0.1243
     25 C          -0.4137    3.3491   24.1524 C.3     1  UNL1        0.1203
     26 N          -4.8419    4.0966   23.8654 N.3     1  UNL1       -0.1565
     27 C          -4.1985    3.9081   25.2073 C.3     1  UNL1        0.1128
     28 C          -2.7224    3.6589   25.3029 C.3     1  UNL1        0.0918
     29 N          -1.8897    3.5983   24.0567 N.3     1  UNL1       -0.2651
     30 C          -2.5332    3.7868   22.7149 C.3     1  UNL1        0.0918
     31 C          -4.0092    4.0360   22.6193 C.3     1  UNL1        0.1128
     32 C          -7.7940    4.5951   23.6741 C.3     1  UNL1        0.1960
     33 S          -6.3179    4.3458   23.7697 S.O2    1  UNL1        0.0457
     34 O          -6.3139    3.8290   22.3616 O.2     1  UNL1       -0.1572
     35 O          -6.3220    4.8626   25.1779 O.2     1  UNL1       -0.1572
@<TRIPOS>BOND
     1    32    33    1
     2    33    34    2
     3    33    35    2
     4    33    26    1
     5    26    27    1
     6    27    28    1
     7    28    29    1
     8    29    25    1
     9    25     1    1
    10     1     2   ar
    11     2     3   ar
    12     3     4   ar
    13     4     5   ar
    14     5    10    1
    15    10    11    2
    16    11    12    1
    17    12    13    2
    18    13    14    1
    19    14    15    2
    20    15    16    1
    21    16    17    2
    22    17    18    1
    23     5     6   ar
    24     6     7   ar
    25     7    19    1
    26    19    20    1
    27    20    21    1
    28    21    22    1
    29    22    23    1
    30    23    24    1
    31     7     8   ar
    32     8     9   ar
    33    29    30    1
    34    30    31    1
    35    31    26    1
    36     9     1   ar
    37     8     3   ar
    38    18    10    1
    39    24    19    1
    40    18    14    1
@<TRIPOS>MOLECULE
*****
 35 40 0 0 0
SMALL
GASTEIGER

@<TRIPOS>ATOM
      1 C           0.4074    2.3679   23.2584 C.ar    1  UNL1        0.0944
      2 C           1.1098    1.0449   23.3379 C.ar    1  UNL1        0.0977
      3 N           1.6455    0.7220   21.9746 N.ar    1  UNL1       -0.2840
      4 C           2.4235   -0.4499   21.4537 C.ar    1  UNL1        0.1004
      5 C           2.8301   -0.4985   20.0106 C.ar    1  UNL1        0.0971
      6 N           2.4588    0.6248   19.0886 N.ar    1  UNL1       -0.2264
      7 C           1.6808    1.7967   19.6095 C.ar    1  UNL1        0.1666
      8 C           1.2742    1.8453   21.0525 C.ar    1  UNL1        0.1797
      9 N           0.5089    2.8625   21.8459 N.ar    1  UNL1       -0.2268
     10 C           3.6082   -1.6704   19.4896 C.2     1  UNL1        0.0081
     11 C           3.1237   -3.0665   19.7471 C.2     1  UNL1       -0.0020
     12 C           3.9016   -4.2384   19.2262 C.2     1  UNL1        0.0010
     13 C           5.1641   -4.0142   18.4478 C.2     1  UNL1        0.0172
     14 C           5.6486   -2.6182   18.1903 C.2     1  UNL1        0.0900
     15 N           6.8483   -2.0906   17.4606 N.2     1  UNL1       -0.1519
     16 N           6.8118   -0.5927   17.5305 N.2     1  UNL1       -0.1507
     17 C           5.5895   -0.1945   18.3035 C.2     1  UNL1        0.1058
     18 C           4.8707   -1.4463   18.7113 C.3     1  UNL1        0.1088
     19 N           1.3094    2.9200   18.6874 N.pl3   1  UNL1       -0.2857
     20 C           2.3107    3.9903   18.3679 C.3     1  UNL1        0.1243
     21 C           1.9394    5.1136   17.4458 C.3     1  UNL1        0.1636
     22 O           0.5668    5.1667   16.8432 O.3     1  UNL1       -0.3501
     23 C          -0.4344    4.0965   17.1626 C.3     1  UNL1        0.1636
     24 C          -0.0632    2.9731   18.0848 C.3     1  UNL1        0.1243
     25 C          -0.2766    3.0726   24.3923 C.3     1  UNL1        0.1203
     26 N           0.9068    2.1753   28.6402 N.3     1  UNL1       -0.1565
     27 C           1.7650    3.0697   27.7956 C.3     1  UNL1        0.1128
     28 C           1.3705    3.3688   26.3795 C.3     1  UNL1        0.0918
     29 N           0.1178    2.7735   25.8082 N.3     1  UNL1       -0.2651
     30 C          -0.7404    1.8791   26.6530 C.3     1  UNL1        0.0918
     31 C          -0.3459    1.5800   28.0689 C.3     1  UNL1        0.1128
     32 C           1.6955    1.5771   31.4721 C.3     1  UNL1        0.1960
     33 S           1.3012    1.8762   30.0562 S.O2    1  UNL1        0.0457
     34 O           2.4648    2.8144   29.9302 O.2     1  UNL1       -0.1572
     35 O           0.1376    0.9380   30.1821 O.2     1  UNL1       -0.1572
@<TRIPOS>BOND
     1    32    33    1
     2    33    34    2
     3    33    35    2
     4    33    26    1
     5    26    27    1
     6    27    28    1
     7    28    29    1
     8    29    25    1
     9    25     1    1
    10     1     2   ar
    11     2     3   ar
    12     3     4   ar
    13     4     5   ar
    14     5    10    1
    15    10    11    2
    16    11    12    1
    17    12    13    2
    18    13    14    1
    19    14    15    2
    20    15    16    1
    21    16    17    2
    22    17    18    1
    23     5     6   ar
    24     6     7   ar
    25     7    19    1
    26    19    20    1
    27    20    21    1
    28    21    22    1
    29    22    23    1
    30    23    24    1
    31     7     8   ar
    32     8     9   ar
    33    29    30    1
    34    30    31    1
    35    31    26    1
    36     9     1   ar
    37     8     3   ar
    38    18    10    1
    39    24    19    1
    40    18    14    1
@<TRIPOS>MOLECULE
*****
 35 40 0 0 0
SMALL
GASTEIGER

@<TRIPOS>ATOM
      1 C           1.0009    1.6590   24.4168 C.ar    1  UNL1        0.0944
      2 C           1.9573    0.5162   24.2451 C.ar    1  UNL1        0.0977
      3 N           2.0652    0.2185   22.7789 N.ar    1  UNL1       -0.2840
      4 C           2.8586   -0.8018   22.0177 C.ar    1  UNL1        0.1004
      5 C           2.7623   -0.8634   20.5220 C.ar    1  UNL1        0.0971
      6 N           1.8726    0.0952   19.7877 N.ar    1  UNL1       -0.2264
      7 C           1.0792    1.1155   20.5489 C.ar    1  UNL1        0.1666
      8 C           1.1754    1.1771   22.0445 C.ar    1  UNL1        0.1797
      9 N           0.5177    2.0674   23.0568 N.ar    1  UNL1       -0.2268
     10 C           3.5558   -1.8837   19.7607 C.2     1  UNL1        0.0081
     11 C           3.1610   -3.3300   19.8099 C.2     1  UNL1       -0.0020
     12 C           3.9544   -4.3503   19.0487 C.2     1  UNL1        0.0010
     13 C           5.1426   -3.9243   18.2383 C.2     1  UNL1        0.0172
     14 C           5.5374   -2.4780   18.1892 C.2     1  UNL1        0.0900
     15 N           6.6518   -1.7652   17.4819 N.2     1  UNL1       -0.1519
     16 N           6.5470   -0.3044   17.8061 N.2     1  UNL1       -0.1507
     17 C           5.3679   -0.1144   18.7136 C.2     1  UNL1        0.1058
     18 C           4.7439   -1.4577   18.9504 C.3     1  UNL1        0.1088
     19 N           0.1894    2.0742   19.8144 N.pl3   1  UNL1       -0.2857
     20 C           0.5357    2.4995   18.4182 C.3     1  UNL1        0.1243
     21 C          -0.3539    3.4581   17.6838 C.3     1  UNL1        0.1636
     22 O          -1.5900    3.9915   18.3455 O.3     1  UNL1       -0.3501
     23 C          -1.9362    3.5662   19.7416 C.3     1  UNL1        0.1636
     24 C          -1.0465    2.6075   20.4761 C.3     1  UNL1        0.1243
     25 C           0.5984    2.2836   25.7198 C.3     1  UNL1        0.1203
     26 N           2.3611    0.7774   29.5766 N.3     1  UNL1       -0.1565
     27 C           3.0982    1.8005   28.7642 C.3     1  UNL1        0.1128
     28 C           2.5106    2.3025   27.4785 C.3     1  UNL1        0.0918
     29 N           1.1859    1.7815   27.0054 N.3     1  UNL1       -0.2651
     30 C           0.4489    0.7585   27.8179 C.3     1  UNL1        0.0918
     31 C           1.0364    0.2565   29.1035 C.3     1  UNL1        0.1128
     32 C           3.5362   -0.2266   32.1477 C.3     1  UNL1        0.1960
     33 S           2.9486    0.2754   30.8622 S.O2    1  UNL1        0.0457
     34 O           2.0362   -0.9142   30.8146 O.2     1  UNL1       -0.1572
     35 O           3.8611    1.4650   30.9097 O.2     1  UNL1       -0.1572
@<TRIPOS>BOND
     1    32    33    1
     2    33    34    2
     3    33    35    2
     4    33    26    1
     5    26    27    1
     6    27    28    1
     7    28    29    1
     8    29    25    1
     9    25     1    1
    10     1     2   ar
    11     2     3   ar
    12     3     4   ar
    13     4     5   ar
    14     5    10    1
    15    10    11    2
    16    11    12    1
    17    12    13    2
    18    13    14    1
    19    14    15    2
    20    15    16    1
    21    16    17    2
    22    17    18    1
    23     5     6   ar
    24     6     7   ar
    25     7    19    1
    26    19    20    1
    27    20    21    1
    28    21    22    1
    29    22    23    1
    30    23    24    1
    31     7     8   ar
    32     8     9   ar
    33    29    30    1
    34    30    31    1
    35    31    26    1
    36     9     1   ar
    37     8     3   ar
    38    18    10    1
    39    24    19    1
    40    18    14    1
@<TRIPOS>MOLECULE
*****
 35 40 0 0 0
SMALL
GASTEIGER

@<TRIPOS>ATOM
      1 C           2.0474    1.9424   23.4691 C.ar    1  UNL1        0.0944
      2 C           0.8781    2.5236   22.7309 C.ar    1  UNL1        0.0977
      3 N          -0.2465    2.6981   23.7080 N.ar    1  UNL1       -0.2840
      4 C          -1.6412    3.2269   23.5491 C.ar    1  UNL1        0.1004
      5 C          -2.5616    3.2823   24.7323 C.ar    1  UNL1        0.0971
      6 N          -2.0874    2.8090   26.0742 N.ar    1  UNL1       -0.2264
      7 C          -0.6927    2.2802   26.2332 C.ar    1  UNL1        0.1666
      8 C           0.2277    2.2248   25.0501 C.ar    1  UNL1        0.1797
      9 N           1.6455    1.7577   24.9024 N.ar    1  UNL1       -0.2268
     10 C          -3.9564    3.8111   24.5733 C.2     1  UNL1        0.0081
     11 C          -4.7169    3.5518   23.3067 C.2     1  UNL1       -0.0020
     12 C          -6.1116    4.0806   23.1477 C.2     1  UNL1        0.0010
     13 C          -6.7457    4.8686   24.2554 C.2     1  UNL1        0.0172
     14 C          -5.9851    5.1279   25.5220 C.2     1  UNL1        0.0900
     15 N          -6.3466    5.8663   26.7767 N.2     1  UNL1       -0.1519
     16 N          -5.1754    5.7939   27.7110 N.2     1  UNL1       -0.1507
     17 C          -4.0900    5.0108   27.0338 C.2     1  UNL1        0.1058
     18 C          -4.5905    4.5991   25.6810 C.3     1  UNL1        0.1088
     19 N          -0.2185    1.8069   27.5752 N.pl3   1  UNL1       -0.2857
     20 C          -0.3839    0.3676   27.9644 C.3     1  UNL1        0.1243
     21 C           0.0903   -0.1057   29.3063 C.3     1  UNL1        0.1636
     22 O           0.7300    0.8602   30.2593 O.3     1  UNL1       -0.3501
     23 C           0.8953    2.2993   29.8702 C.3     1  UNL1        0.1636
     24 C           0.4211    2.7727   28.5281 C.3     1  UNL1        0.1243
     25 C           3.3841    1.6051   22.8778 C.3     1  UNL1        0.1203
     26 N           3.9469   -2.2635   20.6490 N.3     1  UNL1       -0.1565
     27 C           3.6127   -1.0079   19.8994 C.3     1  UNL1        0.1128
     28 C           3.4251    0.2817   20.6425 C.3     1  UNL1        0.0918
     29 N           3.5717    0.3156   22.1349 N.3     1  UNL1       -0.2651
     30 C           3.9059   -0.9401   22.8844 C.3     1  UNL1        0.0918
     31 C           4.0934   -2.2296   22.1414 C.3     1  UNL1        0.1128
     32 C           4.3221   -4.8424   19.1630 C.3     1  UNL1        0.1960
     33 S           4.1345   -3.5530   19.9060 S.O2    1  UNL1        0.0457
     34 O           4.3788   -4.2649   21.2035 O.2     1  UNL1       -0.1572
     35 O           3.8902   -2.8410   18.6086 O.2     1  UNL1       -0.1572
@<TRIPOS>BOND
     1    32    33    1
     2    33    34    2
     3    33    35    2
     4    33    26    1
     5    26    27    1
     6    27    28    1
     7    28    29    1
     8    29    25    1
     9    25     1    1
    10     1     2   ar
    11     2     3   ar
    12     3     4   ar
    13     4     5   ar
    14     5    10    1
    15    10    11    2
    16    11    12    1
    17    12    13    2
    18    13    14    1
    19    14    15    2
    20    15    16    1
    21    16    17    2
    22    17    18    1
    23     5     6   ar
    24     6     7   ar
    25     7    19    1
    26    19    20    1
    27    20    21    1
    28    21    22    1
    29    22    23    1
    30    23    24    1
    31     7     8   ar
    32     8     9   ar
    33    29    30    1
    34    30    31    1
    35    31    26    1
    36     9     1   ar
    37     8     3   ar
    38    18    10    1
    39    24    19    1
    40    18    14    1
@<TRIPOS>MOLECULE
*****
 35 40 0 0 0
SMALL
GASTEIGER

@<TRIPOS>ATOM
      1 C           3.7580   -0.1058   26.5255 C.ar    1  UNL1        0.0944
      2 C           3.2555   -0.1545   25.1130 C.ar    1  UNL1        0.0977
      3 N           4.0530   -1.1869   24.3727 N.ar    1  UNL1       -0.2840
      4 C           4.0015   -1.6665   22.9524 C.ar    1  UNL1        0.1004
      5 C           4.9454   -2.7355   22.4871 C.ar    1  UNL1        0.0971
      6 N           5.9408   -3.3247   23.4419 N.ar    1  UNL1       -0.2264
      7 C           5.9923   -2.8451   24.8623 C.ar    1  UNL1        0.1666
      8 C           5.0485   -1.7762   25.3276 C.ar    1  UNL1        0.1797
      9 N           4.8661   -1.1080   26.6582 N.ar    1  UNL1       -0.2268
     10 C           4.8938   -3.2151   21.0667 C.2     1  UNL1        0.0081
     11 C           3.9799   -4.3429   20.6886 C.2     1  UNL1       -0.0020
     12 C           3.9283   -4.8225   19.2683 C.2     1  UNL1        0.0010
     13 C           4.7907   -4.1744   18.2261 C.2     1  UNL1        0.0172
     14 C           5.7046   -3.0467   18.6041 C.2     1  UNL1        0.0900
     15 N           6.6641   -2.2197   17.8006 N.2     1  UNL1       -0.1519
     16 N           7.3086   -1.2291   18.7242 N.2     1  UNL1       -0.1507
     17 C           6.7475   -1.4437   20.0987 C.2     1  UNL1        0.1058
     18 C           5.7562   -2.5670   20.0244 C.3     1  UNL1        0.1088
     19 N           6.9878   -3.4344   25.8172 N.pl3   1  UNL1       -0.2857
     20 C           6.8517   -4.8624   26.2559 C.3     1  UNL1        0.1243
     21 C           7.8471   -5.4517   27.2108 C.3     1  UNL1        0.1636
     22 O           8.9786   -4.6130   27.7270 O.3     1  UNL1       -0.3501
     23 C           9.1146   -3.1851   27.2883 C.3     1  UNL1        0.1636
     24 C           8.1192   -2.5957   26.3334 C.3     1  UNL1        0.1243
     25 C           3.2428    0.7882   27.6142 C.3     1  UNL1        0.1203
     26 N           4.1522   -0.1551   31.9192 N.3     1  UNL1       -0.1565
     27 C           4.9929    0.8401   31.1758 C.3     1  UNL1        0.1128
     28 C           4.6897    1.1545   29.7407 C.3     1  UNL1        0.0918
     29 N           3.5459    0.4738   29.0492 N.3     1  UNL1       -0.2651
     30 C           2.7052   -0.5215   29.7927 C.3     1  UNL1        0.0918
     31 C           3.0084   -0.8359   31.2277 C.3     1  UNL1        0.1128
     32 C           4.7584   -0.7840   34.7892 C.3     1  UNL1        0.1960
     33 S           4.4553   -0.4696   33.3542 S.O2    1  UNL1        0.0457
     34 O           3.7496   -1.7859   33.2148 O.2     1  UNL1       -0.1572
     35 O           5.1610    0.8466   33.4936 O.2     1  UNL1       -0.1572
@<TRIPOS>BOND
     1    32    33    1
     2    33    34    2
     3    33    35    2
     4    33    26    1
     5    26    27    1
     6    27    28    1
     7    28    29    1
     8    29    25    1
     9    25     1    1
    10     1     2   ar
    11     2     3   ar
    12     3     4   ar
    13     4     5   ar
    14     5    10    1
    15    10    11    2
    16    11    12    1
    17    12    13    2
    18    13    14    1
    19    14    15    2
    20    15    16    1
    21    16    17    2
    22    17    18    1
    23     5     6   ar
    24     6     7   ar
    25     7    19    1
    26    19    20    1
    27    20    21    1
    28    21    22    1
    29    22    23    1
    30    23    24    1
    31     7     8   ar
    32     8     9   ar
    33    29    30    1
    34    30    31    1
    35    31    26    1
    36     9     1   ar
    37     8     3   ar
    38    18    10    1
    39    24    19    1
    40    18    14    1
@<TRIPOS>MOLECULE
*****
 35 40 0 0 0
SMALL
GASTEIGER

@<TRIPOS>ATOM
      1 C           6.2078   -3.2568   24.6313 C.ar    1  UNL1        0.0944
      2 C           5.3323   -2.0565   24.8378 C.ar    1  UNL1        0.0977
      3 N           5.3023   -1.7517   26.3062 N.ar    1  UNL1       -0.2840
      4 C           4.6054   -0.6834   27.0955 C.ar    1  UNL1        0.1004
      5 C           4.7655   -0.6271   28.5859 C.ar    1  UNL1        0.0971
      6 N           5.6225   -1.6390   29.2869 N.ar    1  UNL1       -0.2264
      7 C           6.3194   -2.7073   28.4976 C.ar    1  UNL1        0.1666
      8 C           6.1593   -2.7637   27.0072 C.ar    1  UNL1        0.1797
      9 N           6.7189   -3.6939   25.9721 N.ar    1  UNL1       -0.2268
     10 C           4.0686    0.4413   29.3752 C.2     1  UNL1        0.0081
     11 C           4.8640    1.5400   30.0157 C.2     1  UNL1       -0.0020
     12 C           4.1671    2.6083   30.8050 C.2     1  UNL1        0.0010
     13 C           2.6748    2.5779   30.9539 C.2     1  UNL1        0.0172
     14 C           1.8794    1.4792   30.3134 C.2     1  UNL1        0.0900
     15 N           0.4079    1.1893   30.2873 N.2     1  UNL1       -0.1519
     16 N           0.1954   -0.0582   29.4819 N.2     1  UNL1       -0.1507
     17 C           1.5355   -0.5393   29.0102 C.2     1  UNL1        0.1058
     18 C           2.5763    0.4109   29.5241 C.3     1  UNL1        0.1088
     19 N           7.1764   -3.7193   29.1987 N.pl3   1  UNL1       -0.2857
     20 C           6.7253   -5.1467   29.2944 C.3     1  UNL1        0.1243
     21 C           7.5822   -6.1587   29.9955 C.3     1  UNL1        0.1636
     22 O           8.8903   -5.7433   30.6008 O.3     1  UNL1       -0.3501
     23 C           9.3414   -4.3160   30.5050 C.3     1  UNL1        0.1636
     24 C           8.4845   -3.3039   29.8040 C.3     1  UNL1        0.1243
     25 C           6.5177   -3.9062   23.3151 C.3     1  UNL1        0.1203
     26 N           4.9533   -2.1109   19.4968 N.3     1  UNL1       -0.1565
     27 C           4.1444   -3.1412   20.2277 C.3     1  UNL1        0.1128
     28 C           4.6659   -3.7396   21.5005 C.3     1  UNL1        0.0918
     29 N           5.9963   -3.3077   22.0424 N.3     1  UNL1       -0.2651
     30 C           6.8052   -2.2775   21.3114 C.3     1  UNL1        0.0918
     31 C           6.2837   -1.6791   20.0386 C.3     1  UNL1        0.1128
     32 C           3.9105   -0.9141   16.9512 C.3     1  UNL1        0.1960
     33 S           4.4319   -1.5125   18.2240 S.O2    1  UNL1        0.0457
     34 O           3.2484   -0.9658   18.9659 O.2     1  UNL1       -0.1572
     35 O           5.6154   -2.0592   17.4821 O.2     1  UNL1       -0.1572
@<TRIPOS>BOND
     1    32    33    1
     2    33    34    2
     3    33    35    2
     4    33    26    1
     5    26    27    1
     6    27    28    1
     7    28    29    1
     8    29    25    1
     9    25     1    1
    10     1     2   ar
    11     2     3   ar
    12     3     4   ar
    13     4     5   ar
    14     5    10    1
    15    10    11    2
    16    11    12    1
    17    12    13    2
    18    13    14    1
    19    14    15    2
    20    15    16    1
    21    16    17    2
    22    17    18    1
    23     5     6   ar
    24     6     7   ar
    25     7    19    1
    26    19    20    1
    27    20    21    1
    28    21    22    1
    29    22    23    1
    30    23    24    1
    31     7     8   ar
    32     8     9   ar
    33    29    30    1
    34    30    31    1
    35    31    26    1
    36     9     1   ar
    37     8     3   ar
    38    18    10    1
    39    24    19    1
    40    18    14    1
@<TRIPOS>MOLECULE
*****
 35 40 0 0 0
SMALL
GASTEIGER

@<TRIPOS>ATOM
      1 C           5.7589   -1.8943   29.4342 C.ar    1  UNL1        0.0944
      2 C           6.0613   -2.4074   28.0575 C.ar    1  UNL1        0.0977
      3 N           5.0904   -1.7762   27.1041 N.ar    1  UNL1       -0.2840
      4 C           4.9115   -1.9072   25.6205 C.ar    1  UNL1        0.1004
      5 C           3.8301   -1.1350   24.9245 C.ar    1  UNL1        0.0971
      6 N           2.9279   -0.2318   25.7119 N.ar    1  UNL1       -0.2264
      7 C           3.1068   -0.1008   27.1954 C.ar    1  UNL1        0.1666
      8 C           4.1881   -0.8730   27.8915 C.ar    1  UNL1        0.1797
      9 N           4.6013   -0.9460   29.3316 N.ar    1  UNL1       -0.2268
     10 C           3.6512   -1.2659   23.4409 C.2     1  UNL1        0.0081
     11 C           2.7876   -0.2883   22.7004 C.2     1  UNL1       -0.0020
     12 C           2.6086   -0.4192   21.2169 C.2     1  UNL1        0.0010
     13 C           3.2933   -1.5279   20.4739 C.2     1  UNL1        0.0172
     14 C           4.1569   -2.5056   21.2144 C.2     1  UNL1        0.0900
     15 N           4.9518   -3.6917   20.7546 N.2     1  UNL1       -0.1519
     16 N           5.6220   -4.2937   21.9539 N.2     1  UNL1       -0.1507
     17 C           5.2413   -3.4797   23.1549 C.2     1  UNL1        0.1058
     18 C           4.3358   -2.3746   22.6979 C.3     1  UNL1        0.1088
     19 N           2.2045    0.8024   27.9828 N.pl3   1  UNL1       -0.2857
     20 C           1.1152    0.2186   28.8330 C.3     1  UNL1        0.1243
     21 C           0.2129    1.1217   29.6204 C.3     1  UNL1        0.1636
     22 O           0.3998    2.6087   29.5577 O.3     1  UNL1       -0.3501
     23 C           1.4890    3.1925   28.7076 C.3     1  UNL1        0.1636
     24 C           2.3914    2.2894   27.9201 C.3     1  UNL1        0.1243
     25 C           6.4865   -2.2645   30.6926 C.3     1  UNL1        0.1203
     26 N           5.2763   -0.4229   34.6161 N.3     1  UNL1       -0.1565
     27 C           6.4118    0.1637   33.8308 C.3     1  UNL1        0.1128
     28 C           6.8152   -0.4503   32.5230 C.3     1  UNL1        0.0918
     29 N           6.0831   -1.6507   32.0004 N.3     1  UNL1       -0.2651
     30 C           4.9476   -2.2372   32.7858 C.3     1  UNL1        0.0918
     31 C           4.5443   -1.6232   34.0936 C.3     1  UNL1        0.1128
     32 C           4.4696    0.8048   37.2318 C.3     1  UNL1        0.1960
     33 S           4.8729    0.1910   35.9239 S.O2    1  UNL1        0.0457
     34 O           3.8514    1.0300   35.2150 O.2     1  UNL1       -0.1572
     35 O           5.8945   -0.6480   36.6328 O.2     1  UNL1       -0.1572
@<TRIPOS>BOND
     1    32    33    1
     2    33    34    2
     3    33    35    2
     4    33    26    1
     5    26    27    1
     6    27    28    1
     7    28    29    1
     8    29    25    1
     9    25     1    1
    10     1     2   ar
    11     2     3   ar
    12     3     4   ar
    13     4     5   ar
    14     5    10    1
    15    10    11    2
    16    11    12    1
    17    12    13    2
    18    13    14    1
    19    14    15    2
    20    15    16    1
    21    16    17    2
    22    17    18    1
    23     5     6   ar
    24     6     7   ar
    25     7    19    1
    26    19    20    1
    27    20    21    1
    28    21    22    1
    29    22    23    1
    30    23    24    1
    31     7     8   ar
    32     8     9   ar
    33    29    30    1
    34    30    31    1
    35    31    26    1
    36     9     1   ar
    37     8     3   ar
    38    18    10    1
    39    24    19    1
    40    18    14    1
@<TRIPOS>MOLECULE
*****
 35 40 0 0 0
SMALL
GASTEIGER

@<TRIPOS>ATOM
      1 C           6.7630   -1.6253   32.7088 C.ar    1  UNL1        0.0944
      2 C           6.6010   -0.9062   34.0152 C.ar    1  UNL1        0.0977
      3 N           5.3591   -0.0690   33.9326 N.ar    1  UNL1       -0.2840
      4 C           4.7015    0.8509   34.9181 C.ar    1  UNL1        0.1004
      5 C           3.4382    1.5691   34.5461 C.ar    1  UNL1        0.0971
      6 N           2.8327    1.3675   33.1887 N.ar    1  UNL1       -0.2264
      7 C           3.4903    0.4476   32.2032 C.ar    1  UNL1        0.1666
      8 C           4.7536   -0.2707   32.5751 C.ar    1  UNL1        0.1797
      9 N           5.6212   -1.2325   31.8188 N.ar    1  UNL1       -0.2268
     10 C           2.7805    2.4891   35.5317 C.2     1  UNL1        0.0081
     11 C           2.1162    3.7469   35.0557 C.2     1  UNL1       -0.0020
     12 C           1.4585    4.6669   36.0412 C.2     1  UNL1        0.0010
     13 C           1.4652    4.3290   37.5026 C.2     1  UNL1        0.0172
     14 C           2.1296    3.0711   37.9786 C.2     1  UNL1        0.0900
     15 N           2.2949    2.4791   39.3469 N.2     1  UNL1       -0.1519
     16 N           3.0546    1.1934   39.2071 N.2     1  UNL1       -0.1507
     17 C           3.3590    0.9907   37.7523 C.2     1  UNL1        0.1058
     18 C           2.7872    2.1512   36.9931 C.3     1  UNL1        0.1088
     19 N           2.8847    0.2459   30.8458 N.pl3   1  UNL1       -0.2857
     20 C           3.6217   -0.5448   29.8057 C.3     1  UNL1        0.1243
     21 C           3.0162   -0.7465   28.4483 C.3     1  UNL1        0.1636
     22 O           1.6736   -0.1574   28.1309 O.3     1  UNL1       -0.3501
     23 C           0.9367    0.6333   29.1710 C.3     1  UNL1        0.1636
     24 C           1.5423    0.8350   30.5284 C.3     1  UNL1        0.1243
     25 C           7.8720   -2.5711   32.3545 C.3     1  UNL1        0.1203
     26 N           7.4706   -5.2697   28.7759 N.3     1  UNL1       -0.1565
     27 C           8.1102   -3.9208   28.6300 C.3     1  UNL1        0.1128
     28 C           8.2440   -3.0213   29.8229 C.3     1  UNL1        0.0918
     29 N           7.7382   -3.4707   31.1617 N.3     1  UNL1       -0.2651
     30 C           7.0986   -4.8197   31.3075 C.3     1  UNL1        0.0918
     31 C           6.9648   -5.7191   30.1146 C.3     1  UNL1        0.1128
     32 C           7.2030   -7.0689   26.3903 C.3     1  UNL1        0.1960
     33 S           7.3368   -6.1693   27.5830 S.O2    1  UNL1        0.0457
     34 O           6.6074   -5.0848   26.8470 O.2     1  UNL1       -0.1572
     35 O           8.0662   -7.2538   28.3191 O.2     1  UNL1       -0.1572
@<TRIPOS>BOND
     1    32    33    1
     2    33    34    2
     3    33    35    2
     4    33    26    1
     5    26    27    1
     6    27    28    1
     7    28    29    1
     8    29    25    1
     9    25     1    1
    10     1     2   ar
    11     2     3   ar
    12     3     4   ar
    13     4     5   ar
    14     5    10    1
    15    10    11    2
    16    11    12    1
    17    12    13    2
    18    13    14    1
    19    14    15    2
    20    15    16    1
    21    16    17    2
    22    17    18    1
    23     5     6   ar
    24     6     7   ar
    25     7    19    1
    26    19    20    1
    27    20    21    1
    28    21    22    1
    29    22    23    1
    30    23    24    1
    31     7     8   ar
    32     8     9   ar
    33    29    30    1
    34    30    31    1
    35    31    26    1
    36     9     1   ar
    37     8     3   ar
    38    18    10    1
    39    24    19    1
    40    18    14    1
