@<TRIPOS>MOLECULE
*****
 43 47 0 0 0
SMALL
GASTEIGER

@<TRIPOS>ATOM
      1 C           6.6169   -3.2461   29.8109 C.ar    1  UNL1        0.0611
      2 C           6.7478   -4.1488   31.0017 C.ar    1  UNL1        0.1037
      3 N           6.9246   -5.5521   30.5022 N.ar    1  UNL1       -0.2269
      4 C           6.9030   -5.5167   29.0028 C.ar    1  UNL1        0.1407
      5 N           7.0319   -6.5981   27.9713 N.ar    1  UNL1       -0.3374
      6 C           6.9706   -6.2542   26.5126 C.ar    1  UNL1        0.0735
      7 C           6.7804   -4.8290   26.0853 C.ar    1  UNL1        0.0186
      8 C           6.6515   -3.7476   27.1168 C.ar    1  UNL1        0.0047
      9 C           6.7128   -4.0915   28.5755 C.ar    1  UNL1        0.0386
     10 H           7.1567   -7.5335   28.2517 H       1  UNL1        0.1674
     11 C           6.7191   -4.4852   24.6265 C.ar    1  UNL1        0.0208
     12 C           5.7626   -3.4359   24.1428 C.ar    1  UNL1        0.0064
     13 C           5.7013   -3.0921   22.6840 C.ar    1  UNL1        0.0577
     14 C           6.5966   -3.7975   21.7089 C.ar    1  UNL1        0.2249
     15 N           7.5532   -4.8469   22.1927 N.ar    1  UNL1       -0.2101
     16 C           7.6144   -5.1906   23.6514 C.ar    1  UNL1        0.1021
     17 O           6.5354   -3.4538   20.2502 O.3     1  UNL1       -0.4602
     18 C           5.3799   -3.9232   19.4169 C.3     1  UNL1        0.2085
     19 C           4.6852   -2.9681   18.4920 C.3     1  UNL1        0.0647
     20 C           4.5868   -1.5149   18.8502 C.3     1  UNL1        0.0759
     21 N           3.2416   -0.8775   19.0352 N.3     1  UNL1       -0.2726
     22 C           2.6544    0.2061   18.1803 C.3     1  UNL1        0.0721
     23 C           1.2972    0.5415   18.7243 C.3     1  UNL1        0.0188
     24 C           1.0458   -0.3349   19.9155 C.3     1  UNL1        0.0188
     25 C           2.2475   -1.2118   20.1076 C.3     1  UNL1        0.0721
     26 C           6.4239   -1.7591   29.8488 C.2     1  UNL1        0.2015
     27 O           7.5897   -0.8452   29.6132 O.2     1  UNL1       -0.2864
     28 C           2.7038   -0.4964   29.2860 C.ar    1  UNL1        0.0920
     29 C           2.3472   -0.0394   30.6695 C.ar    1  UNL1        0.0204
     30 C           3.3495   -0.1555   31.7793 C.ar    1  UNL1        0.0312
     31 C           4.7084   -0.7287   31.5059 C.ar    1  UNL1        0.1454
     32 F           5.7107   -0.8449   32.6158 F       1  UNL1       -0.2040
     33 C           5.0649   -1.1858   30.1224 C.ar    1  UNL1        0.0951
     34 C           4.0626   -1.0696   29.0125 C.ar    1  UNL1        0.1598
     35 F           4.4193   -1.5267   27.6290 F       1  UNL1       -0.2026
     36 N           1.7014   -0.3803   28.1761 N.pl3   1  UNL1       -0.2166
     37 H           1.5952   -1.1153   27.5299 H       1  UNL1        0.1734
     38 S           0.8611    0.8559   28.0508 S.O2    1  UNL1        0.0540
     39 O          -0.3469    0.0784   28.4826 O.2     1  UNL1       -0.1545
     40 O           2.0690    1.6333   27.6191 O.2     1  UNL1       -0.1545
     41 C           0.0207    2.0920   27.9255 C.3     1  UNL1        0.1724
     42 C          -0.8526    2.1959   25.4808 C.3     1  UNL1        0.0019
     43 C          -1.1222    2.1267   26.9547 C.3     1  UNL1        0.0273
@<TRIPOS>BOND
     1    42    43    1
     2    43    41    1
     3    41    38    1
     4    38    39    2
     5    38    40    2
     6    38    36    1
     7    36    28    1
     8    28    29   ar
     9    29    30   ar
    10    30    31   ar
    11    31    32    1
    12    31    33   ar
    13    33    26    1
    14    26    27    2
    15    26     1    1
    16     1     2   ar
    17     2     3   ar
    18     3     4   ar
    19     4     5   ar
    20     5     6   ar
    21     6     7   ar
    22     7    11    1
    23    11    12   ar
    24    12    13   ar
    25    13    14   ar
    26    14    17    1
    27    17    18    1
    28    18    19    1
    29    19    20    1
    30    20    21    1
    31    21    22    1
    32    22    23    1
    33    23    24    1
    34    24    25    1
    35    14    15   ar
    36    15    16   ar
    37     7     8   ar
    38     8     9   ar
    39    33    34   ar
    40    34    35    1
    41    34    28   ar
    42     9     1   ar
    43     9     4    1
    44    16    11   ar
    45    25    21    1
    46    36    37    1
    47     5    10    1
@<TRIPOS>MOLECULE
*****
 43 47 0 0 0
SMALL
GASTEIGER

@<TRIPOS>ATOM
      1 C           4.9093   -3.2433   22.4727 C.ar    1  UNL1        0.0611
      2 C           5.8806   -3.8430   23.4459 C.ar    1  UNL1        0.1037
      3 N           5.7925   -3.0669   24.7264 N.ar    1  UNL1       -0.2269
      4 C           4.7668   -1.9875   24.5447 C.ar    1  UNL1        0.1407
      5 N           4.2593   -0.9195   25.4676 N.ar    1  UNL1       -0.3374
      6 C           3.2060    0.0394   24.9976 C.ar    1  UNL1        0.0735
      7 C           2.6602   -0.0696   23.6047 C.ar    1  UNL1        0.0186
      8 C           3.1677   -1.1376   22.6818 C.ar    1  UNL1        0.0047
      9 C           4.2209   -2.0966   23.1518 C.ar    1  UNL1        0.0386
     10 H           4.6175   -0.8480   26.3819 H       1  UNL1        0.1674
     11 C           1.6068    0.8894   23.1347 C.ar    1  UNL1        0.0208
     12 C           1.3154    2.1300   23.9258 C.ar    1  UNL1        0.0064
     13 C           0.2620    3.0891   23.4558 C.ar    1  UNL1        0.0577
     14 C          -0.4998    2.8073   22.1948 C.ar    1  UNL1        0.2249
     15 N          -0.2083    1.5666   21.4037 N.ar    1  UNL1       -0.2101
     16 C           0.8450    0.6077   21.8737 C.ar    1  UNL1        0.1021
     17 O          -1.5531    3.7663   21.7248 O.3     1  UNL1       -0.4602
     18 C          -2.3571    3.4547   20.4974 C.3     1  UNL1        0.2085
     19 C          -3.8118    3.8166   20.4418 C.3     1  UNL1        0.0647
     20 C          -4.8144    3.0143   21.2170 C.3     1  UNL1        0.0759
     21 N          -5.2907    3.4993   22.5541 N.3     1  UNL1       -0.2726
     22 C          -6.5395    4.2893   22.8118 C.3     1  UNL1        0.0721
     23 C          -6.6224    4.5578   24.2853 C.3     1  UNL1        0.0188
     24 C          -5.4248    3.9336   24.9383 C.3     1  UNL1        0.0188
     25 C          -4.6018    3.2795   23.8683 C.3     1  UNL1        0.0721
     26 C           4.6687   -3.7086   21.0672 C.2     1  UNL1        0.2015
     27 O           4.0516   -5.0527   20.8174 O.2     1  UNL1       -0.2864
     28 C           4.3892   -1.0715   18.1146 C.ar    1  UNL1        0.0920
     29 C           5.7981   -1.0720   17.5997 C.ar    1  UNL1        0.0204
     30 C           6.8305   -1.9515   18.2407 C.ar    1  UNL1        0.0312
     31 C           6.4541   -2.8303   19.3965 C.ar    1  UNL1        0.1454
     32 F           7.4865   -3.7097   20.0374 F       1  UNL1       -0.2040
     33 C           5.0452   -2.8297   19.9113 C.ar    1  UNL1        0.0951
     34 C           4.0128   -1.9503   19.2704 C.ar    1  UNL1        0.1598
     35 F           2.6039   -1.9498   19.7853 F       1  UNL1       -0.2026
     36 N           3.3569   -0.1920   17.4736 N.pl3   1  UNL1       -0.2166
     37 H           3.0174   -0.4061   16.5746 H       1  UNL1        0.1734
     38 S           2.8417    1.0135   18.2024 S.O2    1  UNL1        0.0540
     39 O           1.4645    0.4191   18.2122 O.2     1  UNL1       -0.1545
     40 O           4.2188    1.6080   18.1927 O.2     1  UNL1       -0.1545
     41 C           2.3266    2.2191   18.9312 C.3     1  UNL1        0.1724
     42 C           2.7126    4.0959   20.6860 C.3     1  UNL1        0.0019
     43 C           3.0765    2.7581   20.1132 C.3     1  UNL1        0.0273
@<TRIPOS>BOND
     1    42    43    1
     2    43    41    1
     3    41    38    1
     4    38    39    2
     5    38    40    2
     6    38    36    1
     7    36    28    1
     8    28    29   ar
     9    29    30   ar
    10    30    31   ar
    11    31    32    1
    12    31    33   ar
    13    33    26    1
    14    26    27    2
    15    26     1    1
    16     1     2   ar
    17     2     3   ar
    18     3     4   ar
    19     4     5   ar
    20     5     6   ar
    21     6     7   ar
    22     7    11    1
    23    11    12   ar
    24    12    13   ar
    25    13    14   ar
    26    14    17    1
    27    17    18    1
    28    18    19    1
    29    19    20    1
    30    20    21    1
    31    21    22    1
    32    22    23    1
    33    23    24    1
    34    24    25    1
    35    14    15   ar
    36    15    16   ar
    37     7     8   ar
    38     8     9   ar
    39    33    34   ar
    40    34    35    1
    41    34    28   ar
    42     9     1   ar
    43     9     4    1
    44    16    11   ar
    45    25    21    1
    46    36    37    1
    47     5    10    1
@<TRIPOS>MOLECULE
*****
 43 47 0 0 0
SMALL
GASTEIGER

@<TRIPOS>ATOM
      1 C           0.5397    2.2993   22.7341 C.ar    1  UNL1        0.0611
      2 C          -0.5653    2.8803   21.9027 C.ar    1  UNL1        0.1037
      3 N          -0.6946    2.0516   20.6592 N.ar    1  UNL1       -0.2269
      4 C           0.3306    0.9584   20.7220 C.ar    1  UNL1        0.1407
      5 N           0.6680   -0.1567   19.7771 N.ar    1  UNL1       -0.3374
      6 C           1.7683   -1.1186   20.1147 C.ar    1  UNL1        0.0735
      7 C           2.5312   -0.9655   21.3971 C.ar    1  UNL1        0.0186
      8 C           2.1938    0.1495   22.3420 C.ar    1  UNL1        0.0047
      9 C           1.0935    1.1115   22.0044 C.ar    1  UNL1        0.0386
     10 H           0.1673   -0.2571   18.9354 H       1  UNL1        0.1674
     11 C           3.6315   -1.9275   21.7346 C.ar    1  UNL1        0.0208
     12 C           4.3080   -1.8542   23.0714 C.ar    1  UNL1        0.0064
     13 C           5.4083   -2.8163   23.4090 C.ar    1  UNL1        0.0577
     14 C           5.8321   -3.8516   22.4097 C.ar    1  UNL1        0.2249
     15 N           5.1556   -3.9248   21.0729 N.ar    1  UNL1       -0.2101
     16 C           4.0553   -2.9628   20.7354 C.ar    1  UNL1        0.1021
     17 O           6.9323   -4.8136   22.7472 O.3     1  UNL1       -0.4602
     18 C           8.3487   -4.4955   22.3694 C.3     1  UNL1        0.2085
     19 C           8.7753   -4.5642   20.9329 C.3     1  UNL1        0.0647
     20 C           9.1585   -3.3107   20.2036 C.3     1  UNL1        0.0759
     21 N           8.1180   -2.2761   19.8927 N.3     1  UNL1       -0.2726
     22 C           7.3110   -2.1885   18.6312 C.3     1  UNL1        0.0721
     23 C           6.3959   -1.0056   18.7475 C.3     1  UNL1        0.0188
     24 C           6.6373   -0.3621   20.0809 C.3     1  UNL1        0.0188
     25 C           7.7016   -1.1473   20.7886 C.3     1  UNL1        0.0721
     26 C           1.0088    2.8154   24.0621 C.2     1  UNL1        0.2015
     27 O           2.1450    3.7924   24.1283 O.2     1  UNL1       -0.2864
     28 C           0.2787    0.7815   27.3909 C.ar    1  UNL1        0.0920
     29 C          -0.9929    1.4328   27.8479 C.ar    1  UNL1        0.0204
     30 C          -1.5973    2.5449   27.0430 C.ar    1  UNL1        0.0312
     31 C          -0.9301    3.0058   25.7811 C.ar    1  UNL1        0.1454
     32 F          -1.5345    4.1179   24.9762 F       1  UNL1       -0.2040
     33 C           0.3415    2.3545   25.3241 C.ar    1  UNL1        0.0951
     34 C           0.9459    1.2424   26.1290 C.ar    1  UNL1        0.1598
     35 F           2.2175    0.5912   25.6720 F       1  UNL1       -0.2026
     36 N           0.8831   -0.3306   28.1958 N.pl3   1  UNL1       -0.2166
     37 H           0.4140   -1.1926   28.2744 H       1  UNL1        0.1734
     38 S           2.2021   -0.1293   28.8811 S.O2    1  UNL1        0.0540
     39 O           2.7946   -1.2414   28.0672 O.2     1  UNL1       -0.1545
     40 O           1.6097    0.9827   29.6949 O.2     1  UNL1       -0.1545
     41 C           3.5211    0.0720   29.5664 C.3     1  UNL1        0.1724
     42 C           3.6774   -0.8066   32.0065 C.3     1  UNL1        0.0019
     43 C           3.5669    0.3369   31.0421 C.3     1  UNL1        0.0273
@<TRIPOS>BOND
     1    42    43    1
     2    43    41    1
     3    41    38    1
     4    38    39    2
     5    38    40    2
     6    38    36    1
     7    36    28    1
     8    28    29   ar
     9    29    30   ar
    10    30    31   ar
    11    31    32    1
    12    31    33   ar
    13    33    26    1
    14    26    27    2
    15    26     1    1
    16     1     2   ar
    17     2     3   ar
    18     3     4   ar
    19     4     5   ar
    20     5     6   ar
    21     6     7   ar
    22     7    11    1
    23    11    12   ar
    24    12    13   ar
    25    13    14   ar
    26    14    17    1
    27    17    18    1
    28    18    19    1
    29    19    20    1
    30    20    21    1
    31    21    22    1
    32    22    23    1
    33    23    24    1
    34    24    25    1
    35    14    15   ar
    36    15    16   ar
    37     7     8   ar
    38     8     9   ar
    39    33    34   ar
    40    34    35    1
    41    34    28   ar
    42     9     1   ar
    43     9     4    1
    44    16    11   ar
    45    25    21    1
    46    36    37    1
    47     5    10    1
@<TRIPOS>MOLECULE
*****
 43 47 0 0 0
SMALL
GASTEIGER

@<TRIPOS>ATOM
      1 C           5.2751   -2.2165   19.2365 C.ar    1  UNL1        0.0611
      2 C           5.7212   -1.3377   18.1058 C.ar    1  UNL1        0.1037
      3 N           7.2149   -1.4326   18.0066 N.ar    1  UNL1       -0.2269
      4 C           7.6919   -2.3701   19.0760 C.ar    1  UNL1        0.1407
      5 N           9.0630   -2.8452   19.4558 N.ar    1  UNL1       -0.3374
      6 C           9.2352   -3.8047   20.5957 C.ar    1  UNL1        0.0735
      7 C           8.0363   -4.2892   21.3559 C.ar    1  UNL1        0.0186
      8 C           6.6652   -3.8141   20.9761 C.ar    1  UNL1        0.0047
      9 C           6.4930   -2.8546   19.8361 C.ar    1  UNL1        0.0386
     10 H           9.8499   -2.5272   18.9568 H       1  UNL1        0.1674
     11 C           8.2086   -5.2488   22.4959 C.ar    1  UNL1        0.0208
     12 C           7.4564   -5.0355   23.7760 C.ar    1  UNL1        0.0064
     13 C           7.6286   -5.9951   24.9160 C.ar    1  UNL1        0.0577
     14 C           8.5531   -7.1680   24.7758 C.ar    1  UNL1        0.2249
     15 N           9.3054   -7.3813   23.4957 N.ar    1  UNL1       -0.2101
     16 C           9.1331   -6.4217   22.3558 C.ar    1  UNL1        0.1021
     17 O           8.7254   -8.1276   25.9158 O.3     1  UNL1       -0.4602
     18 C           7.9225   -7.9532   27.1707 C.3     1  UNL1        0.2085
     19 C           8.6174   -7.7188   28.4792 C.3     1  UNL1        0.0647
     20 C           8.9305   -6.3203   28.9222 C.3     1  UNL1        0.0759
     21 N           8.1217   -5.1697   28.4008 N.3     1  UNL1       -0.2726
     22 C           6.6417   -4.9872   28.5630 C.3     1  UNL1        0.0721
     23 C           6.2561   -3.7042   27.8880 C.3     1  UNL1        0.0188
     24 C           7.4979   -3.0939   27.3087 C.3     1  UNL1        0.0188
     25 C           8.6508   -3.9996   27.6255 C.3     1  UNL1        0.0721
     26 C           3.8595   -2.4214   19.6884 C.2     1  UNL1        0.2015
     27 O           3.1177   -3.6631   19.2914 O.2     1  UNL1       -0.2864
     28 C           2.6308   -0.4081   22.8802 C.ar    1  UNL1        0.0920
     29 C           1.8380    0.6897   22.2349 C.ar    1  UNL1        0.0204
     30 C           1.7190    0.7505   20.7409 C.ar    1  UNL1        0.0312
     31 C           2.3928   -0.2865   19.8920 C.ar    1  UNL1        0.1454
     32 F           2.2739   -0.2257   18.3980 F       1  UNL1       -0.2040
     33 C           3.1856   -1.3843   20.5372 C.ar    1  UNL1        0.0951
     34 C           3.3046   -1.4451   22.0313 C.ar    1  UNL1        0.1598
     35 F           4.0974   -2.5430   22.6764 F       1  UNL1       -0.2026
     36 N           2.7497   -0.4689   24.3742 N.pl3   1  UNL1       -0.2166
     37 H           1.9428   -0.5733   24.9284 H       1  UNL1        0.1734
     38 S           4.0982   -0.3706   25.0238 S.O2    1  UNL1        0.0540
     39 O           3.8764   -1.6985   25.6852 O.2     1  UNL1       -0.1545
     40 O           4.3200    0.9573   24.3624 O.2     1  UNL1       -0.1545
     41 C           5.4466   -0.2722   25.6733 C.3     1  UNL1        0.1724
     42 C           6.9640   -1.4140   23.9001 C.3     1  UNL1        0.0019
     43 C           6.6871   -0.2699   24.8299 C.3     1  UNL1        0.0273
@<TRIPOS>BOND
     1    42    43    1
     2    43    41    1
     3    41    38    1
     4    38    39    2
     5    38    40    2
     6    38    36    1
     7    36    28    1
     8    28    29   ar
     9    29    30   ar
    10    30    31   ar
    11    31    32    1
    12    31    33   ar
    13    33    26    1
    14    26    27    2
    15    26     1    1
    16     1     2   ar
    17     2     3   ar
    18     3     4   ar
    19     4     5   ar
    20     5     6   ar
    21     6     7   ar
    22     7    11    1
    23    11    12   ar
    24    12    13   ar
    25    13    14   ar
    26    14    17    1
    27    17    18    1
    28    18    19    1
    29    19    20    1
    30    20    21    1
    31    21    22    1
    32    22    23    1
    33    23    24    1
    34    24    25    1
    35    14    15   ar
    36    15    16   ar
    37     7     8   ar
    38     8     9   ar
    39    33    34   ar
    40    34    35    1
    41    34    28   ar
    42     9     1   ar
    43     9     4    1
    44    16    11   ar
    45    25    21    1
    46    36    37    1
    47     5    10    1
@<TRIPOS>MOLECULE
*****
 43 47 0 0 0
SMALL
GASTEIGER

@<TRIPOS>ATOM
      1 C           4.2646   -2.7460   21.5012 C.ar    1  UNL1        0.0611
      2 C           5.2729   -3.8083   21.8250 C.ar    1  UNL1        0.1037
      3 N           5.6065   -3.7015   23.2835 N.ar    1  UNL1       -0.2269
      4 C           4.8045   -2.5731   23.8611 C.ar    1  UNL1        0.1407
      5 N           4.7222   -2.0071   25.2477 N.ar    1  UNL1       -0.3374
      6 C           3.8106   -0.8506   25.5328 C.ar    1  UNL1        0.0735
      7 C           2.9812   -0.2601   24.4312 C.ar    1  UNL1        0.0186
      8 C           3.0635   -0.8261   23.0446 C.ar    1  UNL1        0.0047
      9 C           3.9751   -1.9826   22.7595 C.ar    1  UNL1        0.0386
     10 H           5.2665   -2.3947   25.9707 H       1  UNL1        0.1674
     11 C           2.0695    0.8965   24.7164 C.ar    1  UNL1        0.0208
     12 C           0.7236    0.9705   24.0585 C.ar    1  UNL1        0.0064
     13 C          -0.1881    2.1271   24.3436 C.ar    1  UNL1        0.0577
     14 C           0.2463    3.2097   25.2867 C.ar    1  UNL1        0.2249
     15 N           1.5923    3.1357   25.9446 N.ar    1  UNL1       -0.2101
     16 C           2.5039    1.9791   25.6594 C.ar    1  UNL1        0.1021
     17 O          -0.6653    4.3662   25.5718 O.3     1  UNL1       -0.4602
     18 C          -1.5995    4.3135   26.7441 C.3     1  UNL1        0.2085
     19 C          -2.8174    3.4391   26.6939 C.3     1  UNL1        0.0647
     20 C          -4.1591    4.0386   26.3933 C.3     1  UNL1        0.0759
     21 N          -4.7641    3.8775   25.0302 N.3     1  UNL1       -0.2726
     22 C          -4.1165    3.2141   23.8510 C.3     1  UNL1        0.0721
     23 C          -5.0751    3.2782   22.6989 C.3     1  UNL1        0.0188
     24 C          -6.3150    3.9813   23.1661 C.3     1  UNL1        0.0188
     25 C          -6.1228    4.3517   24.6069 C.3     1  UNL1        0.0721
     26 C           3.6532   -2.4917   20.1553 C.2     1  UNL1        0.2015
     27 O           3.1664   -3.6409   19.3234 O.2     1  UNL1       -0.2864
     28 C           2.0471    0.9231   18.9264 C.ar    1  UNL1        0.0920
     29 C           3.2792    1.7193   18.6133 C.ar    1  UNL1        0.0204
     30 C           4.6359    1.1119   18.8141 C.ar    1  UNL1        0.0312
     31 C           4.7606   -0.2917   19.3281 C.ar    1  UNL1        0.1454
     32 F           6.1173   -0.8992   19.5289 F       1  UNL1       -0.2040
     33 C           3.5285   -1.0879   19.6412 C.ar    1  UNL1        0.0951
     34 C           2.1718   -0.4805   19.4404 C.ar    1  UNL1        0.1598
     35 F           0.9398   -1.2768   19.7536 F       1  UNL1       -0.2026
     36 N           0.6904    1.5306   18.7256 N.pl3   1  UNL1       -0.2166
     37 H           0.0247    1.0732   18.1626 H       1  UNL1        0.1734
     38 S           0.3479    2.8349   19.3825 S.O2    1  UNL1        0.0540
     39 O           0.4340    2.1794   20.7289 O.2     1  UNL1       -0.1545
     40 O           0.2619    3.4904   18.0360 O.2     1  UNL1       -0.1545
     41 C           0.0055    4.1392   20.0393 C.3     1  UNL1        0.1724
     42 C          -2.5657    3.7671   20.0694 C.3     1  UNL1        0.0019
     43 C          -1.3248    4.3148   20.7098 C.3     1  UNL1        0.0273
@<TRIPOS>BOND
     1    42    43    1
     2    43    41    1
     3    41    38    1
     4    38    39    2
     5    38    40    2
     6    38    36    1
     7    36    28    1
     8    28    29   ar
     9    29    30   ar
    10    30    31   ar
    11    31    32    1
    12    31    33   ar
    13    33    26    1
    14    26    27    2
    15    26     1    1
    16     1     2   ar
    17     2     3   ar
    18     3     4   ar
    19     4     5   ar
    20     5     6   ar
    21     6     7   ar
    22     7    11    1
    23    11    12   ar
    24    12    13   ar
    25    13    14   ar
    26    14    17    1
    27    17    18    1
    28    18    19    1
    29    19    20    1
    30    20    21    1
    31    21    22    1
    32    22    23    1
    33    23    24    1
    34    24    25    1
    35    14    15   ar
    36    15    16   ar
    37     7     8   ar
    38     8     9   ar
    39    33    34   ar
    40    34    35    1
    41    34    28   ar
    42     9     1   ar
    43     9     4    1
    44    16    11   ar
    45    25    21    1
    46    36    37    1
    47     5    10    1
@<TRIPOS>MOLECULE
*****
 43 47 0 0 0
SMALL
GASTEIGER

@<TRIPOS>ATOM
      1 C           0.8723    1.9520   22.8749 C.ar    1  UNL1        0.0611
      2 C          -0.1586    2.3741   21.8704 C.ar    1  UNL1        0.1037
      3 N          -0.0976    1.4198   20.7147 N.ar    1  UNL1       -0.2269
      4 C           0.9709    0.4079   21.0050 C.ar    1  UNL1        0.1407
      5 N           1.4755   -0.7705   20.2261 N.ar    1  UNL1       -0.3374
      6 C           2.5795   -1.6200   20.7823 C.ar    1  UNL1        0.0735
      7 C           3.1790   -1.2911   22.1174 C.ar    1  UNL1        0.0186
      8 C           2.6744   -0.1127   22.8963 C.ar    1  UNL1        0.0047
      9 C           1.5704    0.7368   22.3401 C.ar    1  UNL1        0.0386
     10 H           1.0821   -0.9863   19.3498 H       1  UNL1        0.1674
     11 C           4.2831   -2.1407   22.6736 C.ar    1  UNL1        0.0208
     12 C           4.9543   -1.7521   23.9574 C.ar    1  UNL1        0.0064
     13 C           6.0584   -2.6016   24.5136 C.ar    1  UNL1        0.0577
     14 C           6.4912   -3.8398   23.7859 C.ar    1  UNL1        0.2249
     15 N           5.8199   -4.2284   22.5019 N.ar    1  UNL1       -0.2101
     16 C           4.7159   -3.3788   21.9458 C.ar    1  UNL1        0.1021
     17 O           7.5952   -4.6894   24.3420 O.3     1  UNL1       -0.4602
     18 C           7.3120   -5.6512   25.4576 C.3     1  UNL1        0.2085
     19 C           7.7336   -5.3200   26.8586 C.3     1  UNL1        0.0647
     20 C           6.9100   -4.3790   27.6869 C.3     1  UNL1        0.0759
     21 N           6.8858   -4.5191   29.1801 N.3     1  UNL1       -0.2726
     22 C           7.1284   -5.7828   29.9512 C.3     1  UNL1        0.0721
     23 C           7.0073   -5.4649   31.4122 C.3     1  UNL1        0.0188
     24 C           6.6897   -4.0048   31.5440 C.3     1  UNL1        0.0188
     25 C           6.6146   -3.4203   30.1646 C.3     1  UNL1        0.0721
     26 C           1.1554    2.6266   24.1844 C.2     1  UNL1        0.2015
     27 O           2.2338    3.6651   24.2754 O.2     1  UNL1       -0.2864
     28 C           0.0361    0.7965   27.5233 C.ar    1  UNL1        0.0920
     29 C          -1.2307    1.5346   27.8401 C.ar    1  UNL1        0.0204
     30 C          -1.7022    2.6366   26.9384 C.ar    1  UNL1        0.0312
     31 C          -0.9069    3.0007   25.7198 C.ar    1  UNL1        0.1454
     32 F          -1.3783    4.1027   24.8181 F       1  UNL1       -0.2040
     33 C           0.3600    2.2626   25.4030 C.ar    1  UNL1        0.0951
     34 C           0.8314    1.1605   26.3048 C.ar    1  UNL1        0.1598
     35 F           2.0983    0.4224   25.9879 F       1  UNL1       -0.2026
     36 N           0.5076   -0.3056   28.4251 N.pl3   1  UNL1       -0.2166
     37 H           0.0732   -1.1885   28.3920 H       1  UNL1        0.1734
     38 S           1.6408   -0.0625   29.3773 S.O2    1  UNL1        0.0540
     39 O           0.7622    0.8395   30.1925 O.2     1  UNL1       -0.1545
     40 O           2.5193   -0.9644   28.5621 O.2     1  UNL1       -0.1545
     41 C           2.7740    0.1806   30.3295 C.3     1  UNL1        0.1724
     42 C           3.9558   -1.2574   32.1421 C.3     1  UNL1        0.0019
     43 C           3.6975   -0.9423   30.6985 C.3     1  UNL1        0.0273
@<TRIPOS>BOND
     1    42    43    1
     2    43    41    1
     3    41    38    1
     4    38    39    2
     5    38    40    2
     6    38    36    1
     7    36    28    1
     8    28    29   ar
     9    29    30   ar
    10    30    31   ar
    11    31    32    1
    12    31    33   ar
    13    33    26    1
    14    26    27    2
    15    26     1    1
    16     1     2   ar
    17     2     3   ar
    18     3     4   ar
    19     4     5   ar
    20     5     6   ar
    21     6     7   ar
    22     7    11    1
    23    11    12   ar
    24    12    13   ar
    25    13    14   ar
    26    14    17    1
    27    17    18    1
    28    18    19    1
    29    19    20    1
    30    20    21    1
    31    21    22    1
    32    22    23    1
    33    23    24    1
    34    24    25    1
    35    14    15   ar
    36    15    16   ar
    37     7     8   ar
    38     8     9   ar
    39    33    34   ar
    40    34    35    1
    41    34    28   ar
    42     9     1   ar
    43     9     4    1
    44    16    11   ar
    45    25    21    1
    46    36    37    1
    47     5    10    1
@<TRIPOS>MOLECULE
*****
 43 47 0 0 0
SMALL
GASTEIGER

@<TRIPOS>ATOM
      1 C           5.1900   -3.4171   22.2355 C.ar    1  UNL1        0.0611
      2 C           6.3476   -4.0963   22.9053 C.ar    1  UNL1        0.1037
      3 N           6.5042   -3.5031   24.2741 N.ar    1  UNL1       -0.2269
      4 C           5.4434   -2.4574   24.4503 C.ar    1  UNL1        0.1407
      5 N           5.1122   -1.5467   25.5952 N.ar    1  UNL1       -0.3374
      6 C           3.9686   -0.5828   25.4801 C.ar    1  UNL1        0.0735
      7 C           3.1564   -0.5297   24.2202 C.ar    1  UNL1        0.0186
      8 C           3.4876   -1.4404   23.0753 C.ar    1  UNL1        0.0047
      9 C           4.6312   -2.4042   23.1903 C.ar    1  UNL1        0.0386
     10 H           5.6453   -1.5815   26.4221 H       1  UNL1        0.1674
     11 C           2.0128    0.4343   24.1052 C.ar    1  UNL1        0.0208
     12 C           1.3368    0.9470   25.3422 C.ar    1  UNL1        0.0064
     13 C           0.1932    1.9109   25.2272 C.ar    1  UNL1        0.0577
     14 C          -0.2743    2.3621   23.8752 C.ar    1  UNL1        0.2249
     15 N           0.4018    1.8493   22.6382 N.ar    1  UNL1       -0.2101
     16 C           1.5453    0.8855   22.7532 C.ar    1  UNL1        0.1021
     17 O          -1.4178    3.3259   23.7601 O.3     1  UNL1       -0.4602
     18 C          -2.4384    3.4130   24.8559 C.3     1  UNL1        0.2085
     19 C          -3.8001    3.9734   24.5698 C.3     1  UNL1        0.0647
     20 C          -3.9686    5.0404   23.5291 C.3     1  UNL1        0.0759
     21 N          -4.3650    4.6685   22.1311 N.3     1  UNL1       -0.2726
     22 C          -4.6752    5.6255   21.0185 C.3     1  UNL1        0.0721
     23 C          -5.0228    4.8227   19.7999 C.3     1  UNL1        0.0188
     24 C          -4.9275    3.3695   20.1595 C.3     1  UNL1        0.0188
     25 C          -4.5209    3.2742   21.6002 C.3     1  UNL1        0.0721
     26 C           4.6806   -3.7010   20.8535 C.2     1  UNL1        0.2015
     27 O           3.9330   -4.9713   20.5759 O.2     1  UNL1       -0.2864
     28 C           4.0260   -0.8848   18.1349 C.ar    1  UNL1        0.0920
     29 C           5.3955   -0.7413   17.5400 C.ar    1  UNL1        0.0204
     30 C           6.5266   -1.5845   18.0495 C.ar    1  UNL1        0.0312
     31 C           6.2884   -2.5710   19.1540 C.ar    1  UNL1        0.1454
     32 F           7.4196   -3.4141   19.6635 F       1  UNL1       -0.2040
     33 C           4.9189   -2.7144   19.7489 C.ar    1  UNL1        0.0951
     34 C           3.7878   -1.8713   19.2394 C.ar    1  UNL1        0.1598
     35 F           2.4183   -2.0148   19.8345 F       1  UNL1       -0.2026
     36 N           2.8948   -0.0416   17.6254 N.pl3   1  UNL1       -0.2166
     37 H           2.5246   -0.2050   16.7279 H       1  UNL1        0.1734
     38 S           2.3278    1.0503   18.4833 S.O2    1  UNL1        0.0540
     39 O           3.7012    1.6280   18.6559 O.2     1  UNL1       -0.1545
     40 O           0.9543    0.4726   18.3107 O.2     1  UNL1       -0.1545
     41 C           1.7606    2.1422   19.3412 C.3     1  UNL1        0.1724
     42 C           1.0590    4.2322   17.9665 C.3     1  UNL1        0.0019
     43 C           0.6888    3.0412   18.7998 C.3     1  UNL1        0.0273
@<TRIPOS>BOND
     1    42    43    1
     2    43    41    1
     3    41    38    1
     4    38    39    2
     5    38    40    2
     6    38    36    1
     7    36    28    1
     8    28    29   ar
     9    29    30   ar
    10    30    31   ar
    11    31    32    1
    12    31    33   ar
    13    33    26    1
    14    26    27    2
    15    26     1    1
    16     1     2   ar
    17     2     3   ar
    18     3     4   ar
    19     4     5   ar
    20     5     6   ar
    21     6     7   ar
    22     7    11    1
    23    11    12   ar
    24    12    13   ar
    25    13    14   ar
    26    14    17    1
    27    17    18    1
    28    18    19    1
    29    19    20    1
    30    20    21    1
    31    21    22    1
    32    22    23    1
    33    23    24    1
    34    24    25    1
    35    14    15   ar
    36    15    16   ar
    37     7     8   ar
    38     8     9   ar
    39    33    34   ar
    40    34    35    1
    41    34    28   ar
    42     9     1   ar
    43     9     4    1
    44    16    11   ar
    45    25    21    1
    46    36    37    1
    47     5    10    1
@<TRIPOS>MOLECULE
*****
 43 47 0 0 0
SMALL
GASTEIGER

@<TRIPOS>ATOM
      1 C           4.2874   -2.9360   21.1192 C.ar    1  UNL1        0.0611
      2 C           5.2896   -4.0374   21.2996 C.ar    1  UNL1        0.1037
      3 N           5.7532   -4.0131   22.7259 N.ar    1  UNL1       -0.2269
      4 C           5.0376   -2.8967   23.4270 C.ar    1  UNL1        0.1407
      5 N           5.0939   -2.4002   24.8413 N.ar    1  UNL1       -0.3374
      6 C           4.2442   -1.2381   25.2626 C.ar    1  UNL1        0.0735
      7 C           3.3382   -0.5725   24.2696 C.ar    1  UNL1        0.0186
      8 C           3.2819   -1.0689   22.8553 C.ar    1  UNL1        0.0047
      9 C           4.1316   -2.2310   22.4340 C.ar    1  UNL1        0.0386
     10 H           5.6885   -2.8371   25.4931 H       1  UNL1        0.1674
     11 C           2.4885    0.5897   24.6909 C.ar    1  UNL1        0.0208
     12 C           1.0165    0.5859   24.4027 C.ar    1  UNL1        0.0064
     13 C           0.1667    1.7481   24.8241 C.ar    1  UNL1        0.0577
     14 C           0.7891    2.9139   25.5336 C.ar    1  UNL1        0.2249
     15 N           2.2612    2.9176   25.8218 N.ar    1  UNL1       -0.2101
     16 C           3.1109    1.7555   25.4005 C.ar    1  UNL1        0.1021
     17 O          -0.0605    4.0760   25.9550 O.3     1  UNL1       -0.4602
     18 C          -0.1064    4.4878   27.3966 C.3     1  UNL1        0.2085
     19 C          -0.2127    3.4465   28.4710 C.3     1  UNL1        0.0647
     20 C           0.9996    3.0639   29.2673 C.3     1  UNL1        0.0759
     21 N           1.6973    1.7646   28.9934 N.3     1  UNL1       -0.2726
     22 C           3.1601    1.4922   29.1836 C.3     1  UNL1        0.0721
     23 C           3.4216    0.0688   28.7890 C.3     1  UNL1        0.0188
     24 C           2.1205   -0.5385   28.3550 C.3     1  UNL1        0.0188
     25 C           1.0548    0.5096   28.4814 C.3     1  UNL1        0.0721
     26 C           3.5673   -2.5989   19.8473 C.2     1  UNL1        0.2015
     27 O           3.0177   -3.6949   18.9833 O.2     1  UNL1       -0.2864
     28 C           1.8807    0.9226   19.1368 C.ar    1  UNL1        0.0920
     29 C           3.0556    1.7012   18.6234 C.ar    1  UNL1        0.0204
     30 C           4.4010    1.0464   18.5181 C.ar    1  UNL1        0.0312
     31 C           4.5716   -0.3869   18.9260 C.ar    1  UNL1        0.1454
     32 F           5.9170   -1.0416   18.8206 F       1  UNL1       -0.2040
     33 C           3.3967   -1.1654   19.4393 C.ar    1  UNL1        0.0951
     34 C           2.0513   -0.5107   19.5447 C.ar    1  UNL1        0.1598
     35 F           0.8765   -1.2893   20.0580 F       1  UNL1       -0.2026
     36 N           0.5353    1.5774   19.2421 N.pl3   1  UNL1       -0.2166
     37 H          -0.1632    1.3768   18.5780 H       1  UNL1        0.1734
     38 S           0.2541    2.5379   20.3594 S.O2    1  UNL1        0.0540
     39 O           0.7188    3.6751   19.4987 O.2     1  UNL1       -0.1545
     40 O          -0.2106    1.4007   21.2201 O.2     1  UNL1       -0.1545
     41 C          -0.0271    3.4983   21.4767 C.3     1  UNL1        0.1724
     42 C           0.7713    5.5211   22.8985 C.3     1  UNL1        0.0019
     43 C           1.0858    4.3189   22.0584 C.3     1  UNL1        0.0273
@<TRIPOS>BOND
     1    42    43    1
     2    43    41    1
     3    41    38    1
     4    38    39    2
     5    38    40    2
     6    38    36    1
     7    36    28    1
     8    28    29   ar
     9    29    30   ar
    10    30    31   ar
    11    31    32    1
    12    31    33   ar
    13    33    26    1
    14    26    27    2
    15    26     1    1
    16     1     2   ar
    17     2     3   ar
    18     3     4   ar
    19     4     5   ar
    20     5     6   ar
    21     6     7   ar
    22     7    11    1
    23    11    12   ar
    24    12    13   ar
    25    13    14   ar
    26    14    17    1
    27    17    18    1
    28    18    19    1
    29    19    20    1
    30    20    21    1
    31    21    22    1
    32    22    23    1
    33    23    24    1
    34    24    25    1
    35    14    15   ar
    36    15    16   ar
    37     7     8   ar
    38     8     9   ar
    39    33    34   ar
    40    34    35    1
    41    34    28   ar
    42     9     1   ar
    43     9     4    1
    44    16    11   ar
    45    25    21    1
    46    36    37    1
    47     5    10    1
@<TRIPOS>MOLECULE
*****
 43 47 0 0 0
SMALL
GASTEIGER

@<TRIPOS>ATOM
      1 C           1.0132    1.9172   24.6726 C.ar    1  UNL1        0.0611
      2 C          -0.3845    2.4581   24.7335 C.ar    1  UNL1        0.1037
      3 N          -0.9655    2.0918   26.0671 N.ar    1  UNL1       -0.2269
      4 C           0.0732    1.3245   26.8303 C.ar    1  UNL1        0.1407
      5 N           0.0635    0.7102   28.1986 N.ar    1  UNL1       -0.3374
      6 C           1.2766   -0.0121   28.7051 C.ar    1  UNL1        0.0735
      7 C           2.4995   -0.1200   27.8432 C.ar    1  UNL1        0.0186
      8 C           2.5093    0.4943   26.4748 C.ar    1  UNL1        0.0047
      9 C           1.2961    1.2166   25.9684 C.ar    1  UNL1        0.0386
     10 H          -0.7392    0.7810   28.7643 H       1  UNL1        0.1674
     11 C           3.7127   -0.8423   28.3497 C.ar    1  UNL1        0.0208
     12 C           4.5114   -1.7091   27.4220 C.ar    1  UNL1        0.0064
     13 C           5.7246   -2.4314   27.9285 C.ar    1  UNL1        0.0577
     14 C           6.1391   -2.2868   29.3628 C.ar    1  UNL1        0.2249
     15 N           5.3404   -1.4200   30.2906 N.ar    1  UNL1       -0.2101
     16 C           4.1272   -0.6977   29.7841 C.ar    1  UNL1        0.1021
     17 O           7.3522   -3.0090   29.8694 O.3     1  UNL1       -0.4602
     18 C           7.1981   -4.2964   30.6236 C.3     1  UNL1        0.2085
     19 C           6.8195   -5.5518   29.8950 C.3     1  UNL1        0.0647
     20 C           7.8801   -6.3924   29.2481 C.3     1  UNL1        0.0759
     21 N           7.8664   -6.6053   27.7634 N.3     1  UNL1       -0.2726
     22 C           8.1760   -7.8902   27.0541 C.3     1  UNL1        0.0721
     23 C           8.0416   -7.6497   25.5795 C.3     1  UNL1        0.0188
     24 C           7.6490   -6.2161   25.3776 C.3     1  UNL1        0.0188
     25 C           7.5408   -5.5706   26.7273 C.3     1  UNL1        0.0721
     26 C           1.9616    2.0530   23.5184 C.2     1  UNL1        0.2015
     27 O           2.6968    3.3419   23.2994 O.2     1  UNL1       -0.2864
     28 C           3.5985   -1.1265   21.7974 C.ar    1  UNL1        0.0920
     29 C           2.6011   -1.4066   20.7126 C.ar    1  UNL1        0.0204
     30 C           1.3906   -0.5335   20.5630 C.ar    1  UNL1        0.0312
     31 C           1.1774    0.6197   21.4982 C.ar    1  UNL1        0.1454
     32 F          -0.0331    1.4928   21.3486 F       1  UNL1       -0.2040
     33 C           2.1748    0.8997   22.5831 C.ar    1  UNL1        0.0951
     34 C           3.3852    0.0266   22.7326 C.ar    1  UNL1        0.1598
     35 F           4.3826    0.3068   23.8175 F       1  UNL1       -0.2026
     36 N           4.8090   -1.9996   21.9470 N.pl3   1  UNL1       -0.2166
     37 H           5.3535   -1.9501   22.7657 H       1  UNL1        0.1734
     38 S           5.1898   -2.9482   20.8492 S.O2    1  UNL1        0.0540
     39 O           4.6628   -4.0961   21.6582 O.2     1  UNL1       -0.1545
     40 O           5.7168   -1.8003   20.0402 O.2     1  UNL1       -0.1545
     41 C           5.5707   -3.8966   19.7514 C.3     1  UNL1        0.1724
     42 C           3.1935   -4.5023   18.8953 C.3     1  UNL1        0.0019
     43 C           4.5853   -4.9193   19.2683 C.3     1  UNL1        0.0273
@<TRIPOS>BOND
     1    42    43    1
     2    43    41    1
     3    41    38    1
     4    38    39    2
     5    38    40    2
     6    38    36    1
     7    36    28    1
     8    28    29   ar
     9    29    30   ar
    10    30    31   ar
    11    31    32    1
    12    31    33   ar
    13    33    26    1
    14    26    27    2
    15    26     1    1
    16     1     2   ar
    17     2     3   ar
    18     3     4   ar
    19     4     5   ar
    20     5     6   ar
    21     6     7   ar
    22     7    11    1
    23    11    12   ar
    24    12    13   ar
    25    13    14   ar
    26    14    17    1
    27    17    18    1
    28    18    19    1
    29    19    20    1
    30    20    21    1
    31    21    22    1
    32    22    23    1
    33    23    24    1
    34    24    25    1
    35    14    15   ar
    36    15    16   ar
    37     7     8   ar
    38     8     9   ar
    39    33    34   ar
    40    34    35    1
    41    34    28   ar
    42     9     1   ar
    43     9     4    1
    44    16    11   ar
    45    25    21    1
    46    36    37    1
    47     5    10    1
