@<TRIPOS>MOLECULE
*****
 33 36 0 0 0
SMALL
GASTEIGER

@<TRIPOS>ATOM
      1 C          -0.2180    2.3447   23.2518 C.ar    1  UNL1        0.0583
      2 C           0.4088    1.6606   24.4305 C.ar    1  UNL1        0.0238
      3 C          -0.2233    1.7728   25.7862 C.ar    1  UNL1        0.0829
      4 N          -1.4821    2.5691   25.9633 N.ar    1  UNL1       -0.2437
      5 C          -2.1088    3.2532   24.7846 C.ar    1  UNL1        0.1009
      6 C          -1.4768    3.1410   23.4289 C.ar    1  UNL1        0.0473
      7 C           0.4035    1.0887   26.9648 C.ar    1  UNL1        0.0365
      8 C          -0.4613    0.5403   28.0609 C.ar    1  UNL1        0.1003
      9 N           0.1654   -0.1438   29.2395 N.ar    1  UNL1       -0.2426
     10 C           1.6570   -0.2794   29.3221 C.ar    1  UNL1        0.0946
     11 C           2.5218    0.2690   28.2260 C.ar    1  UNL1       -0.0026
     12 C           4.0134    0.1333   28.3086 C.3     1  UNL1        0.0327
     13 C           1.8950    0.9531   27.0474 C.ar    1  UNL1        0.0003
     14 C          -2.1035    3.8250   22.2502 C.ar    1  UNL1        0.1124
     15 N          -2.8264    3.1515   21.1216 N.ar    1  UNL1       -0.2367
     16 C          -3.2871    4.2129   20.1671 C.ar    1  UNL1        0.1064
     17 C          -2.8489    5.5426   20.7058 C.ar    1  UNL1        0.0575
     18 S          -2.1174    5.3028   21.9932 S.2     1  UNL1       -0.0658
     19 N          -0.1254    1.2534   20.8958 N.am    1  UNL1       -0.2956
     20 C           0.4140    2.2324   21.8961 C.2     1  UNL1        0.2463
     21 O           1.5855    3.0992   21.5407 O.2     1  UNL1       -0.2701
     22 H          -0.8943    0.6846   21.1291 H       1  UNL1        0.1501
     23 C           0.5065    1.1412   19.5401 C.3     1  UNL1        0.1361
     24 C           3.8145   -1.8278   18.8385 C.ar    1  UNL1        0.1916
     25 C           2.9244   -1.9662   20.0378 C.ar    1  UNL1        0.0430
     26 C           1.8217   -0.9766   20.2717 C.ar    1  UNL1        0.0198
     27 C           1.6092    0.1515   19.3062 C.ar    1  UNL1        0.0821
     28 N           2.4993    0.2900   18.1069 N.ar    1  UNL1       -0.2117
     29 C           3.6020   -0.6997   17.8730 C.ar    1  UNL1        0.2598
     30 C           4.6847   -4.2756   18.8688 C.3     1  UNL1        0.2527
     31 O           4.9171   -2.8175   18.6046 O.3     1  UNL1       -0.4667
     32 O           4.4921   -0.5613   16.6736 O.3     1  UNL1       -0.4541
     33 C           5.7475    0.2549   16.7615 C.3     1  UNL1        0.2543
@<TRIPOS>BOND
     1    30    31    1
     2    31    24    1
     3    24    25   ar
     4    25    26   ar
     5    26    27   ar
     6    27    23    1
     7    23    19    1
     8    19    20   am
     9    20    21    2
    10    20     1    1
    11     1     2   ar
    12     2     3   ar
    13     3     7    1
    14     7     8   ar
    15     8     9   ar
    16     9    10   ar
    17    10    11   ar
    18    11    12    1
    19    11    13   ar
    20     3     4   ar
    21     4     5   ar
    22     5     6   ar
    23     6    14    1
    24    14    15   ar
    25    15    16   ar
    26    16    17   ar
    27    17    18   ar
    28    27    28   ar
    29    28    29   ar
    30    29    32    1
    31    32    33    1
    32    29    24   ar
    33     6     1   ar
    34    18    14   ar
    35    13     7   ar
    36    19    22    1
@<TRIPOS>MOLECULE
*****
 33 36 0 0 0
SMALL
GASTEIGER

@<TRIPOS>ATOM
      1 C           2.7064    0.3027   23.7678 C.ar    1  UNL1        0.0583
      2 C           3.3986   -0.4126   22.6458 C.ar    1  UNL1        0.0238
      3 C           2.8163   -0.3813   21.2637 C.ar    1  UNL1        0.0829
      4 N           1.5416    0.3655   21.0038 N.ar    1  UNL1       -0.2437
      5 C           0.8494    1.0810   22.1259 C.ar    1  UNL1        0.1009
      6 C           1.4317    1.0495   23.5078 C.ar    1  UNL1        0.0473
      7 C           3.5085   -1.0967   20.1417 C.ar    1  UNL1        0.0365
      8 C           4.1662   -0.3127   19.0450 C.ar    1  UNL1        0.1003
      9 N           4.8585   -1.0281   17.9230 N.ar    1  UNL1       -0.2426
     10 C           4.8931   -2.5275   17.8977 C.ar    1  UNL1        0.0946
     11 C           4.2354   -3.3115   18.9944 C.ar    1  UNL1       -0.0026
     12 C           4.2700   -4.8108   18.9692 C.3     1  UNL1        0.0327
     13 C           3.5431   -2.5960   20.1165 C.ar    1  UNL1        0.0003
     14 C           0.7395    1.7650   24.6299 C.ar    1  UNL1        0.1124
     15 N          -0.1505    1.1359   25.6605 N.ar    1  UNL1       -0.2367
     16 C          -0.6244    2.2172   26.5859 C.ar    1  UNL1        0.1064
     17 C          -0.0272    3.5146   26.1272 C.ar    1  UNL1        0.0575
     18 S           0.8157    3.2350   24.9183 S.2     1  UNL1       -0.0658
     19 N           3.1708   -0.9688   25.9854 N.am    1  UNL1       -0.2956
     20 C           3.2888    0.2714   25.1498 C.2     1  UNL1        0.2463
     21 O           3.9890    1.4801   25.6962 O.2     1  UNL1       -0.2701
     22 H           2.7112   -1.7621   25.6267 H       1  UNL1        0.1501
     23 C           3.7531   -1.0002   27.3673 C.3     1  UNL1        0.1361
     24 C           1.6060    1.0312   30.7604 C.ar    1  UNL1        0.1916
     25 C           3.1047    1.0515   30.7020 C.ar    1  UNL1        0.0430
     26 C           3.8204    0.3744   29.5709 C.ar    1  UNL1        0.0198
     27 C           3.0374   -0.3231   28.4984 C.ar    1  UNL1        0.0821
     28 N           1.5387   -0.3434   28.5568 N.ar    1  UNL1       -0.2117
     29 C           0.8230    0.3338   29.6879 C.ar    1  UNL1        0.2598
     30 C           1.6725    2.4222   32.9538 C.3     1  UNL1        0.2527
     31 O           0.8903    1.7083   31.8915 O.3     1  UNL1       -0.4667
     32 O          -0.6758    0.3134   29.7463 O.3     1  UNL1       -0.4541
     33 C          -1.4511   -0.5624   28.8074 C.3     1  UNL1        0.2543
@<TRIPOS>BOND
     1    30    31    1
     2    31    24    1
     3    24    25   ar
     4    25    26   ar
     5    26    27   ar
     6    27    23    1
     7    23    19    1
     8    19    20   am
     9    20    21    2
    10    20     1    1
    11     1     2   ar
    12     2     3   ar
    13     3     7    1
    14     7     8   ar
    15     8     9   ar
    16     9    10   ar
    17    10    11   ar
    18    11    12    1
    19    11    13   ar
    20     3     4   ar
    21     4     5   ar
    22     5     6   ar
    23     6    14    1
    24    14    15   ar
    25    15    16   ar
    26    16    17   ar
    27    17    18   ar
    28    27    28   ar
    29    28    29   ar
    30    29    32    1
    31    32    33    1
    32    29    24   ar
    33     6     1   ar
    34    18    14   ar
    35    13     7   ar
    36    19    22    1
@<TRIPOS>MOLECULE
*****
 33 36 0 0 0
SMALL
GASTEIGER

@<TRIPOS>ATOM
      1 C           6.3627   -3.1493   25.4260 C.ar    1  UNL1        0.0583
      2 C           6.0605   -2.8921   23.9795 C.ar    1  UNL1        0.0238
      3 C           6.4671   -3.8930   22.9388 C.ar    1  UNL1        0.0829
      4 N           7.1759   -5.1511   23.3448 N.ar    1  UNL1       -0.2437
      5 C           7.4780   -5.4083   24.7914 C.ar    1  UNL1        0.1009
      6 C           7.0714   -4.4074   25.8320 C.ar    1  UNL1        0.0473
      7 C           6.1650   -3.6358   21.4923 C.ar    1  UNL1        0.0365
      8 C           7.1812   -2.9560   20.6232 C.ar    1  UNL1        0.1003
      9 N           6.8790   -2.6988   19.1767 N.ar    1  UNL1       -0.2426
     10 C           5.5606   -3.1213   18.5992 C.ar    1  UNL1        0.0946
     11 C           4.5444   -3.8010   19.4683 C.ar    1  UNL1       -0.0026
     12 C           3.2261   -4.2235   18.8909 C.3     1  UNL1        0.0327
     13 C           4.8467   -4.0582   20.9149 C.ar    1  UNL1        0.0003
     14 C           7.3736   -4.6647   27.2786 C.ar    1  UNL1        0.1124
     15 N           6.3864   -5.0956   28.3224 N.ar    1  UNL1       -0.2367
     16 C           7.1187   -5.2334   29.6242 C.ar    1  UNL1        0.1064
     17 C           8.5586   -4.8875   29.3850 C.ar    1  UNL1        0.0575
     18 S           8.7161   -4.5360   27.9353 S.2     1  UNL1       -0.0658
     19 N           4.7092   -2.3674   27.2712 N.am    1  UNL1       -0.2956
     20 C           5.9561   -2.1484   26.4667 C.2     1  UNL1        0.2463
     21 O           6.7964   -0.9285   26.7028 O.2     1  UNL1       -0.2701
     22 H           4.1577   -3.1681   27.1162 H       1  UNL1        0.1501
     23 C           4.3025   -1.3666   28.3118 C.3     1  UNL1        0.1361
     24 C           0.8073    1.3664   27.5608 C.ar    1  UNL1        0.1916
     25 C           1.9986    1.4048   26.6502 C.ar    1  UNL1        0.0430
     26 C           3.1637    0.4938   26.9006 C.ar    1  UNL1        0.0198
     27 C           3.1375   -0.4556   28.0615 C.ar    1  UNL1        0.0821
     28 N           1.9462   -0.4941   28.9721 N.ar    1  UNL1       -0.2117
     29 C           0.7811    0.4169   28.7218 C.ar    1  UNL1        0.2598
     30 C          -0.9999    2.3187   25.9556 C.3     1  UNL1        0.2527
     31 O          -0.3578    2.2774   27.3105 O.3     1  UNL1       -0.4667
     32 O          -0.4103    0.3785   29.6325 O.3     1  UNL1       -0.4541
     33 C          -1.7156   -0.1698   29.1370 C.3     1  UNL1        0.2543
@<TRIPOS>BOND
     1    30    31    1
     2    31    24    1
     3    24    25   ar
     4    25    26   ar
     5    26    27   ar
     6    27    23    1
     7    23    19    1
     8    19    20   am
     9    20    21    2
    10    20     1    1
    11     1     2   ar
    12     2     3   ar
    13     3     7    1
    14     7     8   ar
    15     8     9   ar
    16     9    10   ar
    17    10    11   ar
    18    11    12    1
    19    11    13   ar
    20     3     4   ar
    21     4     5   ar
    22     5     6   ar
    23     6    14    1
    24    14    15   ar
    25    15    16   ar
    26    16    17   ar
    27    17    18   ar
    28    27    28   ar
    29    28    29   ar
    30    29    32    1
    31    32    33    1
    32    29    24   ar
    33     6     1   ar
    34    18    14   ar
    35    13     7   ar
    36    19    22    1
@<TRIPOS>MOLECULE
*****
 33 36 0 0 0
SMALL
GASTEIGER

@<TRIPOS>ATOM
      1 C           5.0338   -1.6108   24.9786 C.ar    1  UNL1        0.0583
      2 C           5.3107   -2.0037   23.5578 C.ar    1  UNL1        0.0238
      3 C           4.3412   -1.6335   22.4746 C.ar    1  UNL1        0.0829
      4 N           3.0949   -0.8703   22.8125 N.ar    1  UNL1       -0.2437
      5 C           2.8180   -0.4774   24.2334 C.ar    1  UNL1        0.1009
      6 C           3.7875   -0.8476   25.3164 C.ar    1  UNL1        0.0473
      7 C           4.6181   -2.0264   21.0538 C.ar    1  UNL1        0.0365
      8 C           5.0884   -0.9973   20.0690 C.ar    1  UNL1        0.1003
      9 N           5.3653   -1.3902   18.6482 N.ar    1  UNL1       -0.2426
     10 C           5.1719   -2.8124   18.2120 C.ar    1  UNL1        0.0946
     11 C           4.7017   -3.8415   19.1968 C.ar    1  UNL1       -0.0026
     12 C           4.5083   -5.2636   18.7606 C.3     1  UNL1        0.0327
     13 C           4.4248   -3.4485   20.6177 C.ar    1  UNL1        0.0003
     14 C           3.5106   -0.4547   26.7374 C.ar    1  UNL1        0.1124
     15 N           3.0362   -1.3683   27.8284 N.ar    1  UNL1       -0.2367
     16 C           2.8920   -0.5574   29.0820 C.ar    1  UNL1        0.1064
     17 C           3.2772    0.8575   28.7658 C.ar    1  UNL1        0.0575
     18 S           3.6595    0.9209   27.3168 S.2     1  UNL1       -0.0658
     19 N           5.7470   -3.1856   26.9180 N.am    1  UNL1       -0.2956
     20 C           6.0033   -1.9810   26.0617 C.2     1  UNL1        0.2463
     21 O           7.2290   -1.1467   26.2885 O.2     1  UNL1       -0.2701
     22 H           4.9426   -3.7333   26.7692 H       1  UNL1        0.1501
     23 C           6.7165   -3.5559   28.0011 C.3     1  UNL1        0.1361
     24 C           6.0684   -2.0789   32.2021 C.ar    1  UNL1        0.1916
     25 C           6.4090   -3.5191   31.9576 C.ar    1  UNL1        0.0430
     26 C           6.6250   -4.0115   30.5573 C.ar    1  UNL1        0.0198
     27 C           6.5005   -3.0636   29.4015 C.ar    1  UNL1        0.0821
     28 N           6.1599   -1.6234   29.6460 N.ar    1  UNL1       -0.2117
     29 C           5.9439   -1.1311   31.0463 C.ar    1  UNL1        0.2598
     30 C           4.4600   -1.4519   34.1437 C.3     1  UNL1        0.2527
     31 O           5.8524   -1.5866   33.6025 O.3     1  UNL1       -0.4667
     32 O           5.6034    0.3092   31.2908 O.3     1  UNL1       -0.4541
     33 C           6.4714    1.3921   30.7218 C.3     1  UNL1        0.2543
@<TRIPOS>BOND
     1    30    31    1
     2    31    24    1
     3    24    25   ar
     4    25    26   ar
     5    26    27   ar
     6    27    23    1
     7    23    19    1
     8    19    20   am
     9    20    21    2
    10    20     1    1
    11     1     2   ar
    12     2     3   ar
    13     3     7    1
    14     7     8   ar
    15     8     9   ar
    16     9    10   ar
    17    10    11   ar
    18    11    12    1
    19    11    13   ar
    20     3     4   ar
    21     4     5   ar
    22     5     6   ar
    23     6    14    1
    24    14    15   ar
    25    15    16   ar
    26    16    17   ar
    27    17    18   ar
    28    27    28   ar
    29    28    29   ar
    30    29    32    1
    31    32    33    1
    32    29    24   ar
    33     6     1   ar
    34    18    14   ar
    35    13     7   ar
    36    19    22    1
@<TRIPOS>MOLECULE
*****
 33 36 0 0 0
SMALL
GASTEIGER

@<TRIPOS>ATOM
      1 C           6.4170   -2.9392   25.4096 C.ar    1  UNL1        0.0583
      2 C           6.1050   -2.7382   23.9563 C.ar    1  UNL1        0.0238
      3 C           6.3904   -3.8315   22.9696 C.ar    1  UNL1        0.0829
      4 N           6.9880   -5.1257   23.4364 N.ar    1  UNL1       -0.2437
      5 C           7.3001   -5.3267   24.8898 C.ar    1  UNL1        0.1009
      6 C           7.0146   -4.2334   25.8763 C.ar    1  UNL1        0.0473
      7 C           6.0784   -3.6304   21.5163 C.ar    1  UNL1        0.0365
      8 C           7.0797   -2.9653   20.6192 C.ar    1  UNL1        0.1003
      9 N           6.7676   -2.7643   19.1659 N.ar    1  UNL1       -0.2426
     10 C           5.4541   -3.2284   18.6096 C.ar    1  UNL1        0.0946
     11 C           4.4528   -3.8936   19.5068 C.ar    1  UNL1       -0.0026
     12 C           3.1393   -4.3578   18.9506 C.3     1  UNL1        0.0327
     13 C           4.7649   -4.0946   20.9601 C.ar    1  UNL1        0.0003
     14 C           7.3267   -4.4344   27.3297 C.ar    1  UNL1        0.1124
     15 N           8.5594   -3.9600   28.0406 N.ar    1  UNL1       -0.2367
     16 C           8.4554   -4.3774   29.4776 C.ar    1  UNL1        0.1064
     17 C           7.1584   -5.1099   29.6548 C.ar    1  UNL1        0.0575
     18 S           6.4608   -5.1451   28.3273 S.2     1  UNL1       -0.0658
     19 N           4.7542   -1.6952   26.9708 N.am    1  UNL1       -0.2956
     20 C           6.1316   -1.8459   26.3962 C.2     1  UNL1        0.2463
     21 O           7.2234   -0.9035   26.8081 O.2     1  UNL1       -0.2701
     22 H           4.0376   -2.3137   26.7004 H       1  UNL1        0.1501
     23 C           4.4687   -0.6020   27.9574 C.3     1  UNL1        0.1361
     24 C           4.2168   -1.5449   32.3503 C.ar    1  UNL1        0.1916
     25 C           3.1482   -0.7188   31.6980 C.ar    1  UNL1        0.0430
     26 C           3.2322   -0.4044   30.2338 C.ar    1  UNL1        0.0198
     27 C           4.3847   -0.9163   29.4217 C.ar    1  UNL1        0.0821
     28 N           5.4534   -1.7425   30.0739 N.ar    1  UNL1       -0.2117
     29 C           5.3694   -2.0568   31.5382 C.ar    1  UNL1        0.2598
     30 C           4.7170   -0.9115   34.8198 C.3     1  UNL1        0.2527
     31 O           4.1328   -1.8593   33.8146 O.3     1  UNL1       -0.4667
     32 O           6.4381   -2.8830   32.1904 O.3     1  UNL1       -0.4541
     33 C           7.7605   -2.2636   32.5332 C.3     1  UNL1        0.2543
@<TRIPOS>BOND
     1    30    31    1
     2    31    24    1
     3    24    25   ar
     4    25    26   ar
     5    26    27   ar
     6    27    23    1
     7    23    19    1
     8    19    20   am
     9    20    21    2
    10    20     1    1
    11     1     2   ar
    12     2     3   ar
    13     3     7    1
    14     7     8   ar
    15     8     9   ar
    16     9    10   ar
    17    10    11   ar
    18    11    12    1
    19    11    13   ar
    20     3     4   ar
    21     4     5   ar
    22     5     6   ar
    23     6    14    1
    24    14    15   ar
    25    15    16   ar
    26    16    17   ar
    27    17    18   ar
    28    27    28   ar
    29    28    29   ar
    30    29    32    1
    31    32    33    1
    32    29    24   ar
    33     6     1   ar
    34    18    14   ar
    35    13     7   ar
    36    19    22    1
@<TRIPOS>MOLECULE
*****
 33 36 0 0 0
SMALL
GASTEIGER

@<TRIPOS>ATOM
      1 C           1.3487    1.2244   21.5880 C.ar    1  UNL1        0.0583
      2 C           2.3338    0.0982   21.4819 C.ar    1  UNL1        0.0238
      3 C           2.5763   -0.5639   20.1579 C.ar    1  UNL1        0.0829
      4 N           1.8336   -0.0998   18.9401 N.ar    1  UNL1       -0.2437
      5 C           0.8484    1.0263   19.0463 C.ar    1  UNL1        0.1009
      6 C           0.6060    1.6884   20.3702 C.ar    1  UNL1        0.0473
      7 C           3.5615   -1.6900   20.0518 C.ar    1  UNL1        0.0365
      8 C           3.9336   -2.2366   18.7054 C.ar    1  UNL1        0.1003
      9 N           4.9187   -3.3627   18.5992 N.ar    1  UNL1       -0.2426
     10 C           5.5318   -3.9423   19.8395 C.ar    1  UNL1        0.0946
     11 C           5.1597   -3.3957   21.1859 C.ar    1  UNL1       -0.0026
     12 C           5.7728   -3.9752   22.4262 C.3     1  UNL1        0.0327
     13 C           4.1745   -2.2695   21.2920 C.ar    1  UNL1        0.0003
     14 C          -0.3792    2.8146   20.4764 C.ar    1  UNL1        0.1124
     15 N          -1.7761    2.7163   21.0141 N.ar    1  UNL1       -0.2367
     16 C          -2.4006    4.0777   20.9336 C.ar    1  UNL1        0.1064
     17 C          -1.3898    5.0174   20.3461 C.ar    1  UNL1        0.0575
     18 S          -0.1405    4.2367   20.0636 S.2     1  UNL1       -0.0658
     19 N          -0.0592    1.4669   23.7581 N.am    1  UNL1       -0.2956
     20 C           1.1062    1.8865   22.9120 C.2     1  UNL1        0.2463
     21 O           2.0291    2.9681   23.3899 O.2     1  UNL1       -0.2701
     22 H          -0.6649    0.7570   23.4445 H       1  UNL1        0.1501
     23 C          -0.3017    2.1290   25.0820 C.3     1  UNL1        0.1361
     24 C           1.1624    0.1893   28.8694 C.ar    1  UNL1        0.1916
     25 C          -0.2655    0.6351   28.7586 C.ar    1  UNL1        0.0430
     26 C          -0.7536    1.2816   27.4961 C.ar    1  UNL1        0.0198
     27 C           0.1863    1.4824   26.3445 C.ar    1  UNL1        0.0821
     28 N           1.6142    1.0367   26.4554 N.ar    1  UNL1       -0.2117
     29 C           2.1023    0.3902   27.7178 C.ar    1  UNL1        0.2598
     30 C           2.4945    0.3225   31.0960 C.3     1  UNL1        0.2527
     31 O           1.6504   -0.4572   30.1319 O.3     1  UNL1       -0.4667
     32 O           3.5303   -0.0556   27.8287 O.3     1  UNL1       -0.4541
     33 C           3.9069   -1.4622   27.4691 C.3     1  UNL1        0.2543
@<TRIPOS>BOND
     1    30    31    1
     2    31    24    1
     3    24    25   ar
     4    25    26   ar
     5    26    27   ar
     6    27    23    1
     7    23    19    1
     8    19    20   am
     9    20    21    2
    10    20     1    1
    11     1     2   ar
    12     2     3   ar
    13     3     7    1
    14     7     8   ar
    15     8     9   ar
    16     9    10   ar
    17    10    11   ar
    18    11    12    1
    19    11    13   ar
    20     3     4   ar
    21     4     5   ar
    22     5     6   ar
    23     6    14    1
    24    14    15   ar
    25    15    16   ar
    26    16    17   ar
    27    17    18   ar
    28    27    28   ar
    29    28    29   ar
    30    29    32    1
    31    32    33    1
    32    29    24   ar
    33     6     1   ar
    34    18    14   ar
    35    13     7   ar
    36    19    22    1
@<TRIPOS>MOLECULE
*****
 33 36 0 0 0
SMALL
GASTEIGER

@<TRIPOS>ATOM
      1 C          -1.2425    3.1424   22.9110 C.ar    1  UNL1        0.0583
      2 C          -2.6739    3.5844   22.8345 C.ar    1  UNL1        0.0238
      3 C          -3.4847    3.7210   24.0891 C.ar    1  UNL1        0.0829
      4 N          -2.8641    3.4156   25.4201 N.ar    1  UNL1       -0.2437
      5 C          -1.4327    2.9736   25.4965 C.ar    1  UNL1        0.1009
      6 C          -0.6219    2.8370   24.2420 C.ar    1  UNL1        0.0473
      7 C          -4.9160    4.1629   24.0127 C.ar    1  UNL1        0.0365
      8 C          -5.7699    3.7425   22.8533 C.ar    1  UNL1        0.1003
      9 N          -7.2013    4.1844   22.7769 N.ar    1  UNL1       -0.2426
     10 C          -7.7788    5.0469   23.8598 C.ar    1  UNL1        0.0946
     11 C          -6.9249    5.4673   25.0192 C.ar    1  UNL1       -0.0026
     12 C          -7.5024    6.3296   26.1022 C.3     1  UNL1        0.0327
     13 C          -5.4935    5.0253   25.0956 C.ar    1  UNL1        0.0003
     14 C           0.8095    2.3951   24.3184 C.ar    1  UNL1        0.1124
     15 N           1.3133    0.9980   24.1081 N.ar    1  UNL1       -0.2367
     16 C           2.8035    1.0121   24.2782 C.ar    1  UNL1        0.1064
     17 C           3.2208    2.4180   24.5937 C.ar    1  UNL1        0.0575
     18 S           1.9884    3.2727   24.6185 S.2     1  UNL1       -0.0658
     19 N          -0.5717    1.7805   20.8026 N.am    1  UNL1       -0.2956
     20 C          -0.4317    3.0059   21.6563 C.2     1  UNL1        0.2463
     21 O           0.5190    4.0946   21.2556 O.2     1  UNL1       -0.2701
     22 H          -1.1957    1.0659   21.0656 H       1  UNL1        0.1501
     23 C           0.2391    1.6439   19.5480 C.3     1  UNL1        0.1361
     24 C           3.6058   -1.3359   19.3580 C.ar    1  UNL1        0.1916
     25 C           2.7581   -1.2396   20.5918 C.ar    1  UNL1        0.0430
     26 C           1.6359   -0.2464   20.6551 C.ar    1  UNL1        0.0198
     27 C           1.3613    0.6506   19.4847 C.ar    1  UNL1        0.0821
     28 N           2.2090    0.5544   18.2509 N.ar    1  UNL1       -0.2117
     29 C           3.3312   -0.4389   18.1876 C.ar    1  UNL1        0.2598
     30 C           4.4864   -3.6989   18.7332 C.3     1  UNL1        0.2527
     31 O           4.7280   -2.3292   19.2947 O.3     1  UNL1       -0.4667
     32 O           4.1789   -0.5351   16.9538 O.3     1  UNL1       -0.4541
     33 C           5.5090    0.1561   16.9019 C.3     1  UNL1        0.2543
@<TRIPOS>BOND
     1    30    31    1
     2    31    24    1
     3    24    25   ar
     4    25    26   ar
     5    26    27   ar
     6    27    23    1
     7    23    19    1
     8    19    20   am
     9    20    21    2
    10    20     1    1
    11     1     2   ar
    12     2     3   ar
    13     3     7    1
    14     7     8   ar
    15     8     9   ar
    16     9    10   ar
    17    10    11   ar
    18    11    12    1
    19    11    13   ar
    20     3     4   ar
    21     4     5   ar
    22     5     6   ar
    23     6    14    1
    24    14    15   ar
    25    15    16   ar
    26    16    17   ar
    27    17    18   ar
    28    27    28   ar
    29    28    29   ar
    30    29    32    1
    31    32    33    1
    32    29    24   ar
    33     6     1   ar
    34    18    14   ar
    35    13     7   ar
    36    19    22    1
@<TRIPOS>MOLECULE
*****
 33 36 0 0 0
SMALL
GASTEIGER

@<TRIPOS>ATOM
      1 C           6.5538   -3.1175   29.9280 C.ar    1  UNL1        0.0583
      2 C           7.1270   -4.1036   28.9539 C.ar    1  UNL1        0.0238
      3 C           7.5098   -5.4784   29.4160 C.ar    1  UNL1        0.0829
      4 N           7.3193   -5.8670   30.8522 N.ar    1  UNL1       -0.2437
      5 C           6.7461   -4.8808   31.8263 C.ar    1  UNL1        0.1009
      6 C           6.3633   -3.5061   31.3642 C.ar    1  UNL1        0.0473
      7 C           8.0830   -6.4646   28.4419 C.ar    1  UNL1        0.0365
      8 C           8.9619   -7.5774   28.9308 C.ar    1  UNL1        0.1003
      9 N           9.5351   -8.5636   27.9567 N.ar    1  UNL1       -0.2426
     10 C           9.2294   -8.4369   26.4936 C.ar    1  UNL1        0.0946
     11 C           8.3505   -7.3240   26.0047 C.ar    1  UNL1       -0.0026
     12 C           8.0448   -7.1973   24.5417 C.3     1  UNL1        0.0327
     13 C           7.7773   -6.3378   26.9789 C.ar    1  UNL1        0.0003
     14 C           5.7901   -2.5198   32.3383 C.ar    1  UNL1        0.1124
     15 N           4.3495   -2.4161   32.7433 N.ar    1  UNL1       -0.2367
     16 C           4.2259   -1.2964   33.7337 C.ar    1  UNL1        0.1064
     17 C           5.5901   -0.7080   33.9408 C.ar    1  UNL1        0.0575
     18 S           6.5568   -1.4642   33.0784 S.2     1  UNL1       -0.0658
     19 N           4.7775   -1.4761   28.9787 N.am    1  UNL1       -0.2956
     20 C           6.1710   -1.7427   29.4659 C.2     1  UNL1        0.2463
     21 O           7.1816   -0.6346   29.4909 O.2     1  UNL1       -0.2701
     22 H           4.1142   -2.2035   28.9623 H       1  UNL1        0.1501
     23 C           4.3947   -0.1014   28.5166 C.3     1  UNL1        0.1361
     24 C           1.2465    2.2236   30.7378 C.ar    1  UNL1        0.1916
     25 C           2.6825    2.6519   30.8052 C.ar    1  UNL1        0.0430
     26 C           3.7319    1.8769   30.0648 C.ar    1  UNL1        0.0198
     27 C           3.3453    0.6736   29.2570 C.ar    1  UNL1        0.0821
     28 N           1.9094    0.2453   29.1895 N.ar    1  UNL1       -0.2117
     29 C           0.8600    1.0203   29.9299 C.ar    1  UNL1        0.2598
     30 C           0.5993    3.9947   32.5250 C.3     1  UNL1        0.2527
     31 O           0.1972    2.9986   31.4781 O.3     1  UNL1       -0.4667
     32 O          -0.5760    0.5920   29.8624 O.3     1  UNL1       -0.4541
     33 C          -1.0231   -0.3685   28.8006 C.3     1  UNL1        0.2543
@<TRIPOS>BOND
     1    30    31    1
     2    31    24    1
     3    24    25   ar
     4    25    26   ar
     5    26    27   ar
     6    27    23    1
     7    23    19    1
     8    19    20   am
     9    20    21    2
    10    20     1    1
    11     1     2   ar
    12     2     3   ar
    13     3     7    1
    14     7     8   ar
    15     8     9   ar
    16     9    10   ar
    17    10    11   ar
    18    11    12    1
    19    11    13   ar
    20     3     4   ar
    21     4     5   ar
    22     5     6   ar
    23     6    14    1
    24    14    15   ar
    25    15    16   ar
    26    16    17   ar
    27    17    18   ar
    28    27    28   ar
    29    28    29   ar
    30    29    32    1
    31    32    33    1
    32    29    24   ar
    33     6     1   ar
    34    18    14   ar
    35    13     7   ar
    36    19    22    1
@<TRIPOS>MOLECULE
*****
 33 36 0 0 0
SMALL
GASTEIGER

@<TRIPOS>ATOM
      1 C           5.5448   -2.2128   24.4512 C.ar    1  UNL1        0.0583
      2 C           4.6837   -1.4975   23.4528 C.ar    1  UNL1        0.0238
      3 C           4.4966   -2.0685   22.0783 C.ar    1  UNL1        0.0829
      4 N           5.1705   -3.3547   21.7023 N.ar    1  UNL1       -0.2437
      5 C           6.0316   -4.0700   22.7008 C.ar    1  UNL1        0.1009
      6 C           6.2187   -3.4991   24.0752 C.ar    1  UNL1        0.0473
      7 C           3.6355   -1.3531   21.0799 C.ar    1  UNL1        0.0365
      8 C           2.3807   -0.6645   21.5287 C.ar    1  UNL1        0.1003
      9 N           1.5197    0.0508   20.5303 N.ar    1  UNL1       -0.2426
     10 C           1.9133    0.0775   19.0830 C.ar    1  UNL1        0.0946
     11 C           3.1681   -0.6111   18.6343 C.ar    1  UNL1       -0.0026
     12 C           3.5618   -0.5844   17.1872 C.3     1  UNL1        0.0327
     13 C           4.0292   -1.3264   19.6328 C.ar    1  UNL1        0.0003
     14 C           7.0798   -4.2144   25.0737 C.ar    1  UNL1        0.1124
     15 N           6.5937   -4.9882   26.2632 N.ar    1  UNL1       -0.2367
     16 C           7.7917   -5.5335   26.9826 C.ar    1  UNL1        0.1064
     17 C           9.0182   -5.0968   26.2376 C.ar    1  UNL1        0.0575
     18 S           8.5783   -4.2815   25.0579 S.2     1  UNL1       -0.0658
     19 N           4.9242   -2.1705   26.9737 N.am    1  UNL1       -0.2956
     20 C           5.7320   -1.6419   25.8256 C.2     1  UNL1        0.2463
     21 O           6.7269   -0.5424   26.0520 O.2     1  UNL1       -0.2701
     22 H           4.2712   -2.8921   26.8252 H       1  UNL1        0.1501
     23 C           5.1114   -1.5996   28.3481 C.3     1  UNL1        0.1361
     24 C           1.7427    0.6221   30.3396 C.ar    1  UNL1        0.1916
     25 C           3.1366    0.7294   30.8831 C.ar    1  UNL1        0.0430
     26 C           4.2595   -0.0112   30.2192 C.ar    1  UNL1        0.0198
     27 C           3.9885   -0.8591   29.0120 C.ar    1  UNL1        0.0821
     28 N           2.5945   -0.9664   28.4685 N.ar    1  UNL1       -0.2117
     29 C           1.4716   -0.2258   29.1323 C.ar    1  UNL1        0.2598
     30 C           0.9159    2.5344   31.8918 C.3     1  UNL1        0.2527
     31 O           0.6198    1.3626   31.0034 O.3     1  UNL1       -0.4667
     32 O           0.0777   -0.3332   28.5888 O.3     1  UNL1       -0.4541
     33 C          -0.4704    0.7520   27.7101 C.3     1  UNL1        0.2543
@<TRIPOS>BOND
     1    30    31    1
     2    31    24    1
     3    24    25   ar
     4    25    26   ar
     5    26    27   ar
     6    27    23    1
     7    23    19    1
     8    19    20   am
     9    20    21    2
    10    20     1    1
    11     1     2   ar
    12     2     3   ar
    13     3     7    1
    14     7     8   ar
    15     8     9   ar
    16     9    10   ar
    17    10    11   ar
    18    11    12    1
    19    11    13   ar
    20     3     4   ar
    21     4     5   ar
    22     5     6   ar
    23     6    14    1
    24    14    15   ar
    25    15    16   ar
    26    16    17   ar
    27    17    18   ar
    28    27    28   ar
    29    28    29   ar
    30    29    32    1
    31    32    33    1
    32    29    24   ar
    33     6     1   ar
    34    18    14   ar
    35    13     7   ar
    36    19    22    1
