@<TRIPOS>MOLECULE
*****
 39 43 0 0 0
SMALL
GASTEIGER

@<TRIPOS>ATOM
      1 CA          0.4340    4.4627   24.2156 C.3     2  LEU2        0.1523
      2 C           1.4820    4.5644   23.1473 C.2     2  LEU2        0.2409
      3 O           1.9381    5.9114   22.6699 O.2     2  LEU2       -0.2733
      4 N           2.0739    3.3193   22.5563 N.am    1  UNK1       -0.2970
      5 C           1.6178    1.9724   23.0337 C.3     1  UNK1        0.1494
      6 C           0.5699    1.8707   24.1021 C.2     1  UNK1        0.2444
      7 O           0.1138    0.5238   24.5795 O.2     1  UNK1       -0.2731
      8 N          -0.0220    3.1159   24.6930 N.am    2  LEU2       -0.2615
      9 H           2.7617    3.3861   21.8551 H       1  UNK1        0.1499
     10 C           2.2097    0.7273   22.4427 C.3     1  UNK1        0.0356
     11 C           2.0372    0.2536   21.0300 C.3     1  UNK1        0.0285
     12 C           2.7990   -1.0292   20.8749 C.ar    1  UNK1       -0.0261
     13 C           2.9899   -1.9479   19.7046 C.ar    1  UNK1       -0.0046
     14 C           3.8241   -3.1858   19.8513 C.ar    1  UNK1       -0.0003
     15 C           4.4674   -3.5051   21.1682 C.ar    1  UNK1       -0.0003
     16 C           4.2765   -2.5864   22.3384 C.ar    1  UNK1       -0.0046
     17 C           3.4422   -1.3485   22.1918 C.ar    1  UNK1       -0.0261
     18 C           3.0781   -0.2629   23.1607 C.3     1  UNK1        0.0285
     19 CB         -0.1579    5.7079   24.8066 C.3     2  LEU2        0.0292
     20 CD1        -1.5478    6.1879   22.6648 C.3     2  LEU2        0.0001
     21 CG         -1.3200    6.3776   24.1352 C.3     2  LEU2        0.0021
     22 CD2        -2.2543    7.2372   24.9341 C.3     2  LEU2        0.0001
     23 C          -1.0700    3.0141   25.7614 C.3     0  UNK0        0.1751
     24 C          -2.4832    3.4219   25.4671 C.ar    0  UNK0        0.0047
     25 C          -3.3239    4.0435   26.5427 C.ar    0  UNK0        0.0009
     26 C          -4.7371    4.4513   26.2483 C.ar    0  UNK0        0.0372
     27 C          -5.3095    4.2375   24.8783 C.ar    0  UNK0        0.1454
     28 O          -6.6596    4.5362   24.2969 O.2     0  UNK0       -0.4504
     29 C          -6.6533    4.0991   22.8620 C.ar    0  UNK0        0.1796
     30 C          -5.2993    3.5304   22.5567 C.ar    0  UNK0        0.0437
     31 C          -4.4688    3.6159   23.8028 C.ar    0  UNK0        0.0375
     32 C          -3.0556    3.2081   24.0972 C.ar    0  UNK0        0.0009
     33 C          -0.7048    2.5045   27.1241 C.2     0  UNK0        0.2449
     34 O          -0.1839    3.4516   28.1642 O.2     0  UNK0       -0.2729
     35 N          -0.8606    1.0479   27.4468 N.am    0  UNK0       -0.3043
     36 H          -1.2024    0.4263   26.7641 H       0  UNK0        0.1494
     37 C          -0.4954    0.5383   28.8094 C.3     0  UNK0        0.0717
     38 C          -1.5696    0.2580   29.8180 C.3     0  UNK0        0.0213
     39 C           0.9441    0.3091   29.1635 C.3     0  UNK0        0.0213
@<TRIPOS>BOND
     1    20    21    1
     2    21    22    1
     3    21    19    1
     4     1    19    1
     5     1     2    1
     6     2     3    2
     7     2     4   am
     8     4     5    1
     9     5    10    1
    10    10    11    1
    11    11    12    1
    12    12    13   ar
    13    13    14   ar
    14    14    15   ar
    15    15    16   ar
    16    16    17   ar
    17    17    18    1
    18     5     6    1
    19     6     7    2
    20     6     8   am
    21    23     8    1
    22    23    33    1
    23    33    34    2
    24    33    35   am
    25    35    37    1
    26    37    38    1
    27    37    39    1
    28    23    24    1
    29    24    25   ar
    30    25    26   ar
    31    26    27   ar
    32    27    28   ar
    33    28    29   ar
    34    29    30   ar
    35    30    31   ar
    36    31    32   ar
    37     8     1    1
    38    32    24   ar
    39    18    10    1
    40    31    27   ar
    41    17    12   ar
    42     4     9    1
    43    35    36    1
@<TRIPOS>MOLECULE
*****
 39 43 0 0 0
SMALL
GASTEIGER

@<TRIPOS>ATOM
      1 CA         -1.5281    3.7107   22.9479 C.3     2  LEU2        0.1523
      2 C          -1.9861    3.1446   21.6366 C.2     2  LEU2        0.2409
      3 O          -3.3534    3.4732   21.1144 O.2     2  LEU2       -0.2733
      4 N          -1.0769    2.2500   20.8473 N.am    1  UNK1       -0.2970
      5 C           0.2904    1.9214   21.3694 C.3     1  UNK1        0.1494
      6 C           0.7484    2.4874   22.6807 C.2     1  UNK1        0.2444
      7 O           2.1157    2.1588   23.2029 O.2     1  UNK1       -0.2731
      8 N          -0.1608    3.3821   23.4700 N.am    2  LEU2       -0.2615
      9 H          -1.3775    1.8785   19.9865 H       1  UNK1        0.1499
     10 C           1.1996    1.0268   20.5801 C.3     1  UNK1        0.0356
     11 C           1.5912   -0.3747   20.9441 C.3     1  UNK1        0.0285
     12 C           2.5104   -0.8911   19.8772 C.ar    1  UNK1       -0.0261
     13 C           3.2095   -2.2070   19.7053 C.ar    1  UNK1       -0.0046
     14 C           4.0852   -2.4406   18.5101 C.ar    1  UNK1       -0.0003
     15 C           4.2618   -1.3582   17.4867 C.ar    1  UNK1       -0.0003
     16 C           3.5627   -0.0423   17.6585 C.ar    1  UNK1       -0.0046
     17 C           2.6870    0.1913   18.8538 C.ar    1  UNK1       -0.0261
     18 C           1.8769    1.3766   19.2882 C.3     1  UNK1        0.0285
     19 CB         -2.4373    4.6053   23.7372 C.3     2  LEU2        0.0292
     20 CD1        -4.6065    3.2495   24.1912 C.3     2  LEU2        0.0001
     21 CG         -3.4203    4.0121   24.7025 C.3     2  LEU2        0.0021
     22 CD2        -3.2172    4.1816   26.1790 C.3     2  LEU2        0.0001
     23 C           0.2973    3.9481   24.7815 C.3     0  UNK0        0.1751
     24 C           0.1526    3.1416   26.0379 C.ar    0  UNK0        0.0047
     25 C          -0.4412    1.7652   25.9815 C.ar    0  UNK0        0.0009
     26 C          -0.5859    0.9587   27.2379 C.ar    0  UNK0        0.0372
     27 C          -0.1368    1.5286   28.5508 C.ar    0  UNK0        0.1454
     28 O          -0.1531    0.9734   29.9441 O.2     0  UNK0       -0.4504
     29 C           0.4305    2.0065   30.8617 C.ar    0  UNK0        0.1796
     30 C           0.8076    3.2003   30.0354 C.ar    0  UNK0        0.0437
     31 C           0.4570    2.9049   28.6072 C.ar    0  UNK0        0.0375
     32 C           0.6016    3.7114   27.3508 C.ar    0  UNK0        0.0009
     33 C           0.9000    5.3205   24.8365 C.2     0  UNK0        0.2449
     34 O           0.0499    6.4987   25.2097 O.2     0  UNK0       -0.2729
     35 N           2.3530    5.5149   24.5182 N.am    0  UNK0       -0.3043
     36 H           2.9110    4.7417   24.2733 H       0  UNK0        0.1494
     37 C           2.9557    6.8874   24.5732 C.3     0  UNK0        0.0717
     38 C           3.4534    7.4362   25.8774 C.3     0  UNK0        0.0213
     39 C           3.0608    7.7110   23.3239 C.3     0  UNK0        0.0213
@<TRIPOS>BOND
     1    20    21    1
     2    21    22    1
     3    21    19    1
     4     1    19    1
     5     1     2    1
     6     2     3    2
     7     2     4   am
     8     4     5    1
     9     5    10    1
    10    10    11    1
    11    11    12    1
    12    12    13   ar
    13    13    14   ar
    14    14    15   ar
    15    15    16   ar
    16    16    17   ar
    17    17    18    1
    18     5     6    1
    19     6     7    2
    20     6     8   am
    21    23     8    1
    22    23    33    1
    23    33    34    2
    24    33    35   am
    25    35    37    1
    26    37    38    1
    27    37    39    1
    28    23    24    1
    29    24    25   ar
    30    25    26   ar
    31    26    27   ar
    32    27    28   ar
    33    28    29   ar
    34    29    30   ar
    35    30    31   ar
    36    31    32   ar
    37     8     1    1
    38    32    24   ar
    39    18    10    1
    40    31    27   ar
    41    17    12   ar
    42     4     9    1
    43    35    36    1
@<TRIPOS>MOLECULE
*****
 39 43 0 0 0
SMALL
GASTEIGER

@<TRIPOS>ATOM
      1 CA          4.9755    1.7054   26.1921 C.3     2  LEU2        0.1523
      2 C           6.3881    1.5853   26.6821 C.2     2  LEU2        0.2409
      3 O           7.3607    2.7031   26.4483 O.2     2  LEU2       -0.2733
      4 N           6.8281    0.3473   27.4059 N.am    1  UNK1       -0.2970
      5 C           5.8555   -0.7705   27.6397 C.3     1  UNK1        0.1494
      6 C           4.4430   -0.6503   27.1496 C.2     1  UNK1        0.2444
      7 O           3.4703   -1.7681   27.3834 O.2     1  UNK1       -0.2731
      8 N           4.0030    0.5877   26.4258 N.am    2  LEU2       -0.2615
      9 H           7.7552    0.2685   27.7275 H       1  UNK1        0.1499
     10 C           6.2955   -2.0084   28.3635 C.3     1  UNK1        0.0356
     11 C           6.9380   -3.2124   27.7409 C.3     1  UNK1        0.0285
     12 C           7.2099   -4.2078   28.8296 C.ar    1  UNK1       -0.0261
     13 C           7.8281   -5.5743   28.8086 C.ar    1  UNK1       -0.0046
     14 C           7.9720   -6.3519   30.0832 C.ar    1  UNK1       -0.0003
     15 C           7.4976   -5.7631   31.3787 C.ar    1  UNK1       -0.0003
     16 C           6.8794   -4.3966   31.3996 C.ar    1  UNK1       -0.0046
     17 C           6.7355   -3.6190   30.1250 C.ar    1  UNK1       -0.0261
     18 C           6.1704   -2.2597   29.8370 C.3     1  UNK1        0.0285
     19 CB          4.5355    2.9434   25.4682 C.3     2  LEU2        0.0292
     20 CD1         3.7268    3.9263   23.2034 C.3     2  LEU2        0.0001
     21 CG          4.6342    3.0131   23.9732 C.3     2  LEU2        0.0021
     22 CD2         5.6404    2.1695   23.2478 C.3     2  LEU2        0.0001
     23 C           2.5903    0.7078   25.9358 C.3     0  UNK0        0.1751
     24 C           2.2794    0.4943   24.4840 C.ar    0  UNK0        0.0047
     25 C           1.1658    1.2615   23.8347 C.ar    0  UNK0        0.0009
     26 C           0.8549    1.0481   22.3829 C.ar    0  UNK0        0.0372
     27 C           1.6576    0.0674   21.5803 C.ar    0  UNK0        0.1454
     28 O           1.5835   -0.3511   20.1418 O.2     0  UNK0       -0.4504
     29 C           2.6512   -1.3770   19.9020 C.ar    0  UNK0        0.1796
     30 C           3.3852   -1.5925   21.1923 C.ar    0  UNK0        0.0437
     31 C           2.7711   -0.6997   22.2296 C.ar    0  UNK0        0.0375
     32 C           3.0820   -0.4863   23.6814 C.ar    0  UNK0        0.0009
     33 C           1.4886    1.0414   26.8975 C.2     0  UNK0        0.2449
     34 O           0.8353    2.3908   26.8509 O.2     0  UNK0       -0.2729
     35 N           1.0403    0.0255   27.9060 N.am    0  UNK0       -0.3043
     36 H           1.4690   -0.8602   27.9367 H       0  UNK0        0.1494
     37 C          -0.0614    0.3590   28.8678 C.3     0  UNK0        0.0717
     38 C          -1.3907   -0.3263   28.7525 C.3     0  UNK0        0.0213
     39 C           0.1662    1.3779   29.9448 C.3     0  UNK0        0.0213
@<TRIPOS>BOND
     1    20    21    1
     2    21    22    1
     3    21    19    1
     4     1    19    1
     5     1     2    1
     6     2     3    2
     7     2     4   am
     8     4     5    1
     9     5    10    1
    10    10    11    1
    11    11    12    1
    12    12    13   ar
    13    13    14   ar
    14    14    15   ar
    15    15    16   ar
    16    16    17   ar
    17    17    18    1
    18     5     6    1
    19     6     7    2
    20     6     8   am
    21    23     8    1
    22    23    33    1
    23    33    34    2
    24    33    35   am
    25    35    37    1
    26    37    38    1
    27    37    39    1
    28    23    24    1
    29    24    25   ar
    30    25    26   ar
    31    26    27   ar
    32    27    28   ar
    33    28    29   ar
    34    29    30   ar
    35    30    31   ar
    36    31    32   ar
    37     8     1    1
    38    32    24   ar
    39    18    10    1
    40    31    27   ar
    41    17    12   ar
    42     4     9    1
    43    35    36    1
@<TRIPOS>MOLECULE
*****
 39 43 0 0 0
SMALL
GASTEIGER

@<TRIPOS>ATOM
      1 CA          3.8533    2.2388   21.7381 C.3     2  LEU2        0.1523
      2 C           3.3347    3.3852   20.9215 C.2     2  LEU2        0.2409
      3 O           4.2887    4.2494   20.1513 O.2     2  LEU2       -0.2733
      4 N           1.8623    3.6674   20.8752 N.am    1  UNK1       -0.2970
      5 C           0.9083    2.8033   21.6453 C.3     1  UNK1        0.1494
      6 C           1.4269    1.6569   22.4619 C.2     1  UNK1        0.2444
      7 O           0.4729    0.7927   23.2322 O.2     1  UNK1       -0.2731
      8 N           2.8993    1.3746   22.5083 N.am    2  LEU2       -0.2615
      9 H           1.5220    4.4199   20.3392 H       1  UNK1        0.1499
     10 C          -0.5641    3.0856   21.5990 C.3     1  UNK1        0.0356
     11 C          -1.4131    3.5320   22.7522 C.3     1  UNK1        0.0285
     12 C          -2.8198    3.6933   22.2572 C.ar    1  UNK1       -0.0261
     13 C          -4.0847    4.1111   22.9467 C.ar    1  UNK1       -0.0046
     14 C          -5.3701    4.1823   22.1769 C.ar    1  UNK1       -0.0003
     15 C          -5.3906    3.8356   20.7177 C.ar    1  UNK1       -0.0003
     16 C          -4.1257    3.4178   20.0282 C.ar    1  UNK1       -0.0046
     17 C          -2.8403    3.3467   20.7980 C.ar    1  UNK1       -0.0261
     18 C          -1.4462    2.9711   20.3912 C.3     1  UNK1        0.0285
     19 CB          5.3257    1.9565   21.7845 C.3     2  LEU2        0.0292
     20 CD1         5.5207    1.0676   19.3510 C.3     2  LEU2        0.0001
     21 CG          5.9410    1.0171   20.7900 C.3     2  LEU2        0.0021
     22 CD2         6.9766    0.0271   21.2346 C.3     2  LEU2        0.0001
     23 C           3.4178    0.2282   23.3249 C.3     0  UNK0        0.1751
     24 C           3.7488   -1.0759   22.6616 C.ar    0  UNK0        0.0047
     25 C           4.4730   -2.1439   23.4266 C.ar    0  UNK0        0.0009
     26 C           4.8040   -3.4479   22.7633 C.ar    0  UNK0        0.0372
     27 C           4.4108   -3.6839   21.3351 C.ar    0  UNK0        0.1454
     28 O           4.6005   -4.8596   20.4231 O.2     0  UNK0       -0.4504
     29 C           3.9935   -4.5182   19.0945 C.ar    0  UNK0        0.1796
     30 C           3.4288   -3.1316   19.1854 C.ar    0  UNK0        0.0437
     31 C           3.6867   -2.6160   20.5702 C.ar    0  UNK0        0.0375
     32 C           3.3557   -1.3119   21.2335 C.ar    0  UNK0        0.0009
     33 C           3.6053    0.3857   24.8048 C.2     0  UNK0        0.2449
     34 O           4.9374    0.8062   25.3514 O.2     0  UNK0       -0.2729
     35 N           2.4607    0.1229   25.7380 N.am    0  UNK0       -0.3043
     36 H           1.5864   -0.1531   25.3792 H       0  UNK0        0.1494
     37 C           2.6482    0.2805   27.2179 C.3     0  UNK0        0.0717
     38 C           2.3917    1.6071   27.8692 C.3     0  UNK0        0.0213
     39 C           3.0922   -0.8885   28.0463 C.3     0  UNK0        0.0213
@<TRIPOS>BOND
     1    20    21    1
     2    21    22    1
     3    21    19    1
     4     1    19    1
     5     1     2    1
     6     2     3    2
     7     2     4   am
     8     4     5    1
     9     5    10    1
    10    10    11    1
    11    11    12    1
    12    12    13   ar
    13    13    14   ar
    14    14    15   ar
    15    15    16   ar
    16    16    17   ar
    17    17    18    1
    18     5     6    1
    19     6     7    2
    20     6     8   am
    21    23     8    1
    22    23    33    1
    23    33    34    2
    24    33    35   am
    25    35    37    1
    26    37    38    1
    27    37    39    1
    28    23    24    1
    29    24    25   ar
    30    25    26   ar
    31    26    27   ar
    32    27    28   ar
    33    28    29   ar
    34    29    30   ar
    35    30    31   ar
    36    31    32   ar
    37     8     1    1
    38    32    24   ar
    39    18    10    1
    40    31    27   ar
    41    17    12   ar
    42     4     9    1
    43    35    36    1
@<TRIPOS>MOLECULE
*****
 39 43 0 0 0
SMALL
GASTEIGER

@<TRIPOS>ATOM
      1 CA          4.4402    2.6648   30.1360 C.3     2  LEU2        0.1523
      2 C           4.6593    4.1056   30.4910 C.2     2  LEU2        0.2409
      3 O           5.8128    4.8576   29.8961 O.2     2  LEU2       -0.2733
      4 N           3.7249    4.7944   31.4409 N.am    1  UNK1       -0.2970
      5 C           2.5714    4.0424   32.0359 C.3     1  UNK1        0.1494
      6 C           2.3523    2.6017   31.6808 C.2     1  UNK1        0.2444
      7 O           1.1987    1.8496   32.2757 O.2     1  UNK1       -0.2731
      8 N           3.2867    1.9128   30.7309 N.am    2  LEU2       -0.2615
      9 H           3.8687    5.7401   31.6740 H       1  UNK1        0.1499
     10 C           1.6370    4.7313   32.9858 C.3     1  UNK1        0.0356
     11 C           1.8802    4.9657   34.4473 C.3     1  UNK1        0.0285
     12 C           0.6888    5.6859   35.0058 C.ar    1  UNK1       -0.0261
     13 C           0.3694    6.1771   36.3866 C.ar    1  UNK1       -0.0046
     14 C          -0.9296    6.8790   36.6511 C.ar    1  UNK1       -0.0003
     15 C          -1.9091    7.0897   35.5348 C.ar    1  UNK1       -0.0003
     16 C          -1.5897    6.5985   34.1540 C.ar    1  UNK1       -0.0046
     17 C          -0.2907    5.8966   33.8895 C.ar    1  UNK1       -0.0261
     18 C           0.2953    5.3066   32.6411 C.3     1  UNK1        0.0285
     19 CB          5.3746    1.9760   29.1860 C.3     2  LEU2        0.0292
     20 CD1         5.6606    0.6965   26.9430 C.3     2  LEU2        0.0001
     21 CG          4.9568    1.7346   27.7658 C.3     2  LEU2        0.0021
     22 CD2         3.8352    2.5315   27.1682 C.3     2  LEU2        0.0001
     23 C           3.0676    0.4720   30.3758 C.3     0  UNK0        0.1751
     24 C           3.9220   -0.5922   30.9984 C.ar    0  UNK0        0.0047
     25 C           3.6994   -0.9925   32.4268 C.ar    0  UNK0        0.0009
     26 C           4.5539   -2.0566   33.0493 C.ar    0  UNK0        0.0372
     27 C           5.6309   -2.7204   32.2434 C.ar    0  UNK0        0.1454
     28 O           6.6227   -3.7929   32.5842 O.2     0  UNK0       -0.4504
     29 C           7.4582   -4.0554   31.3664 C.ar    0  UNK0        0.1796
     30 C           6.9828   -3.1452   30.2731 C.ar    0  UNK0        0.0437
     31 C           5.8535   -2.3201   30.8151 C.ar    0  UNK0        0.0375
     32 C           4.9990   -1.2559   30.1926 C.ar    0  UNK0        0.0009
     33 C           1.9940    0.0953   29.3983 C.2     0  UNK0        0.2449
     34 O           2.2216   -1.0276   28.4302 O.2     0  UNK0       -0.2729
     35 N           0.6928    0.8416   29.3889 N.am    0  UNK0       -0.3043
     36 H           0.5434    1.5786   30.0243 H       0  UNK0        0.1494
     37 C          -0.3807    0.4649   28.4114 C.3     0  UNK0        0.0717
     38 C          -1.3965   -0.5763   28.7774 C.3     0  UNK0        0.0213
     39 C          -0.4385    1.1295   27.0678 C.3     0  UNK0        0.0213
@<TRIPOS>BOND
     1    20    21    1
     2    21    22    1
     3    21    19    1
     4     1    19    1
     5     1     2    1
     6     2     3    2
     7     2     4   am
     8     4     5    1
     9     5    10    1
    10    10    11    1
    11    11    12    1
    12    12    13   ar
    13    13    14   ar
    14    14    15   ar
    15    15    16   ar
    16    16    17   ar
    17    17    18    1
    18     5     6    1
    19     6     7    2
    20     6     8   am
    21    23     8    1
    22    23    33    1
    23    33    34    2
    24    33    35   am
    25    35    37    1
    26    37    38    1
    27    37    39    1
    28    23    24    1
    29    24    25   ar
    30    25    26   ar
    31    26    27   ar
    32    27    28   ar
    33    28    29   ar
    34    29    30   ar
    35    30    31   ar
    36    31    32   ar
    37     8     1    1
    38    32    24   ar
    39    18    10    1
    40    31    27   ar
    41    17    12   ar
    42     4     9    1
    43    35    36    1
@<TRIPOS>MOLECULE
*****
 39 43 0 0 0
SMALL
GASTEIGER

@<TRIPOS>ATOM
      1 CA          3.1394    2.8186   21.1461 C.3     2  LEU2        0.1523
      2 C           2.5672    4.1986   21.0118 C.2     2  LEU2        0.2409
      3 O           3.4812    5.3858   20.9397 O.2     2  LEU2       -0.2733
      4 N           1.0809    4.3914   20.9497 N.am    1  UNK1       -0.2970
      5 C           0.1669    3.2043   21.0218 C.3     1  UNK1        0.1494
      6 C           0.7392    1.8243   21.1560 C.2     1  UNK1        0.2444
      7 O          -0.1748    0.6370   21.2281 O.2     1  UNK1       -0.2731
      8 N           2.2254    1.6314   21.2182 N.am    2  LEU2       -0.2615
      9 H           0.7053    5.2972   20.8616 H       1  UNK1        0.1499
     10 C          -1.3193    3.3971   20.9596 C.3     1  UNK1        0.0356
     11 C          -2.2305    3.6105   22.1319 C.3     1  UNK1        0.0285
     12 C          -3.6297    3.7557   21.6111 C.ar    1  UNK1       -0.0261
     13 C          -4.9400    3.9846   22.3043 C.ar    1  UNK1       -0.0046
     14 C          -6.2039    4.0897   21.5034 C.ar    1  UNK1       -0.0003
     15 C          -6.1575    3.9661   20.0092 C.ar    1  UNK1       -0.0003
     16 C          -4.8471    3.7373   19.3160 C.ar    1  UNK1       -0.0046
     17 C          -3.5833    3.6321   20.1169 C.ar    1  UNK1       -0.0261
     18 C          -2.1554    3.4105   19.7143 C.3     1  UNK1        0.0285
     19 CB          4.6257    2.6257   21.2082 C.3     2  LEU2        0.0292
     20 CD1         6.4240    1.5535   22.7465 C.3     2  LEU2        0.0001
     21 CG          5.3163    2.5431   22.5372 C.3     2  LEU2        0.0021
     22 CD2         4.8992    3.4500   23.6569 C.3     2  LEU2        0.0001
     23 C           2.7977    0.2513   21.3524 C.3     0  UNK0        0.1751
     24 C           3.1785   -0.2743   22.7047 C.ar    0  UNK0        0.0047
     25 C           4.0565   -1.4852   22.8186 C.ar    0  UNK0        0.0009
     26 C           4.4374   -2.0109   24.1709 C.ar    0  UNK0        0.0372
     27 C           3.9403   -1.3257   25.4092 C.ar    0  UNK0        0.1454
     28 O           4.1478   -1.6124   26.8668 O.2     0  UNK0       -0.4504
     29 C           3.3980   -0.5786   27.6538 C.ar    0  UNK0        0.1796
     30 C           2.7272    0.3468   26.6825 C.ar    0  UNK0        0.0437
     31 C           3.0623   -0.1149   25.2953 C.ar    0  UNK0        0.0375
     32 C           2.6814    0.4108   23.9430 C.ar    0  UNK0        0.0009
     33 C           2.9890   -0.6030   20.1345 C.2     0  UNK0        0.2449
     34 O           1.9354   -1.5957   19.7416 O.2     0  UNK0       -0.2729
     35 N           4.2340   -0.4646   19.3093 N.am    0  UNK0       -0.3043
     36 H           4.9256    0.1870   19.5671 H       0  UNK0        0.1494
     37 C           4.4254   -1.3189   18.0914 C.3     0  UNK0        0.0717
     38 C           5.1651   -2.6196   18.1963 C.3     0  UNK0        0.0213
     39 C           3.8771   -0.8726   16.7684 C.3     0  UNK0        0.0213
@<TRIPOS>BOND
     1    20    21    1
     2    21    22    1
     3    21    19    1
     4     1    19    1
     5     1     2    1
     6     2     3    2
     7     2     4   am
     8     4     5    1
     9     5    10    1
    10    10    11    1
    11    11    12    1
    12    12    13   ar
    13    13    14   ar
    14    14    15   ar
    15    15    16   ar
    16    16    17   ar
    17    17    18    1
    18     5     6    1
    19     6     7    2
    20     6     8   am
    21    23     8    1
    22    23    33    1
    23    33    34    2
    24    33    35   am
    25    35    37    1
    26    37    38    1
    27    37    39    1
    28    23    24    1
    29    24    25   ar
    30    25    26   ar
    31    26    27   ar
    32    27    28   ar
    33    28    29   ar
    34    29    30   ar
    35    30    31   ar
    36    31    32   ar
    37     8     1    1
    38    32    24   ar
    39    18    10    1
    40    31    27   ar
    41    17    12   ar
    42     4     9    1
    43    35    36    1
@<TRIPOS>MOLECULE
*****
 39 43 0 0 0
SMALL
GASTEIGER

@<TRIPOS>ATOM
      1 CA          6.9789    1.1083   32.5872 C.3     2  LEU2        0.1523
      2 C           7.3438    1.8987   33.8087 C.2     2  LEU2        0.2409
      3 O           8.6922    2.5486   33.9063 O.2     2  LEU2       -0.2733
      4 N           6.3603    2.0392   34.9326 N.am    1  UNK1       -0.2970
      5 C           5.0120    1.3893   34.8350 C.3     1  UNK1        0.1494
      6 C           4.6471    0.5989   33.6135 C.2     1  UNK1        0.2444
      7 O           3.2987   -0.0511   33.5158 O.2     1  UNK1       -0.2731
      8 N           5.6305    0.4584   32.4896 N.am    2  LEU2       -0.2615
      9 H           6.5999    2.5579   35.7343 H       1  UNK1        0.1499
     10 C           4.0286    1.5297   35.9589 C.3     1  UNK1        0.0356
     11 C           3.1129    2.6954   36.1887 C.3     1  UNK1        0.0285
     12 C           2.3066    2.4153   37.4221 C.ar    1  UNK1       -0.0261
     13 C           1.2463    3.2064   38.1292 C.ar    1  UNK1       -0.0046
     14 C           0.6033    2.6586   39.3687 C.ar    1  UNK1       -0.0003
     15 C           1.0206    1.3198   39.9012 C.ar    1  UNK1       -0.0003
     16 C           2.0809    0.5288   39.1941 C.ar    1  UNK1       -0.0046
     17 C           2.7239    1.0765   37.9546 C.ar    1  UNK1       -0.0261
     18 C           3.7881    0.5292   37.0503 C.3     1  UNK1        0.0285
     19 CB          7.9623    0.9678   31.4633 C.3     2  LEU2        0.0292
     20 CD1         9.2143   -0.9466   32.6951 C.3     2  LEU2        0.0001
     21 CG          8.9038   -0.1994   31.4320 C.3     2  LEU2        0.0021
     22 CD2         9.5348   -0.6196   30.1377 C.3     2  LEU2        0.0001
     23 C           5.2656   -0.3320   31.2680 C.3     0  UNK0        0.1751
     24 C           5.7798   -1.7309   31.0986 C.ar    0  UNK0        0.0047
     25 C           5.9450   -2.6194   32.2959 C.ar    0  UNK0        0.0009
     26 C           6.4592   -4.0183   32.1264 C.ar    0  UNK0        0.0372
     27 C           6.8083   -4.5287   30.7598 C.ar    0  UNK0        0.1454
     28 O           7.3333   -5.8516   30.2863 O.2     0  UNK0       -0.4504
     29 C           7.4927   -5.7807   28.7965 C.ar    0  UNK0        0.1796
     30 C           7.0661   -4.4140   28.3492 C.ar    0  UNK0        0.0437
     31 C           6.6431   -3.6402   29.5626 C.ar    0  UNK0        0.0375
     32 C           6.1289   -2.2413   29.7320 C.ar    0  UNK0        0.0009
     33 C           4.3864    0.2764   30.2160 C.2     0  UNK0        0.2449
     34 O           4.9960    0.8718   28.9815 O.2     0  UNK0       -0.2729
     35 N           2.8976    0.2895   30.3984 N.am    0  UNK0       -0.3043
     36 H           2.4974   -0.1012   31.2086 H       0  UNK0        0.1494
     37 C           2.0184    0.8980   29.3464 C.3     0  UNK0        0.0717
     38 C           1.3087    0.0175   28.3610 C.3     0  UNK0        0.0213
     39 C           1.8489    2.3869   29.2797 C.3     0  UNK0        0.0213
@<TRIPOS>BOND
     1    20    21    1
     2    21    22    1
     3    21    19    1
     4     1    19    1
     5     1     2    1
     6     2     3    2
     7     2     4   am
     8     4     5    1
     9     5    10    1
    10    10    11    1
    11    11    12    1
    12    12    13   ar
    13    13    14   ar
    14    14    15   ar
    15    15    16   ar
    16    16    17   ar
    17    17    18    1
    18     5     6    1
    19     6     7    2
    20     6     8   am
    21    23     8    1
    22    23    33    1
    23    33    34    2
    24    33    35   am
    25    35    37    1
    26    37    38    1
    27    37    39    1
    28    23    24    1
    29    24    25   ar
    30    25    26   ar
    31    26    27   ar
    32    27    28   ar
    33    28    29   ar
    34    29    30   ar
    35    30    31   ar
    36    31    32   ar
    37     8     1    1
    38    32    24   ar
    39    18    10    1
    40    31    27   ar
    41    17    12   ar
    42     4     9    1
    43    35    36    1
@<TRIPOS>MOLECULE
*****
 39 43 0 0 0
SMALL
GASTEIGER

@<TRIPOS>ATOM
      1 CA          4.0207    2.7536   30.0060 C.3     2  LEU2        0.1523
      2 C           5.3572    2.4405   29.4013 C.2     2  LEU2        0.2409
      3 O           6.1405    3.5192   28.7135 O.2     2  LEU2       -0.2733
      4 N           5.9105    1.0488   29.4844 N.am    1  UNK1       -0.2970
      5 C           5.1273   -0.0299   30.1722 C.3     1  UNK1        0.1494
      6 C           3.7908    0.2832   30.7769 C.2     1  UNK1        0.2444
      7 O           3.0076   -0.7954   31.4647 O.2     1  UNK1       -0.2731
      8 N           3.2375    1.6750   30.6938 N.am    2  LEU2       -0.2615
      9 H           6.7877    0.8433   29.0875 H       1  UNK1        0.1499
     10 C           5.6806   -1.4216   30.2553 C.3     1  UNK1        0.0356
     11 C           5.9692   -2.1819   31.5157 C.3     1  UNK1        0.0285
     12 C           6.5094   -3.5276   31.1320 C.ar    1  UNK1       -0.0261
     13 C           6.9659   -4.6972   31.9527 C.ar    1  UNK1       -0.0046
     14 C           7.4677   -5.9381   31.2759 C.ar    1  UNK1       -0.0003
     15 C           7.5131   -6.0095   29.7783 C.ar    1  UNK1       -0.0003
     16 C           7.0567   -4.8399   28.9575 C.ar    1  UNK1       -0.0046
     17 C           6.5548   -3.5990   29.6344 C.ar    1  UNK1       -0.0261
     18 C           6.0426   -2.2974   29.0926 C.3     1  UNK1        0.0285
     19 CB          3.4674    4.1454   29.9229 C.3     2  LEU2        0.0292
     20 CD1         1.1692    5.1353   29.2242 C.3     2  LEU2        0.0001
     21 CG          2.4744    4.4951   28.8545 C.3     2  LEU2        0.0021
     22 CD2         2.7865    4.2047   27.4163 C.3     2  LEU2        0.0001
     23 C           1.9010    1.9880   31.2986 C.3     0  UNK0        0.1751
     24 C           1.8225    2.6738   32.6303 C.ar    0  UNK0        0.0047
     25 C           1.1221    3.9946   32.7537 C.ar    0  UNK0        0.0009
     26 C           1.0436    4.6804   34.0854 C.ar    0  UNK0        0.0372
     27 C           1.6655    4.0454   35.2938 C.ar    0  UNK0        0.1454
     28 O           1.7473    4.4815   36.7266 O.2     0  UNK0       -0.4504
     29 C           2.4983    3.4302   37.4888 C.ar    0  UNK0        0.1796
     30 C           2.8805    2.3445   36.5270 C.ar    0  UNK0        0.0437
     31 C           2.3658    2.7247   35.1704 C.ar    0  UNK0        0.0375
     32 C           2.4443    2.0389   33.8387 C.ar    0  UNK0        0.0009
     33 C           0.6430    1.6153   30.5716 C.2     0  UNK0        0.2449
     34 O          -0.6494    1.4934   31.3230 O.2     0  UNK0       -0.2729
     35 N           0.6774    1.3646   29.0930 N.am    0  UNK0       -0.3043
     36 H           1.5257    1.4446   28.5998 H       0  UNK0        0.1494
     37 C          -0.5805    0.9918   28.3660 C.3     0  UNK0        0.0717
     38 C          -1.1871    1.9452   27.3796 C.3     0  UNK0        0.0213
     39 C          -1.2319   -0.3342   28.6255 C.3     0  UNK0        0.0213
@<TRIPOS>BOND
     1    20    21    1
     2    21    22    1
     3    21    19    1
     4     1    19    1
     5     1     2    1
     6     2     3    2
     7     2     4   am
     8     4     5    1
     9     5    10    1
    10    10    11    1
    11    11    12    1
    12    12    13   ar
    13    13    14   ar
    14    14    15   ar
    15    15    16   ar
    16    16    17   ar
    17    17    18    1
    18     5     6    1
    19     6     7    2
    20     6     8   am
    21    23     8    1
    22    23    33    1
    23    33    34    2
    24    33    35   am
    25    35    37    1
    26    37    38    1
    27    37    39    1
    28    23    24    1
    29    24    25   ar
    30    25    26   ar
    31    26    27   ar
    32    27    28   ar
    33    28    29   ar
    34    29    30   ar
    35    30    31   ar
    36    31    32   ar
    37     8     1    1
    38    32    24   ar
    39    18    10    1
    40    31    27   ar
    41    17    12   ar
    42     4     9    1
    43    35    36    1
@<TRIPOS>MOLECULE
*****
 39 43 0 0 0
SMALL
GASTEIGER

@<TRIPOS>ATOM
      1 CA          0.6681    4.6962   21.0160 C.3     2  LEU2        0.1523
      2 C           2.1383    4.5074   21.2460 C.2     2  LEU2        0.2409
      3 O           3.0224    5.6993   21.4646 O.2     2  LEU2       -0.2733
      4 N           2.7244    3.1267   21.2575 N.am    1  UNK1       -0.2970
      5 C           1.8403    1.9348   21.0389 C.3     1  UNK1        0.1494
      6 C           0.3702    2.1236   20.8089 C.2     1  UNK1        0.2444
      7 O          -0.5140    0.9317   20.5904 O.2     1  UNK1       -0.2731
      8 N          -0.2159    3.5043   20.7975 N.am    2  LEU2       -0.2615
      9 H           3.6893    3.0027   21.4085 H       1  UNK1        0.1499
     10 C           2.4264    0.5541   21.0504 C.3     1  UNK1        0.0356
     11 C           2.5344   -0.3678   19.8720 C.3     1  UNK1        0.0285
     12 C           3.1822   -1.6388   20.3356 C.ar    1  UNK1       -0.0261
     13 C           3.5435   -2.9026   19.6130 C.ar    1  UNK1       -0.0046
     14 C           4.1973   -4.0302   20.3554 C.ar    1  UNK1       -0.0003
     15 C           4.4897   -3.8939   21.8203 C.ar    1  UNK1       -0.0003
     16 C           4.1283   -2.6301   22.5428 C.ar    1  UNK1       -0.0046
     17 C           3.4746   -1.5025   21.8005 C.ar    1  UNK1       -0.0261
     18 C           3.0075   -0.1473   22.2422 C.3     1  UNK1        0.0285
     19 CB          0.0820    6.0769   21.0046 C.3     2  LEU2        0.0292
     20 CD1         1.0696    6.7961   18.7117 C.3     2  LEU2        0.0001
     21 CG         -0.0483    6.8256   19.7114 C.3     2  LEU2        0.0021
     22 CD2        -1.2966    7.6040   19.4179 C.3     2  LEU2        0.0001
     23 C          -1.6862    3.6931   20.5675 C.3     0  UNK0        0.1751
     24 C          -2.6437    3.5970   21.7181 C.ar    0  UNK0        0.0047
     25 C          -4.0388    3.0939   21.4928 C.ar    0  UNK0        0.0009
     26 C          -4.9963    2.9978   22.6434 C.ar    0  UNK0        0.0372
     27 C          -4.5588    3.4049   24.0193 C.ar    0  UNK0        0.1454
     28 O          -5.2754    3.4201   25.3369 O.2     0  UNK0       -0.4504
     29 C          -4.3232    3.9326   26.3765 C.ar    0  UNK0        0.1796
     30 C          -3.0182    4.2341   25.7014 C.ar    0  UNK0        0.0437
     31 C          -3.1637    3.9079   24.2445 C.ar    0  UNK0        0.0375
     32 C          -2.2062    4.0040   23.0939 C.ar    0  UNK0        0.0009
     33 C          -2.1988    3.9779   19.1869 C.2     0  UNK0        0.2449
     34 O          -1.3357    3.6951   17.9932 O.2     0  UNK0       -0.2729
     35 N          -3.5746    4.5456   19.0000 N.am    0  UNK0       -0.3043
     36 H          -4.1411    4.7313   19.7835 H       0  UNK0        0.1494
     37 C          -4.0873    4.8305   17.6194 C.3     0  UNK0        0.0717
     38 C          -4.3794    6.2419   17.2043 C.3     0  UNK0        0.0213
     39 C          -4.3078    3.7039   16.6540 C.3     0  UNK0        0.0213
@<TRIPOS>BOND
     1    20    21    1
     2    21    22    1
     3    21    19    1
     4     1    19    1
     5     1     2    1
     6     2     3    2
     7     2     4   am
     8     4     5    1
     9     5    10    1
    10    10    11    1
    11    11    12    1
    12    12    13   ar
    13    13    14   ar
    14    14    15   ar
    15    15    16   ar
    16    16    17   ar
    17    17    18    1
    18     5     6    1
    19     6     7    2
    20     6     8   am
    21    23     8    1
    22    23    33    1
    23    33    34    2
    24    33    35   am
    25    35    37    1
    26    37    38    1
    27    37    39    1
    28    23    24    1
    29    24    25   ar
    30    25    26   ar
    31    26    27   ar
    32    27    28   ar
    33    28    29   ar
    34    29    30   ar
    35    30    31   ar
    36    31    32   ar
    37     8     1    1
    38    32    24   ar
    39    18    10    1
    40    31    27   ar
    41    17    12   ar
    42     4     9    1
    43    35    36    1
