@<TRIPOS>MOLECULE
*****
 28 31 0 0 0
SMALL
GASTEIGER

@<TRIPOS>ATOM
      1 C         -13.3604   -5.0450   20.0383 C.3     1  UNL1        0.0233
      2 C         -14.0205   -5.6189   18.8198 C.3     1  UNL1        0.0953
      3 C         -14.9988   -6.7475   18.9580 C.3     1  UNL1        0.1106
      4 N         -15.6589   -7.3214   17.7394 N.pl3   1  UNL1       -0.3041
      5 C         -15.3407   -6.7667   16.3826 C.3     1  UNL1        0.1123
      6 C         -14.3624   -5.6381   16.2444 C.3     1  UNL1        0.1149
      7 N         -13.7023   -5.0642   17.4629 N.pl3   1  UNL1       -0.2777
      8 C         -12.7240   -3.9355   17.3246 C.ar    1  UNL1        0.2035
      9 N         -13.1990   -2.5157   17.4174 N.ar    1  UNL1       -0.2133
     10 C         -12.2208   -1.3871   17.2791 C.ar    1  UNL1        0.1065
     11 C         -10.7675   -1.6782   17.0480 C.ar    1  UNL1        0.0815
     12 C         -10.2925   -3.0979   16.9552 C.ar    1  UNL1        0.2646
     13 O          -8.8394   -3.3891   16.7241 O.2     1  UNL1       -0.2668
     14 N         -11.2709   -4.2266   17.0935 N.ar    1  UNL1       -0.2667
     15 C         -10.7959   -5.6464   17.0007 C.3     1  UNL1        0.1363
     16 C         -12.6957    0.0327   17.3720 C.ar    1  UNL1        0.1024
     17 C         -13.9017    0.3676   18.1986 C.ar    1  UNL1        0.0414
     18 C         -14.3767    1.7874   18.2914 C.ar    1  UNL1        0.1023
     19 N         -13.6456    2.8723   17.5576 N.ar    1  UNL1       -0.2224
     20 C         -12.4396    2.5374   16.7309 C.ar    1  UNL1        0.1989
     21 N         -11.9646    1.1177   16.6381 N.ar    1  UNL1       -0.2224
     22 C         -16.6372   -8.4501   17.8778 C.ar    1  UNL1        0.0502
     23 C         -18.0662   -8.2589   17.4638 C.ar    1  UNL1        0.0147
     24 C         -19.0445   -9.3875   17.6021 C.ar    1  UNL1        0.0036
     25 C         -18.5938  -10.7074   18.1543 C.ar    1  UNL1        0.0297
     26 C         -17.1648  -10.8986   18.5683 C.ar    1  UNL1        0.1414
     27 F         -16.7140  -12.2183   19.1205 F       1  UNL1       -0.2041
     28 C         -16.1865   -9.7699   18.4300 C.ar    1  UNL1        0.0441
@<TRIPOS>BOND
     1     2     1    1
     2     2     3    1
     3     3     4    1
     4     4    22    1
     5    22    23   ar
     6    23    24   ar
     7    24    25   ar
     8    25    26   ar
     9    26    27    1
    10    26    28   ar
    11     4     5    1
    12     5     6    1
    13     6     7    1
    14     7     8    1
    15     8     9   ar
    16     9    10   ar
    17    10    16    1
    18    16    17   ar
    19    17    18   ar
    20    18    19   ar
    21    19    20   ar
    22    20    21   ar
    23    10    11   ar
    24    11    12   ar
    25    12    13    2
    26    12    14   ar
    27    14    15    1
    28     7     2    1
    29    14     8   ar
    30    28    22   ar
    31    21    16   ar
@<TRIPOS>MOLECULE
*****
 28 31 0 0 0
SMALL
GASTEIGER

@<TRIPOS>ATOM
      1 C           1.8630    3.7039   20.2078 C.3     1  UNL1        0.0233
      2 C           1.7875    2.2058   20.2060 C.3     1  UNL1        0.0953
      3 C           2.9238    1.3983   19.6523 C.3     1  UNL1        0.1106
      4 N           2.8483   -0.0998   19.6505 N.pl3   1  UNL1       -0.3041
      5 C           1.6365   -0.7904   20.2024 C.3     1  UNL1        0.1123
      6 C           0.5002    0.0171   20.7561 C.3     1  UNL1        0.1149
      7 N           0.5757    1.5152   20.7579 N.pl3   1  UNL1       -0.2777
      8 C          -0.5607    2.3228   21.3117 C.ar    1  UNL1        0.2035
      9 N          -1.7571    2.6187   20.4566 N.ar    1  UNL1       -0.2133
     10 C          -2.8934    3.4261   21.0103 C.ar    1  UNL1        0.1065
     11 C          -2.8334    3.9378   22.4192 C.ar    1  UNL1        0.0815
     12 C          -1.6370    3.6419   23.2742 C.ar    1  UNL1        0.2646
     13 O          -1.5770    4.1535   24.6830 O.2     1  UNL1       -0.2668
     14 N          -0.5006    2.8344   22.7204 N.ar    1  UNL1       -0.2667
     15 C           0.6957    2.5385   23.5755 C.3     1  UNL1        0.1363
     16 C          -4.0898    3.7220   20.1553 C.ar    1  UNL1        0.1024
     17 C          -5.4228    3.9787   20.7935 C.ar    1  UNL1        0.0414
     18 C          -6.6191    4.2746   19.9384 C.ar    1  UNL1        0.1023
     19 N          -6.4826    4.3138   18.4452 N.ar    1  UNL1       -0.2224
     20 C          -5.1496    4.0571   17.8069 C.ar    1  UNL1        0.1989
     21 N          -3.9532    3.7612   18.6620 N.ar    1  UNL1       -0.2224
     22 C           3.9847   -0.9073   19.0967 C.ar    1  UNL1        0.0502
     23 C           5.2434   -0.2237   18.6512 C.ar    1  UNL1        0.0147
     24 C           6.3797   -1.0312   18.0974 C.ar    1  UNL1        0.0036
     25 C           6.2575   -2.5223   17.9892 C.ar    1  UNL1        0.0297
     26 C           4.9988   -3.2059   18.4347 C.ar    1  UNL1        0.1414
     27 F           4.8765   -4.6970   18.3264 F       1  UNL1       -0.2041
     28 C           3.8624   -2.3984   18.9884 C.ar    1  UNL1        0.0441
@<TRIPOS>BOND
     1     2     1    1
     2     2     3    1
     3     3     4    1
     4     4    22    1
     5    22    23   ar
     6    23    24   ar
     7    24    25   ar
     8    25    26   ar
     9    26    27    1
    10    26    28   ar
    11     4     5    1
    12     5     6    1
    13     6     7    1
    14     7     8    1
    15     8     9   ar
    16     9    10   ar
    17    10    16    1
    18    16    17   ar
    19    17    18   ar
    20    18    19   ar
    21    19    20   ar
    22    20    21   ar
    23    10    11   ar
    24    11    12   ar
    25    12    13    2
    26    12    14   ar
    27    14    15    1
    28     7     2    1
    29    14     8   ar
    30    28    22   ar
    31    21    16   ar
@<TRIPOS>MOLECULE
*****
 28 31 0 0 0
SMALL
GASTEIGER

@<TRIPOS>ATOM
      1 C         -13.7240   -3.5636   20.8452 C.3     1  UNL1        0.0233
      2 C         -14.3053   -4.2356   19.6367 C.3     1  UNL1        0.0953
      3 C         -14.8738   -5.6191   19.7486 C.3     1  UNL1        0.1106
      4 N         -15.4551   -6.2911   18.5401 N.pl3   1  UNL1       -0.3041
      5 C         -15.4679   -5.5796   17.2197 C.3     1  UNL1        0.1123
      6 C         -14.8994   -4.1961   17.1078 C.3     1  UNL1        0.1149
      7 N         -14.3181   -3.5241   18.3163 N.pl3   1  UNL1       -0.2777
      8 C         -13.7496   -2.1404   18.2044 C.ar    1  UNL1        0.2035
      9 N         -14.5966   -0.9514   18.5491 N.ar    1  UNL1       -0.2133
     10 C         -14.0281    0.4321   18.4372 C.ar    1  UNL1        0.1065
     11 C         -12.6126    0.6267   17.9805 C.ar    1  UNL1        0.0815
     12 C         -11.7656   -0.5623   17.6358 C.ar    1  UNL1        0.2646
     13 O         -10.3501   -0.3677   17.1792 O.2     1  UNL1       -0.2668
     14 N         -12.3341   -1.9459   17.7478 N.ar    1  UNL1       -0.2667
     15 C         -11.4871   -3.1349   17.4031 C.3     1  UNL1        0.1363
     16 C         -14.8751    1.6211   18.7818 C.ar    1  UNL1        0.1024
     17 C         -16.1165    1.4444   19.6051 C.ar    1  UNL1        0.0414
     18 C         -16.9635    2.6334   19.9498 C.ar    1  UNL1        0.1023
     19 N         -16.5692    3.9992   19.4712 N.ar    1  UNL1       -0.2224
     20 C         -15.3278    4.1760   18.6479 C.ar    1  UNL1        0.1989
     21 N         -14.4808    2.9870   18.3033 N.ar    1  UNL1       -0.2224
     22 C         -16.0236   -7.6748   18.6520 C.ar    1  UNL1        0.0502
     23 C         -15.3016   -8.8346   18.0328 C.ar    1  UNL1        0.0147
     24 C         -15.8701  -10.2182   18.1447 C.ar    1  UNL1        0.0036
     25 C         -17.1606  -10.4419   18.8759 C.ar    1  UNL1        0.0297
     26 C         -17.8826   -9.2821   19.4951 C.ar    1  UNL1        0.1414
     27 F         -19.1731   -9.5058   20.2262 F       1  UNL1       -0.2041
     28 C         -17.3141   -7.8985   19.3831 C.ar    1  UNL1        0.0441
@<TRIPOS>BOND
     1     2     1    1
     2     2     3    1
     3     3     4    1
     4     4    22    1
     5    22    23   ar
     6    23    24   ar
     7    24    25   ar
     8    25    26   ar
     9    26    27    1
    10    26    28   ar
    11     4     5    1
    12     5     6    1
    13     6     7    1
    14     7     8    1
    15     8     9   ar
    16     9    10   ar
    17    10    16    1
    18    16    17   ar
    19    17    18   ar
    20    18    19   ar
    21    19    20   ar
    22    20    21   ar
    23    10    11   ar
    24    11    12   ar
    25    12    13    2
    26    12    14   ar
    27    14    15    1
    28     7     2    1
    29    14     8   ar
    30    28    22   ar
    31    21    16   ar
@<TRIPOS>MOLECULE
*****
 28 31 0 0 0
SMALL
GASTEIGER

@<TRIPOS>ATOM
      1 C           2.2953    3.3452   21.4357 C.3     1  UNL1        0.0233
      2 C           1.9911    1.9522   20.9698 C.3     1  UNL1        0.0953
      3 C           3.1054    0.9682   20.7696 C.3     1  UNL1        0.1106
      4 N           2.8011   -0.4248   20.3037 N.pl3   1  UNL1       -0.3041
      5 C           1.3827   -0.8337   20.0379 C.3     1  UNL1        0.1123
      6 C           0.2685    0.1503   20.2380 C.3     1  UNL1        0.1149
      7 N           0.5727    1.5433   20.7039 N.pl3   1  UNL1       -0.2777
      8 C          -0.5417    2.5273   20.9041 C.ar    1  UNL1        0.2035
      9 N          -1.2356    2.6149   22.2310 N.ar    1  UNL1       -0.2133
     10 C          -2.3499    3.5988   22.4311 C.ar    1  UNL1        0.1065
     11 C          -2.7703    4.4953   21.3043 C.ar    1  UNL1        0.0815
     12 C          -2.0763    4.4078   19.9774 C.ar    1  UNL1        0.2646
     13 O          -2.4967    5.3042   18.8506 O.2     1  UNL1       -0.2668
     14 N          -0.9620    3.4237   19.7773 N.ar    1  UNL1       -0.2667
     15 C          -0.2680    3.3362   18.4503 C.3     1  UNL1        0.1363
     16 C          -3.0439    3.6864   23.7581 C.ar    1  UNL1        0.1024
     17 C          -4.5414    3.7467   23.8187 C.ar    1  UNL1        0.0414
     18 C          -5.2354    3.8343   25.1457 C.ar    1  UNL1        0.1023
     19 N          -4.4318    3.8615   26.4119 N.ar    1  UNL1       -0.2224
     20 C          -2.9342    3.8012   26.3513 C.ar    1  UNL1        0.1989
     21 N          -2.2402    3.7136   25.0244 N.ar    1  UNL1       -0.2224
     22 C           3.9155   -1.4089   20.1036 C.ar    1  UNL1        0.0502
     23 C           5.2759   -1.1265   20.6689 C.ar    1  UNL1        0.0147
     24 C           6.3902   -2.1105   20.4688 C.ar    1  UNL1        0.0036
     25 C           6.1441   -3.3769   19.7034 C.ar    1  UNL1        0.0297
     26 C           4.7837   -3.6592   19.1381 C.ar    1  UNL1        0.1414
     27 F           4.5376   -4.9255   18.3726 F       1  UNL1       -0.2041
     28 C           3.6694   -2.6751   19.3382 C.ar    1  UNL1        0.0441
@<TRIPOS>BOND
     1     2     1    1
     2     2     3    1
     3     3     4    1
     4     4    22    1
     5    22    23   ar
     6    23    24   ar
     7    24    25   ar
     8    25    26   ar
     9    26    27    1
    10    26    28   ar
    11     4     5    1
    12     5     6    1
    13     6     7    1
    14     7     8    1
    15     8     9   ar
    16     9    10   ar
    17    10    16    1
    18    16    17   ar
    19    17    18   ar
    20    18    19   ar
    21    19    20   ar
    22    20    21   ar
    23    10    11   ar
    24    11    12   ar
    25    12    13    2
    26    12    14   ar
    27    14    15    1
    28     7     2    1
    29    14     8   ar
    30    28    22   ar
    31    21    16   ar
@<TRIPOS>MOLECULE
*****
 28 31 0 0 0
SMALL
GASTEIGER

@<TRIPOS>ATOM
      1 C           1.3040    3.0422   22.4249 C.3     1  UNL1        0.0233
      2 C           1.3884    1.7564   21.6571 C.3     1  UNL1        0.0953
      3 C           2.3827    0.7074   22.0580 C.3     1  UNL1        0.1106
      4 N           2.4671   -0.5785   21.2902 N.pl3   1  UNL1       -0.3041
      5 C           1.5572   -0.8153   20.1215 C.3     1  UNL1        0.1123
      6 C           0.5628    0.2337   19.7207 C.3     1  UNL1        0.1149
      7 N           0.4784    1.5196   20.4884 N.pl3   1  UNL1       -0.2777
      8 C          -0.5160    2.5686   20.0875 C.ar    1  UNL1        0.2035
      9 N          -1.8225    2.6810   20.8158 N.ar    1  UNL1       -0.2133
     10 C          -2.8169    3.7300   20.4149 C.ar    1  UNL1        0.1065
     11 C          -2.5048    4.6667   19.2856 C.ar    1  UNL1        0.0815
     12 C          -1.1983    4.5543   18.5573 C.ar    1  UNL1        0.2646
     13 O          -0.8863    5.4910   17.4280 O.2     1  UNL1       -0.2668
     14 N          -0.2039    3.5053   18.9582 N.ar    1  UNL1       -0.2667
     15 C           1.1025    3.3929   18.2299 C.3     1  UNL1        0.1363
     16 C          -4.1233    3.8423   21.1433 C.ar    1  UNL1        0.1024
     17 C          -4.2052    3.4809   22.5968 C.ar    1  UNL1        0.0414
     18 C          -5.5117    3.5933   23.3251 C.ar    1  UNL1        0.1023
     19 N          -6.7363    4.0670   22.6000 N.ar    1  UNL1       -0.2224
     20 C          -6.6545    4.4284   21.1465 C.ar    1  UNL1        0.1989
     21 N          -5.3480    4.3161   20.4181 N.ar    1  UNL1       -0.2224
     22 C           3.4615   -1.6275   21.6912 C.ar    1  UNL1        0.0502
     23 C           3.8583   -1.7738   23.1304 C.ar    1  UNL1        0.0147
     24 C           4.8526   -2.8228   23.5313 C.ar    1  UNL1        0.0036
     25 C           5.4503   -3.7256   22.4931 C.ar    1  UNL1        0.0297
     26 C           5.0536   -3.5793   21.0539 C.ar    1  UNL1        0.1414
     27 F           5.6512   -4.4820   20.0158 F       1  UNL1       -0.2041
     28 C           4.0592   -2.5303   20.6530 C.ar    1  UNL1        0.0441
@<TRIPOS>BOND
     1     2     1    1
     2     2     3    1
     3     3     4    1
     4     4    22    1
     5    22    23   ar
     6    23    24   ar
     7    24    25   ar
     8    25    26   ar
     9    26    27    1
    10    26    28   ar
    11     4     5    1
    12     5     6    1
    13     6     7    1
    14     7     8    1
    15     8     9   ar
    16     9    10   ar
    17    10    16    1
    18    16    17   ar
    19    17    18   ar
    20    18    19   ar
    21    19    20   ar
    22    20    21   ar
    23    10    11   ar
    24    11    12   ar
    25    12    13    2
    26    12    14   ar
    27    14    15    1
    28     7     2    1
    29    14     8   ar
    30    28    22   ar
    31    21    16   ar
@<TRIPOS>MOLECULE
*****
 28 31 0 0 0
SMALL
GASTEIGER

@<TRIPOS>ATOM
      1 C           1.7092    2.9173   22.8983 C.3     1  UNL1        0.0233
      2 C           0.3592    3.0196   22.2526 C.3     1  UNL1        0.0953
      3 C          -0.8511    3.3158   23.0876 C.3     1  UNL1        0.1106
      4 N          -2.2011    3.4182   22.4418 N.pl3   1  UNL1       -0.3041
      5 C          -2.3407    3.2243   20.9610 C.3     1  UNL1        0.1123
      6 C          -1.1304    2.9280   20.1260 C.3     1  UNL1        0.1149
      7 N           0.2196    2.8257   20.7717 N.pl3   1  UNL1       -0.2777
      8 C           1.4299    2.5294   19.9366 C.ar    1  UNL1        0.2035
      9 N           1.9614    1.1290   19.8565 N.ar    1  UNL1       -0.2133
     10 C           3.1716    0.8327   19.0215 C.ar    1  UNL1        0.1065
     11 C           3.8506    1.9368   18.2665 C.ar    1  UNL1        0.0815
     12 C           3.3192    3.3373   18.3466 C.ar    1  UNL1        0.2646
     13 O           3.9980    4.4414   17.5916 O.2     1  UNL1       -0.2668
     14 N           2.1088    3.6335   19.1817 N.ar    1  UNL1       -0.2667
     15 C           1.5774    5.0340   19.2618 C.3     1  UNL1        0.1363
     16 C           3.7031   -0.5677   18.9414 C.ar    1  UNL1        0.1024
     17 C           2.9819   -1.6845   19.6362 C.ar    1  UNL1        0.0414
     18 C           3.5133   -3.0849   19.5561 C.ar    1  UNL1        0.1023
     19 N           4.7659   -3.3686   18.7812 N.ar    1  UNL1       -0.2224
     20 C           5.4872   -2.2518   18.0864 C.ar    1  UNL1        0.1989
     21 N           4.9557   -0.8514   18.1665 N.ar    1  UNL1       -0.2224
     22 C          -3.4114    3.7144   23.2769 C.ar    1  UNL1        0.0502
     23 C          -4.7104    4.0687   22.6157 C.ar    1  UNL1        0.0147
     24 C          -5.9207    4.3650   23.4507 C.ar    1  UNL1        0.0036
     25 C          -5.8321    4.3070   24.9470 C.ar    1  UNL1        0.0297
     26 C          -4.5332    3.9527   25.6082 C.ar    1  UNL1        0.1414
     27 F          -4.4445    3.8946   27.1045 F       1  UNL1       -0.2041
     28 C          -3.3228    3.6564   24.7731 C.ar    1  UNL1        0.0441
@<TRIPOS>BOND
     1     2     1    1
     2     2     3    1
     3     3     4    1
     4     4    22    1
     5    22    23   ar
     6    23    24   ar
     7    24    25   ar
     8    25    26   ar
     9    26    27    1
    10    26    28   ar
    11     4     5    1
    12     5     6    1
    13     6     7    1
    14     7     8    1
    15     8     9   ar
    16     9    10   ar
    17    10    16    1
    18    16    17   ar
    19    17    18   ar
    20    18    19   ar
    21    19    20   ar
    22    20    21   ar
    23    10    11   ar
    24    11    12   ar
    25    12    13    2
    26    12    14   ar
    27    14    15    1
    28     7     2    1
    29    14     8   ar
    30    28    22   ar
    31    21    16   ar
@<TRIPOS>MOLECULE
*****
 28 31 0 0 0
SMALL
GASTEIGER

@<TRIPOS>ATOM
      1 C           4.7164    1.8531   20.5535 C.3     1  UNL1        0.0233
      2 C           3.3178    1.3229   20.4408 C.3     1  UNL1        0.0953
      3 C           2.1500    2.2572   20.5558 C.3     1  UNL1        0.1106
      4 N           0.7514    1.7270   20.4431 N.pl3   1  UNL1       -0.3041
      5 C           0.5205    0.2625   20.2156 C.3     1  UNL1        0.1123
      6 C           1.6884   -0.6719   20.1007 C.3     1  UNL1        0.1149
      7 N           3.0870   -0.1416   20.2133 N.pl3   1  UNL1       -0.2777
      8 C           4.2548   -1.0760   20.0983 C.ar    1  UNL1        0.2035
      9 N           4.7438   -1.8176   21.3071 N.ar    1  UNL1       -0.2133
     10 C           5.9116   -2.7519   21.1922 C.ar    1  UNL1        0.1065
     11 C           6.5904   -2.9448   19.8685 C.ar    1  UNL1        0.0815
     12 C           6.1015   -2.2032   18.6598 C.ar    1  UNL1        0.2646
     13 O           6.7803   -2.3961   17.3362 O.2     1  UNL1       -0.2668
     14 N           4.9336   -1.2688   18.7747 N.ar    1  UNL1       -0.2667
     15 C           4.4446   -0.5273   17.5660 C.3     1  UNL1        0.1363
     16 C           6.4005   -3.4934   22.4009 C.ar    1  UNL1        0.1024
     17 C           5.9903   -3.0455   23.7724 C.ar    1  UNL1        0.0414
     18 C           6.4792   -3.7871   24.9811 C.ar    1  UNL1        0.1023
     19 N           7.3785   -4.9765   24.8184 N.ar    1  UNL1       -0.2224
     20 C           7.7888   -5.4245   23.4469 C.ar    1  UNL1        0.1989
     21 N           7.2999   -4.6829   22.2381 N.ar    1  UNL1       -0.2224
     22 C          -0.4165    2.6614   20.5581 C.ar    1  UNL1        0.0502
     23 C          -1.0112    2.9566   21.9031 C.ar    1  UNL1        0.0147
     24 C          -2.1789    3.8910   22.0181 C.ar    1  UNL1        0.0036
     25 C          -2.7521    4.5301   20.7880 C.ar    1  UNL1        0.0297
     26 C          -2.1574    4.2349   19.4429 C.ar    1  UNL1        0.1414
     27 F          -2.7305    4.8739   18.2129 F       1  UNL1       -0.2041
     28 C          -0.9895    3.3005   19.3280 C.ar    1  UNL1        0.0441
@<TRIPOS>BOND
     1     2     1    1
     2     2     3    1
     3     3     4    1
     4     4    22    1
     5    22    23   ar
     6    23    24   ar
     7    24    25   ar
     8    25    26   ar
     9    26    27    1
    10    26    28   ar
    11     4     5    1
    12     5     6    1
    13     6     7    1
    14     7     8    1
    15     8     9   ar
    16     9    10   ar
    17    10    16    1
    18    16    17   ar
    19    17    18   ar
    20    18    19   ar
    21    19    20   ar
    22    20    21   ar
    23    10    11   ar
    24    11    12   ar
    25    12    13    2
    26    12    14   ar
    27    14    15    1
    28     7     2    1
    29    14     8   ar
    30    28    22   ar
    31    21    16   ar
@<TRIPOS>MOLECULE
*****
 28 31 0 0 0
SMALL
GASTEIGER

@<TRIPOS>ATOM
      1 C           1.7444    1.4981   22.9476 C.3     1  UNL1        0.0233
      2 C           1.8546    1.0948   21.5070 C.3     1  UNL1        0.0953
      3 C           2.6524   -0.1170   21.1263 C.3     1  UNL1        0.1106
      4 N           2.7625   -0.5203   19.6857 N.pl3   1  UNL1       -0.3041
      5 C           2.0749    0.2883   18.6259 C.3     1  UNL1        0.1123
      6 C           1.2771    1.5001   19.0066 C.3     1  UNL1        0.1149
      7 N           1.1669    1.9033   20.4471 N.pl3   1  UNL1       -0.2777
      8 C           0.3691    3.1152   20.8278 C.ar    1  UNL1        0.2035
      9 N          -1.0767    2.9742   21.2020 N.ar    1  UNL1       -0.2133
     10 C          -1.8745    4.1860   21.5826 C.ar    1  UNL1        0.1065
     11 C          -1.2267    5.5389   21.5891 C.ar    1  UNL1        0.0815
     12 C           0.2191    5.6799   21.2149 C.ar    1  UNL1        0.2646
     13 O           0.8669    7.0328   21.2214 O.2     1  UNL1       -0.2668
     14 N           1.0169    4.4680   20.8343 N.ar    1  UNL1       -0.2667
     15 C           2.4626    4.6091   20.4601 C.3     1  UNL1        0.1363
     16 C          -3.3202    4.0449   21.9568 C.ar    1  UNL1        0.1024
     17 C          -3.7002    3.7076   23.3681 C.ar    1  UNL1        0.0414
     18 C          -5.1459    3.5665   23.7422 C.ar    1  UNL1        0.1023
     19 N          -6.2117    3.7629   22.7052 N.ar    1  UNL1       -0.2224
     20 C          -5.8317    4.1003   21.2938 C.ar    1  UNL1        0.1989
     21 N          -4.3860    4.2413   20.9196 N.ar    1  UNL1       -0.2224
     22 C           3.5604   -1.7322   19.3051 C.ar    1  UNL1        0.0502
     23 C           4.8454   -1.5764   18.5472 C.ar    1  UNL1        0.0147
     24 C           5.6433   -2.7882   18.1665 C.ar    1  UNL1        0.0036
     25 C           5.1561   -4.1558   18.5437 C.ar    1  UNL1        0.0297
     26 C           3.8711   -4.3116   19.3016 C.ar    1  UNL1        0.1414
     27 F           3.3839   -5.6792   19.6788 F       1  UNL1       -0.2041
     28 C           3.0732   -3.0997   19.6823 C.ar    1  UNL1        0.0441
@<TRIPOS>BOND
     1     2     1    1
     2     2     3    1
     3     3     4    1
     4     4    22    1
     5    22    23   ar
     6    23    24   ar
     7    24    25   ar
     8    25    26   ar
     9    26    27    1
    10    26    28   ar
    11     4     5    1
    12     5     6    1
    13     6     7    1
    14     7     8    1
    15     8     9   ar
    16     9    10   ar
    17    10    16    1
    18    16    17   ar
    19    17    18   ar
    20    18    19   ar
    21    19    20   ar
    22    20    21   ar
    23    10    11   ar
    24    11    12   ar
    25    12    13    2
    26    12    14   ar
    27    14    15    1
    28     7     2    1
    29    14     8   ar
    30    28    22   ar
    31    21    16   ar
@<TRIPOS>MOLECULE
*****
 28 31 0 0 0
SMALL
GASTEIGER

@<TRIPOS>ATOM
      1 C           8.7925   -2.1677   23.5415 C.3     1  UNL1        0.0233
      2 C           7.4582   -2.4632   22.9231 C.3     1  UNL1        0.0953
      3 C           7.0888   -1.8469   21.6064 C.3     1  UNL1        0.1106
      4 N           5.7546   -2.1425   20.9879 N.pl3   1  UNL1       -0.3041
      5 C           4.7898   -3.0543   21.6862 C.3     1  UNL1        0.1123
      6 C           5.1592   -3.6706   23.0028 C.3     1  UNL1        0.1149
      7 N           6.4934   -3.3751   23.6213 N.pl3   1  UNL1       -0.2777
      8 C           6.8628   -3.9914   24.9380 C.ar    1  UNL1        0.2035
      9 N           6.4615   -3.3213   26.2186 N.ar    1  UNL1       -0.2133
     10 C           6.8309   -3.9376   27.5353 C.ar    1  UNL1        0.1065
     11 C           7.6014   -5.2241   27.5715 C.ar    1  UNL1        0.0815
     12 C           8.0027   -5.8942   26.2909 C.ar    1  UNL1        0.2646
     13 O           8.7732   -7.1806   26.3270 O.2     1  UNL1       -0.2668
     14 N           7.6333   -5.2778   24.9741 N.ar    1  UNL1       -0.2667
     15 C           8.0345   -5.9480   23.6935 C.3     1  UNL1        0.1363
     16 C           6.4296   -3.2674   28.8159 C.ar    1  UNL1        0.1024
     17 C           6.7186   -3.9286   30.1309 C.ar    1  UNL1        0.0414
     18 C           6.3174   -3.2585   31.4116 C.ar    1  UNL1        0.1023
     19 N           5.6272   -1.9272   31.3771 N.ar    1  UNL1       -0.2224
     20 C           5.3382   -1.2659   30.0621 C.ar    1  UNL1        0.1989
     21 N           5.7394   -1.9361   28.7815 N.ar    1  UNL1       -0.2224
     22 C           5.3852   -1.5261   19.6712 C.ar    1  UNL1        0.0502
     23 C           3.9558   -1.5286   19.2166 C.ar    1  UNL1        0.0147
     24 C           3.5864   -0.9123   17.8999 C.ar    1  UNL1        0.0036
     25 C           4.6465   -0.2934   17.0378 C.ar    1  UNL1        0.0297
     26 C           6.0759   -0.2909   17.4923 C.ar    1  UNL1        0.1414
     27 F           7.1360    0.3279   16.6303 F       1  UNL1       -0.2041
     28 C           6.4453   -0.9073   18.8091 C.ar    1  UNL1        0.0441
@<TRIPOS>BOND
     1     2     1    1
     2     2     3    1
     3     3     4    1
     4     4    22    1
     5    22    23   ar
     6    23    24   ar
     7    24    25   ar
     8    25    26   ar
     9    26    27    1
    10    26    28   ar
    11     4     5    1
    12     5     6    1
    13     6     7    1
    14     7     8    1
    15     8     9   ar
    16     9    10   ar
    17    10    16    1
    18    16    17   ar
    19    17    18   ar
    20    18    19   ar
    21    19    20   ar
    22    20    21   ar
    23    10    11   ar
    24    11    12   ar
    25    12    13    2
    26    12    14   ar
    27    14    15    1
    28     7     2    1
    29    14     8   ar
    30    28    22   ar
    31    21    16   ar
