@<TRIPOS>MOLECULE
*****
 30 33 0 0 0
SMALL
GASTEIGER

@<TRIPOS>ATOM
      1 N          -7.9625  -19.2659   20.9446 N.am    1  UNL1       -0.2723
      2 C          -9.0957  -19.2709   19.9619 C.2     1  UNL1        0.2685
      3 O          -8.9987  -20.0903   18.7093 O.2     1  UNL1       -0.2682
      4 C          -8.4554  -15.1049   27.3050 C.3     1  UNL1        0.0896
      5 N          -8.3583  -15.9243   26.0524 N.3     1  UNL1       -0.2715
      6 C          -8.9163  -17.3026   25.8550 C.3     1  UNL1        0.0722
      7 C          -8.5890  -17.7395   24.4578 C.3     1  UNL1        0.0190
      8 C          -8.7316  -18.8614   23.4724 C.3     1  UNL1        0.0213
      9 C          -8.0596  -18.4464   22.1972 C.3     1  UNL1        0.0761
     10 C          -7.5017  -17.0681   22.3945 C.3     1  UNL1        0.0213
     11 C          -7.8289  -16.6312   23.7917 C.3     1  UNL1        0.0190
     12 C          -7.6863  -15.5094   24.7771 C.3     1  UNL1        0.0722
     13 C         -10.3261  -18.4563   20.2318 C.ar    1  UNL1        0.1535
     14 C         -11.4511  -18.8358   21.1485 C.ar    1  UNL1        0.1012
     15 N         -12.4678  -17.7334   21.1157 N.ar    1  UNL1       -0.3057
     16 C         -13.7551  -17.6980   21.8848 C.3     1  UNL1        0.1321
     17 C         -11.9711  -16.6726   20.1787 C.ar    1  UNL1        0.1787
     18 N         -10.6474  -17.1194   19.6324 N.ar    1  UNL1       -0.2192
     19 C          -6.7322  -20.0803   20.6747 C.3     1  UNL1        0.1204
     20 C          -5.3750  -19.5000   20.9415 C.ar    1  UNL1       -0.0022
     21 C          -4.8811  -19.3649   22.3515 C.ar    1  UNL1       -0.0003
     22 C          -3.5239  -18.7845   22.6183 C.ar    1  UNL1        0.0293
     23 C          -2.6607  -18.3392   21.4752 C.ar    1  UNL1        0.1440
     24 F          -1.3035  -17.7588   21.7421 F       1  UNL1       -0.2042
     25 C          -3.1546  -18.4743   20.0654 C.ar    1  UNL1        0.0985
     26 C          -4.5118  -19.0546   19.7985 C.ar    1  UNL1        0.0035
     27 C          -2.2914  -18.0289   18.9224 C.3     1  UNL1        0.4207
     28 F          -1.4282  -17.5836   17.7793 F       1  UNL1       -0.1658
     29 F          -1.2026  -18.9511   19.3853 F       1  UNL1       -0.1658
     30 F          -3.3801  -17.1068   18.4595 F       1  UNL1       -0.1658
@<TRIPOS>BOND
     1     4     5    1
     2     5     6    1
     3     7     6    1
     4     7     8    1
     5     8     9    1
     6     9     1    1
     7     1    19    1
     8    19    20    1
     9    20    21   ar
    10    21    22   ar
    11    22    23   ar
    12    23    24    1
    13    23    25   ar
    14    25    27    1
    15    27    28    1
    16    27    29    1
    17    27    30    1
    18    25    26   ar
    19     1     2   am
    20     2     3    2
    21     2    13    1
    22    13    14   ar
    23    14    15   ar
    24    15    16    1
    25    15    17   ar
    26    17    18   ar
    27     9    10    1
    28    11    10    1
    29    11    12    1
    30    12     5    1
    31    11     7    1
    32    26    20   ar
    33    18    13   ar
@<TRIPOS>MOLECULE
*****
 30 33 0 0 0
SMALL
GASTEIGER

@<TRIPOS>ATOM
      1 N          -7.9770  -19.2898   21.0203 N.am    1  UNL1       -0.2723
      2 C          -9.1064  -19.2952   20.0333 C.2     1  UNL1        0.2685
      3 O          -9.0076  -20.1214   18.7851 O.2     1  UNL1       -0.2682
      4 C          -8.4784  -15.0950   27.3578 C.3     1  UNL1        0.0896
      5 N          -8.3796  -15.9211   26.1097 N.3     1  UNL1       -0.2715
      6 C          -8.9812  -17.2793   25.9015 C.3     1  UNL1        0.0722
      7 C          -8.6353  -17.7317   24.5138 C.3     1  UNL1        0.0190
      8 C          -8.7934  -18.8507   23.5274 C.3     1  UNL1        0.0213
      9 C          -8.0757  -18.4636   22.2685 C.3     1  UNL1        0.0761
     10 C          -7.4741  -17.1055   22.4766 C.3     1  UNL1        0.0213
     11 C          -7.8200  -16.6531   23.8643 C.3     1  UNL1        0.0190
     12 C          -7.6620  -15.5341   24.8507 C.3     1  UNL1        0.0722
     13 C         -10.3346  -18.4746   20.2943 C.ar    1  UNL1        0.1535
     14 C         -11.4669  -18.8472   21.2047 C.ar    1  UNL1        0.1012
     15 N         -12.4782  -17.7402   21.1638 N.ar    1  UNL1       -0.3057
     16 C         -13.7700  -17.6975   21.9250 C.3     1  UNL1        0.1321
     17 C         -11.9710  -16.6833   20.2280 C.ar    1  UNL1        0.1787
     18 N         -10.6461  -17.1372   19.6906 N.ar    1  UNL1       -0.2192
     19 C          -6.7489  -20.1104   20.7593 C.3     1  UNL1        0.1204
     20 C          -5.4115  -19.4417   20.6397 C.ar    1  UNL1       -0.0022
     21 C          -4.8260  -19.1724   19.2851 C.ar    1  UNL1       -0.0003
     22 C          -3.4887  -18.5038   19.1656 C.ar    1  UNL1        0.0293
     23 C          -2.7367  -18.1044   20.4006 C.ar    1  UNL1        0.1440
     24 F          -1.3993  -17.4358   20.2810 F       1  UNL1       -0.2042
     25 C          -3.3221  -18.3738   21.7551 C.ar    1  UNL1        0.0985
     26 C          -4.6595  -19.0424   21.8746 C.ar    1  UNL1        0.0035
     27 C          -2.5701  -17.9745   22.9900 C.3     1  UNL1        0.4207
     28 F          -1.8181  -17.5752   24.2249 F       1  UNL1       -0.1658
     29 F          -3.7269  -17.1210   23.4185 F       1  UNL1       -0.1658
     30 F          -1.4134  -18.8279   22.5615 F       1  UNL1       -0.1658
@<TRIPOS>BOND
     1     4     5    1
     2     5     6    1
     3     7     6    1
     4     7     8    1
     5     8     9    1
     6     9     1    1
     7     1    19    1
     8    19    20    1
     9    20    21   ar
    10    21    22   ar
    11    22    23   ar
    12    23    24    1
    13    23    25   ar
    14    25    27    1
    15    27    28    1
    16    27    29    1
    17    27    30    1
    18    25    26   ar
    19     1     2   am
    20     2     3    2
    21     2    13    1
    22    13    14   ar
    23    14    15   ar
    24    15    16    1
    25    15    17   ar
    26    17    18   ar
    27     9    10    1
    28    11    10    1
    29    11    12    1
    30    12     5    1
    31    11     7    1
    32    26    20   ar
    33    18    13   ar
@<TRIPOS>MOLECULE
*****
 30 33 0 0 0
SMALL
GASTEIGER

@<TRIPOS>ATOM
      1 N         -15.0992   -7.9823   17.8979 N.am    1  UNL1       -0.2723
      2 C         -16.1833   -8.9834   18.1670 C.2     1  UNL1        0.2685
      3 O         -15.9353  -10.4420   17.9201 O.2     1  UNL1       -0.2682
      4 C         -16.3584   -0.5760   19.1517 C.3     1  UNL1        0.0896
      5 N         -16.1104   -2.0346   18.9047 N.3     1  UNL1       -0.2715
      6 C         -15.5708   -3.0181   19.9004 C.3     1  UNL1        0.0722
      7 C         -15.4854   -4.3572   19.2299 C.3     1  UNL1        0.0190
      8 C         -15.0991   -5.7926   19.4308 C.3     1  UNL1        0.0213
      9 C         -15.3472   -6.5237   18.1448 C.3     1  UNL1        0.0761
     10 C         -15.8868   -5.5402   17.1491 C.3     1  UNL1        0.0213
     11 C         -15.9722   -4.2012   17.8197 C.3     1  UNL1        0.0190
     12 C         -16.3585   -2.7658   17.6188 C.3     1  UNL1        0.0722
     13 C         -17.5154   -8.5260   18.6831 C.ar    1  UNL1        0.1535
     14 C         -18.0906   -8.8338   20.0337 C.ar    1  UNL1        0.1012
     15 N         -19.4368   -8.1785   20.1245 N.ar    1  UNL1       -0.3057
     16 C         -20.3636   -8.2275   21.3030 C.3     1  UNL1        0.1321
     17 C         -19.6936   -7.4657   18.8300 C.ar    1  UNL1        0.1787
     18 N         -18.5061   -7.6804   17.9390 N.ar    1  UNL1       -0.2192
     19 C         -13.7672   -8.4397   17.3818 C.3     1  UNL1        0.1204
     20 C         -12.6293   -7.4680   17.2774 C.ar    1  UNL1       -0.0022
     21 C         -12.5252   -6.5600   16.0879 C.ar    1  UNL1       -0.0003
     22 C         -11.3874   -5.5882   15.9834 C.ar    1  UNL1        0.0293
     23 C         -10.3536   -5.5244   17.0685 C.ar    1  UNL1        0.1440
     24 F          -9.2158   -4.5526   16.9641 F       1  UNL1       -0.2042
     25 C         -10.4578   -6.4323   18.2580 C.ar    1  UNL1        0.0985
     26 C         -11.5956   -7.4041   18.3624 C.ar    1  UNL1        0.0035
     27 C          -9.4240   -6.3684   19.3430 C.3     1  UNL1        0.4207
     28 F          -8.3902   -6.3046   20.4280 F       1  UNL1       -0.1658
     29 F          -9.7429   -4.9191   19.5616 F       1  UNL1       -0.1658
     30 F          -9.1051   -7.8177   19.1244 F       1  UNL1       -0.1658
@<TRIPOS>BOND
     1     4     5    1
     2     5     6    1
     3     7     6    1
     4     7     8    1
     5     8     9    1
     6     9     1    1
     7     1    19    1
     8    19    20    1
     9    20    21   ar
    10    21    22   ar
    11    22    23   ar
    12    23    24    1
    13    23    25   ar
    14    25    27    1
    15    27    28    1
    16    27    29    1
    17    27    30    1
    18    25    26   ar
    19     1     2   am
    20     2     3    2
    21     2    13    1
    22    13    14   ar
    23    14    15   ar
    24    15    16    1
    25    15    17   ar
    26    17    18   ar
    27     9    10    1
    28    11    10    1
    29    11    12    1
    30    12     5    1
    31    11     7    1
    32    26    20   ar
    33    18    13   ar
@<TRIPOS>MOLECULE
*****
 30 33 0 0 0
SMALL
GASTEIGER

@<TRIPOS>ATOM
      1 N          -6.5484  -16.7117   23.5847 N.am    1  UNL1       -0.2723
      2 C          -5.1757  -16.2060   23.9162 C.2     1  UNL1        0.2685
      3 O          -4.9994  -15.1455   24.9622 O.2     1  UNL1       -0.2682
      4 C          -7.4434  -22.0969   18.2734 C.3     1  UNL1        0.0896
      5 N          -7.2671  -21.0363   19.3194 N.3     1  UNL1       -0.2715
      6 C          -8.0612  -19.7688   19.4324 C.3     1  UNL1        0.0722
      7 C          -7.5507  -19.0062   20.6189 C.3     1  UNL1        0.0190
      8 C          -7.7259  -17.7515   21.4221 C.3     1  UNL1        0.0213
      9 C          -6.7247  -17.7723   22.5387 C.3     1  UNL1        0.0761
     10 C          -5.9306  -19.0397   22.4258 C.3     1  UNL1        0.0213
     11 C          -6.4411  -19.8024   21.2393 C.3     1  UNL1        0.0190
     12 C          -6.2659  -21.0571   20.4361 C.3     1  UNL1        0.0722
     13 C          -3.9792  -16.7610   23.2017 C.ar    1  UNL1        0.1535
     14 C          -3.2220  -16.0876   22.0958 C.ar    1  UNL1        0.1012
     15 N          -2.1047  -16.9971   21.6783 N.ar    1  UNL1       -0.3057
     16 C          -1.0975  -16.7198   20.6018 C.3     1  UNL1        0.1321
     17 C          -2.1712  -18.2326   22.5263 C.ar    1  UNL1        0.1787
     18 N          -3.3298  -18.0867   23.4679 N.ar    1  UNL1       -0.2192
     19 C          -7.7448  -16.1568   24.2992 C.3     1  UNL1        0.1204
     20 C          -9.0962  -16.7730   24.0893 C.ar    1  UNL1       -0.0022
     21 C          -9.5583  -17.8884   24.9796 C.ar    1  UNL1       -0.0003
     22 C         -10.9097  -18.5046   24.7697 C.ar    1  UNL1        0.0293
     23 C         -11.7990  -18.0054   23.6697 C.ar    1  UNL1        0.1440
     24 F         -13.1504  -18.6216   23.4598 F       1  UNL1       -0.2042
     25 C         -11.3369  -16.8900   22.7795 C.ar    1  UNL1        0.0985
     26 C          -9.9855  -16.2738   22.9894 C.ar    1  UNL1        0.0035
     27 C         -12.2262  -16.3909   21.6796 C.3     1  UNL1        0.4207
     28 F         -13.1156  -15.8916   20.5796 F       1  UNL1       -0.1658
     29 F         -11.4721  -17.2286   20.6897 F       1  UNL1       -0.1658
     30 F         -12.9802  -15.5532   22.6693 F       1  UNL1       -0.1658
@<TRIPOS>BOND
     1     4     5    1
     2     5     6    1
     3     7     6    1
     4     7     8    1
     5     8     9    1
     6     9     1    1
     7     1    19    1
     8    19    20    1
     9    20    21   ar
    10    21    22   ar
    11    22    23   ar
    12    23    24    1
    13    23    25   ar
    14    25    27    1
    15    27    28    1
    16    27    29    1
    17    27    30    1
    18    25    26   ar
    19     1     2   am
    20     2     3    2
    21     2    13    1
    22    13    14   ar
    23    14    15   ar
    24    15    16    1
    25    15    17   ar
    26    17    18   ar
    27     9    10    1
    28    11    10    1
    29    11    12    1
    30    12     5    1
    31    11     7    1
    32    26    20   ar
    33    18    13   ar
@<TRIPOS>MOLECULE
*****
 30 33 0 0 0
SMALL
GASTEIGER

@<TRIPOS>ATOM
      1 N          -7.1268  -19.4634   21.0325 N.am    1  UNL1       -0.2723
      2 C          -6.0897  -20.1444   20.1895 C.2     1  UNL1        0.2685
      3 O          -6.4986  -21.1976   19.2028 O.2     1  UNL1       -0.2682
      4 C          -5.0506  -14.1155   26.0425 C.3     1  UNL1        0.0896
      5 N          -5.4595  -15.1687   25.0559 N.3     1  UNL1       -0.2715
      6 C          -4.6583  -16.3781   24.6744 C.3     1  UNL1        0.0722
      7 C          -5.4450  -17.1543   23.6602 C.3     1  UNL1        0.0190
      8 C          -5.4361  -18.3815   22.7976 C.3     1  UNL1        0.0213
      9 C          -6.7179  -18.4102   22.0192 C.3     1  UNL1        0.0761
     10 C          -7.5191  -17.2009   22.4006 C.3     1  UNL1        0.0213
     11 C          -6.7324  -16.4247   23.4148 C.3     1  UNL1        0.0190
     12 C          -6.7413  -15.1975   24.2774 C.3     1  UNL1        0.0722
     13 C          -4.6437  -19.7722   20.3331 C.ar    1  UNL1        0.1535
     14 C          -3.9268  -18.7056   19.5596 C.ar    1  UNL1        0.1012
     15 N          -2.5008  -18.6754   20.0239 N.ar    1  UNL1       -0.3057
     16 C          -1.4277  -17.7583   19.5167 C.3     1  UNL1        0.1321
     17 C          -2.3364  -19.7234   21.0844 C.ar    1  UNL1        0.1787
     18 N          -3.6608  -20.4013   21.2756 N.ar    1  UNL1       -0.2192
     19 C          -8.5727  -19.8356   20.8888 C.3     1  UNL1        0.1204
     20 C          -9.5413  -19.5205   21.9900 C.ar    1  UNL1       -0.0022
     21 C          -9.5463  -20.3449   23.2432 C.ar    1  UNL1       -0.0003
     22 C         -10.5149  -20.0297   24.3443 C.ar    1  UNL1        0.0293
     23 C         -11.4784  -18.8902   24.1923 C.ar    1  UNL1        0.1440
     24 F         -12.4470  -18.5750   25.2934 F       1  UNL1       -0.2042
     25 C         -11.4734  -18.0658   22.9391 C.ar    1  UNL1        0.0985
     26 C         -10.5048  -18.3810   21.8380 C.ar    1  UNL1        0.0035
     27 C         -12.4369  -16.9264   22.7871 C.3     1  UNL1        0.4207
     28 F         -13.4005  -15.7868   22.6351 F       1  UNL1       -0.1658
     29 F         -13.5692  -17.9014   22.6550 F       1  UNL1       -0.1658
     30 F         -11.3048  -15.9514   22.9192 F       1  UNL1       -0.1658
@<TRIPOS>BOND
     1     4     5    1
     2     5     6    1
     3     7     6    1
     4     7     8    1
     5     8     9    1
     6     9     1    1
     7     1    19    1
     8    19    20    1
     9    20    21   ar
    10    21    22   ar
    11    22    23   ar
    12    23    24    1
    13    23    25   ar
    14    25    27    1
    15    27    28    1
    16    27    29    1
    17    27    30    1
    18    25    26   ar
    19     1     2   am
    20     2     3    2
    21     2    13    1
    22    13    14   ar
    23    14    15   ar
    24    15    16    1
    25    15    17   ar
    26    17    18   ar
    27     9    10    1
    28    11    10    1
    29    11    12    1
    30    12     5    1
    31    11     7    1
    32    26    20   ar
    33    18    13   ar
@<TRIPOS>MOLECULE
*****
 30 33 0 0 0
SMALL
GASTEIGER

@<TRIPOS>ATOM
      1 N          -7.2027  -19.7395   21.1671 N.am    1  UNL1       -0.2723
      2 C          -6.1996  -20.3512   20.2346 C.2     1  UNL1        0.2685
      3 O          -6.6127  -21.4572   19.3093 O.2     1  UNL1       -0.2682
      4 C          -5.1051  -14.1236   25.8653 C.3     1  UNL1        0.0896
      5 N          -5.5182  -15.2296   24.9400 N.3     1  UNL1       -0.2715
      6 C          -6.8596  -15.3764   24.2851 C.3     1  UNL1        0.0722
      7 C          -6.8329  -16.6205   23.4475 C.3     1  UNL1        0.0190
      8 C          -7.6454  -17.4802   22.5251 C.3     1  UNL1        0.0213
      9 C          -6.7896  -18.6335   22.0924 C.3     1  UNL1        0.0761
     10 C          -5.4482  -18.4867   22.7472 C.3     1  UNL1        0.0213
     11 C          -5.4749  -17.2426   23.5848 C.3     1  UNL1        0.0190
     12 C          -4.6624  -16.3829   24.5072 C.3     1  UNL1        0.0722
     13 C          -4.7834  -19.8569   20.2273 C.ar    1  UNL1        0.1535
     14 C          -4.2560  -18.7043   19.4253 C.ar    1  UNL1        0.1012
     15 N          -2.7926  -18.5635   19.7231 N.ar    1  UNL1       -0.3057
     16 C          -1.8685  -17.5373   19.1376 C.3     1  UNL1        0.1321
     17 C          -2.4156  -19.6291   20.7091 C.ar    1  UNL1        0.1787
     18 N          -3.6460  -20.4285   21.0208 N.ar    1  UNL1       -0.2192
     19 C          -8.6189  -20.2337   21.1743 C.3     1  UNL1        0.1204
     20 C          -9.7544  -19.2578   21.0839 C.ar    1  UNL1       -0.0022
     21 C          -9.9209  -18.4126   19.8559 C.ar    1  UNL1       -0.0003
     22 C         -11.0564  -17.4366   19.7655 C.ar    1  UNL1        0.0293
     23 C         -12.0254  -17.3059   20.9031 C.ar    1  UNL1        0.1440
     24 F         -13.1608  -16.3299   20.8127 F       1  UNL1       -0.2042
     25 C         -11.8588  -18.1511   22.1310 C.ar    1  UNL1        0.0985
     26 C         -10.7233  -19.1270   22.2214 C.ar    1  UNL1        0.0035
     27 C         -12.8278  -18.0203   23.2685 C.3     1  UNL1        0.4207
     28 F         -13.7968  -17.8896   24.4061 F       1  UNL1       -0.1658
     29 F         -11.6849  -17.8191   24.2190 F       1  UNL1       -0.1658
     30 F         -13.9706  -18.2215   22.3181 F       1  UNL1       -0.1658
@<TRIPOS>BOND
     1     4     5    1
     2     5     6    1
     3     7     6    1
     4     7     8    1
     5     8     9    1
     6     9     1    1
     7     1    19    1
     8    19    20    1
     9    20    21   ar
    10    21    22   ar
    11    22    23   ar
    12    23    24    1
    13    23    25   ar
    14    25    27    1
    15    27    28    1
    16    27    29    1
    17    27    30    1
    18    25    26   ar
    19     1     2   am
    20     2     3    2
    21     2    13    1
    22    13    14   ar
    23    14    15   ar
    24    15    16    1
    25    15    17   ar
    26    17    18   ar
    27     9    10    1
    28    11    10    1
    29    11    12    1
    30    12     5    1
    31    11     7    1
    32    26    20   ar
    33    18    13   ar
@<TRIPOS>MOLECULE
*****
 30 33 0 0 0
SMALL
GASTEIGER

@<TRIPOS>ATOM
      1 N         -14.8876   -7.9166   17.6544 N.am    1  UNL1       -0.2723
      2 C         -15.6288   -9.1318   18.1274 C.2     1  UNL1        0.2685
      3 O         -14.9426  -10.4654   18.1549 O.2     1  UNL1       -0.2682
      4 C         -18.3720   -1.1452   17.5148 C.3     1  UNL1        0.0896
      5 N         -17.6858   -2.4788   17.5423 N.3     1  UNL1       -0.2715
      6 C         -17.1855   -3.1879   18.7658 C.3     1  UNL1        0.0722
      7 C         -16.5699   -4.4847   18.3308 C.3     1  UNL1        0.0190
      8 C         -15.8802   -5.7245   18.8181 C.3     1  UNL1        0.0213
      9 C         -15.5738   -6.5830   17.6269 C.3     1  UNL1        0.0761
     10 C         -16.0741   -5.8740   16.4035 C.3     1  UNL1        0.0213
     11 C         -16.6897   -4.5772   16.8384 C.3     1  UNL1        0.0190
     12 C         -17.3793   -3.3374   16.3512 C.3     1  UNL1        0.0722
     13 C         -17.0563   -9.0136   18.5730 C.ar    1  UNL1        0.1535
     14 C         -17.5228   -8.7095   19.9657 C.ar    1  UNL1        0.1012
     15 N         -19.0226   -8.6866   19.9575 N.ar    1  UNL1       -0.3057
     16 C         -19.9068   -8.4205   21.1396 C.3     1  UNL1        0.1321
     17 C         -19.4830   -8.9765   18.5597 C.ar    1  UNL1        0.1787
     18 N         -18.2677   -9.1786   17.7039 N.ar    1  UNL1       -0.2192
     19 C         -13.4602   -8.0349   17.2089 C.3     1  UNL1        0.1204
     20 C         -12.4077   -7.1609   17.8240 C.ar    1  UNL1       -0.0022
     21 C         -11.0458   -7.7185   18.1148 C.ar    1  UNL1       -0.0003
     22 C          -9.9933   -6.8445   18.7299 C.ar    1  UNL1        0.0293
     23 C         -10.3026   -5.4130   19.0541 C.ar    1  UNL1        0.1440
     24 F          -9.2500   -4.5390   19.6692 F       1  UNL1       -0.2042
     25 C         -11.6644   -4.8554   18.7633 C.ar    1  UNL1        0.0985
     26 C         -12.7169   -5.7294   18.1482 C.ar    1  UNL1        0.0035
     27 C         -11.9736   -3.4239   19.0875 C.3     1  UNL1        0.4207
     28 F         -12.2829   -1.9924   19.4118 F       1  UNL1       -0.1658
     29 F         -11.0265   -2.9761   18.0139 F       1  UNL1       -0.1658
     30 F         -12.9207   -3.8717   20.1611 F       1  UNL1       -0.1658
@<TRIPOS>BOND
     1     4     5    1
     2     5     6    1
     3     7     6    1
     4     7     8    1
     5     8     9    1
     6     9     1    1
     7     1    19    1
     8    19    20    1
     9    20    21   ar
    10    21    22   ar
    11    22    23   ar
    12    23    24    1
    13    23    25   ar
    14    25    27    1
    15    27    28    1
    16    27    29    1
    17    27    30    1
    18    25    26   ar
    19     1     2   am
    20     2     3    2
    21     2    13    1
    22    13    14   ar
    23    14    15   ar
    24    15    16    1
    25    15    17   ar
    26    17    18   ar
    27     9    10    1
    28    11    10    1
    29    11    12    1
    30    12     5    1
    31    11     7    1
    32    26    20   ar
    33    18    13   ar
@<TRIPOS>MOLECULE
*****
 30 33 0 0 0
SMALL
GASTEIGER

@<TRIPOS>ATOM
      1 N           1.7654    0.8572   19.8338 N.am    1  UNL1       -0.2723
      2 C           0.7438    1.9553   19.8566 C.2     1  UNL1        0.2685
      3 O          -0.6045    1.7127   20.4675 O.2     1  UNL1       -0.2682
      4 C           8.6116    2.0888   16.7316 C.3     1  UNL1        0.0896
      5 N           7.2633    1.8463   17.3426 N.3     1  UNL1       -0.2715
      6 C           6.1355    1.0820   16.7149 C.3     1  UNL1        0.0722
      7 C           4.9812    1.0887   17.6729 C.3     1  UNL1        0.0190
      8 C           3.5709    0.6206   17.8770 C.3     1  UNL1        0.0213
      9 C           3.1137    1.0997   19.2228 C.3     1  UNL1        0.0761
     10 C           4.2414    1.8640   19.8505 C.3     1  UNL1        0.0213
     11 C           5.3956    1.8573   18.8926 C.3     1  UNL1        0.0190
     12 C           6.8060    2.3254   18.6884 C.3     1  UNL1        0.0722
     13 C           1.0705    3.2960   19.2685 C.ar    1  UNL1        0.1535
     14 C           0.8031    3.7286   17.8574 C.ar    1  UNL1        0.1012
     15 N           1.2893    5.1394   17.7051 N.ar    1  UNL1       -0.3057
     16 C           1.2198    5.9658   16.4552 C.3     1  UNL1        0.1321
     17 C           1.8571    5.5787   19.0220 C.ar    1  UNL1        0.1787
     18 N           1.7219    4.4394   19.9884 N.ar    1  UNL1       -0.2192
     19 C           1.4386   -0.4835   20.4218 C.3     1  UNL1        0.1204
     20 C           2.5420   -1.4346   20.7796 C.ar    1  UNL1       -0.0022
     21 C           3.2329   -1.3171   22.1059 C.ar    1  UNL1       -0.0003
     22 C           4.3362   -2.2682   22.4636 C.ar    1  UNL1        0.0293
     23 C           4.7487   -3.3368   21.4951 C.ar    1  UNL1        0.1440
     24 F           5.8520   -4.2879   21.8528 F       1  UNL1       -0.2042
     25 C           4.0578   -3.4543   20.1689 C.ar    1  UNL1        0.0985
     26 C           2.9545   -2.5032   19.8111 C.ar    1  UNL1        0.0035
     27 C           4.4703   -4.5229   19.2004 C.3     1  UNL1        0.4207
     28 F           4.8828   -5.5916   18.2320 F       1  UNL1       -0.1658
     29 F           5.4116   -3.5602   18.5391 F       1  UNL1       -0.1658
     30 F           3.5291   -5.4855   19.8618 F       1  UNL1       -0.1658
@<TRIPOS>BOND
     1     4     5    1
     2     5     6    1
     3     7     6    1
     4     7     8    1
     5     8     9    1
     6     9     1    1
     7     1    19    1
     8    19    20    1
     9    20    21   ar
    10    21    22   ar
    11    22    23   ar
    12    23    24    1
    13    23    25   ar
    14    25    27    1
    15    27    28    1
    16    27    29    1
    17    27    30    1
    18    25    26   ar
    19     1     2   am
    20     2     3    2
    21     2    13    1
    22    13    14   ar
    23    14    15   ar
    24    15    16    1
    25    15    17   ar
    26    17    18   ar
    27     9    10    1
    28    11    10    1
    29    11    12    1
    30    12     5    1
    31    11     7    1
    32    26    20   ar
    33    18    13   ar
@<TRIPOS>MOLECULE
*****
 30 33 0 0 0
SMALL
GASTEIGER

@<TRIPOS>ATOM
      1 N           7.1477   -3.5072   22.6381 N.am    1  UNL1       -0.2723
      2 C           6.9775   -4.1511   21.2942 C.2     1  UNL1        0.2685
      3 O           7.9195   -5.2331   20.8562 O.2     1  UNL1       -0.2682
      4 C           2.3644    1.9869   24.8620 C.3     1  UNL1        0.0896
      5 N           3.3064    0.9049   24.4241 N.3     1  UNL1       -0.2715
      6 C           4.6209    1.1077   23.7305 C.3     1  UNL1        0.0722
      7 C           5.2262   -0.2417   23.4805 C.3     1  UNL1        0.0190
      8 C           6.4127   -0.9504   22.8974 C.3     1  UNL1        0.0213
      9 C           6.2057   -2.4252   23.0761 C.3     1  UNL1        0.0761
     10 C           4.8913   -2.6281   23.7697 C.3     1  UNL1        0.0213
     11 C           4.2859   -1.2786   24.0196 C.3     1  UNL1        0.0190
     12 C           3.0994   -0.5700   24.6028 C.3     1  UNL1        0.0722
     13 C           5.8651   -3.7131   20.3881 C.ar    1  UNL1        0.1535
     14 C           5.9178   -2.5728   19.4152 C.ar    1  UNL1        0.1012
     15 N           4.5901   -2.4934   18.7217 N.ar    1  UNL1       -0.3057
     16 C           4.2036   -1.4975   17.6687 C.3     1  UNL1        0.1321
     17 C           3.7169   -3.5847   19.2660 C.ar    1  UNL1        0.1787
     18 N           4.5049   -4.3386   20.2960 N.ar    1  UNL1       -0.2192
     19 C           8.2600   -3.9452   23.5441 C.3     1  UNL1        0.1204
     20 C           8.0667   -5.1216   24.4544 C.ar    1  UNL1       -0.0022
     21 C           8.3165   -6.5112   23.9476 C.ar    1  UNL1       -0.0003
     22 C           8.1231   -7.6876   24.8579 C.ar    1  UNL1        0.0293
     23 C           7.6800   -7.4745   26.2750 C.ar    1  UNL1        0.1440
     24 F           7.4867   -8.6509   27.1853 F       1  UNL1       -0.2042
     25 C           7.4303   -6.0850   26.7818 C.ar    1  UNL1        0.0985
     26 C           7.6236   -4.9086   25.8715 C.ar    1  UNL1        0.0035
     27 C           6.9872   -5.8719   28.1989 C.3     1  UNL1        0.4207
     28 F           6.5440   -5.6588   29.6161 F       1  UNL1       -0.1658
     29 F           8.4071   -6.0072   28.6633 F       1  UNL1       -0.1658
     30 F           5.5673   -5.7366   27.7346 F       1  UNL1       -0.1658
@<TRIPOS>BOND
     1     4     5    1
     2     5     6    1
     3     7     6    1
     4     7     8    1
     5     8     9    1
     6     9     1    1
     7     1    19    1
     8    19    20    1
     9    20    21   ar
    10    21    22   ar
    11    22    23   ar
    12    23    24    1
    13    23    25   ar
    14    25    27    1
    15    27    28    1
    16    27    29    1
    17    27    30    1
    18    25    26   ar
    19     1     2   am
    20     2     3    2
    21     2    13    1
    22    13    14   ar
    23    14    15   ar
    24    15    16    1
    25    15    17   ar
    26    17    18   ar
    27     9    10    1
    28    11    10    1
    29    11    12    1
    30    12     5    1
    31    11     7    1
    32    26    20   ar
    33    18    13   ar
