@<TRIPOS>MOLECULE
*****
 28 31 0 0 0
SMALL
GASTEIGER

@<TRIPOS>ATOM
      1 C          -6.7927  -16.4663   24.1307 C.ar    1  UNL1        0.0912
      2 C          -8.0150  -17.1104   23.5467 C.ar    1  UNL1        0.0466
      3 C          -9.3013  -17.1154   24.3181 C.ar    1  UNL1        0.1631
      4 C          -9.3655  -16.4763   25.6737 C.ar    1  UNL1        0.1193
      5 N          -8.1432  -15.8322   26.2577 N.ar    1  UNL1       -0.2846
      6 C          -7.9047  -15.1291   27.5611 C.ar    1  UNL1        0.1023
      7 C          -6.4710  -14.6895   27.5951 C.ar    1  UNL1        0.1195
      8 N          -5.8233  -15.1210   26.3127 N.ar    1  UNL1       -0.2247
      9 C          -6.8568  -15.8271   25.4862 C.ar    1  UNL1        0.1524
     10 N          -4.8929  -17.7561   22.9154 N.am    1  UNL1       -0.2657
     11 C          -5.5064  -16.4613   23.3591 C.2     1  UNL1        0.2536
     12 O          -4.8334  -15.1613   23.0314 O.2     1  UNL1       -0.2697
     13 H          -5.3345  -18.6093   23.1305 H       1  UNL1        0.1566
     14 C           0.2525  -17.7360   19.8293 C.3     1  UNL1        0.0327
     15 C          -1.0338  -17.7410   20.6008 C.ar    1  UNL1       -0.0026
     16 C          -1.8081  -19.0158   20.7596 C.ar    1  UNL1        0.0001
     17 C          -3.0945  -19.0208   21.5312 C.ar    1  UNL1        0.0342
     18 C          -3.6065  -17.7510   22.1439 C.ar    1  UNL1        0.1344
     19 N          -2.8322  -16.4762   21.9850 N.ar    1  UNL1       -0.2293
     20 C          -1.5459  -16.4712   21.2135 C.ar    1  UNL1        0.0960
     21 O         -10.5237  -17.7596   23.7341 O.3     1  UNL1       -0.4503
     22 C         -10.8437  -17.5802   22.2797 C.ar    1  UNL1        0.1667
     23 C         -11.4907  -16.3129   21.8049 C.ar    1  UNL1        0.1364
     24 N         -11.8107  -16.1335   20.3504 N.ar    1  UNL1       -0.2368
     25 C         -11.4838  -17.2213   19.3708 C.ar    1  UNL1        0.1286
     26 C         -10.8369  -18.4886   19.8456 C.ar    1  UNL1        0.1623
     27 F         -10.5099  -19.5766   18.8660 F       1  UNL1       -0.2024
     28 C         -10.5168  -18.6680   21.3000 C.ar    1  UNL1        0.0703
@<TRIPOS>BOND
     1    14    15    1
     2    15    16   ar
     3    16    17   ar
     4    17    18   ar
     5    18    10    1
     6    10    11   am
     7    11    12    2
     8    11     1    1
     9     1     2   ar
    10     2     3   ar
    11     3    21    1
    12    21    22    1
    13    22    23   ar
    14    23    24   ar
    15    24    25   ar
    16    25    26   ar
    17    26    27    1
    18    26    28   ar
    19     3     4   ar
    20     4     5   ar
    21     5     6   ar
    22     6     7   ar
    23     7     8   ar
    24     8     9   ar
    25    18    19   ar
    26    19    20   ar
    27    20    15   ar
    28     9     1   ar
    29    28    22   ar
    30     9     5   ar
    31    10    13    1
@<TRIPOS>MOLECULE
*****
 28 31 0 0 0
SMALL
GASTEIGER

@<TRIPOS>ATOM
      1 C          -7.2961  -18.1006   22.9058 C.ar    1  UNL1        0.0912
      2 C          -6.4165  -18.9927   22.0808 C.ar    1  UNL1        0.0466
      3 C          -4.9412  -18.7323   22.0086 C.ar    1  UNL1        0.1631
      4 C          -4.3452  -17.5798   22.7614 C.ar    1  UNL1        0.1193
      5 N          -5.2248  -16.6877   23.5863 N.ar    1  UNL1       -0.2846
      6 C          -4.9246  -15.4845   24.4303 C.ar    1  UNL1        0.1023
      7 C          -6.2145  -15.0014   25.0241 C.ar    1  UNL1        0.1195
      8 N          -7.3119  -15.9059   24.5471 N.ar    1  UNL1       -0.2247
      9 C          -6.7002  -16.9481   23.6585 C.ar    1  UNL1        0.1524
     10 N          -9.6492  -17.4772   23.8138 N.am    1  UNL1       -0.2657
     11 C          -8.7716  -18.3611   22.9780 C.2     1  UNL1        0.2536
     12 O          -9.3694  -19.5055   22.2144 O.2     1  UNL1       -0.2697
     13 H          -9.2568  -16.7261   24.3149 H       1  UNL1        0.1566
     14 C         -15.5509  -18.5191   24.1021 C.3     1  UNL1        0.0327
     15 C         -14.0756  -18.2587   24.0300 C.ar    1  UNL1       -0.0026
     16 C         -13.5185  -17.3981   22.9350 C.ar    1  UNL1        0.0001
     17 C         -12.0431  -17.1376   22.8630 C.ar    1  UNL1        0.0342
     18 C         -11.1247  -17.7377   23.8859 C.ar    1  UNL1        0.1344
     19 N         -11.6817  -18.5983   24.9809 N.ar    1  UNL1       -0.2293
     20 C         -13.1571  -18.8588   25.0530 C.ar    1  UNL1        0.0960
     21 O          -4.0616  -19.6244   21.1836 O.3     1  UNL1       -0.4503
     22 C          -2.8768  -19.0517   20.4637 C.ar    1  UNL1        0.1667
     23 C          -1.5006  -19.2119   21.0385 C.ar    1  UNL1        0.1364
     24 N          -0.3158  -18.6391   20.3186 N.ar    1  UNL1       -0.2368
     25 C          -0.5072  -17.9061   19.0240 C.ar    1  UNL1        0.1286
     26 C          -1.8834  -17.7459   18.4493 C.ar    1  UNL1        0.1623
     27 F          -2.0750  -17.0128   17.1546 F       1  UNL1       -0.2024
     28 C          -3.0682  -18.3186   19.1691 C.ar    1  UNL1        0.0703
@<TRIPOS>BOND
     1    14    15    1
     2    15    16   ar
     3    16    17   ar
     4    17    18   ar
     5    18    10    1
     6    10    11   am
     7    11    12    2
     8    11     1    1
     9     1     2   ar
    10     2     3   ar
    11     3    21    1
    12    21    22    1
    13    22    23   ar
    14    23    24   ar
    15    24    25   ar
    16    25    26   ar
    17    26    27    1
    18    26    28   ar
    19     3     4   ar
    20     4     5   ar
    21     5     6   ar
    22     6     7   ar
    23     7     8   ar
    24     8     9   ar
    25    18    19   ar
    26    19    20   ar
    27    20    15   ar
    28     9     1   ar
    29    28    22   ar
    30     9     5   ar
    31    10    13    1
@<TRIPOS>MOLECULE
*****
 28 31 0 0 0
SMALL
GASTEIGER

@<TRIPOS>ATOM
      1 C           2.9239    1.0721   32.9220 C.ar    1  UNL1        0.0912
      2 C           2.9494    1.8068   34.2295 C.ar    1  UNL1        0.0466
      3 C           3.8822    1.3673   35.3187 C.ar    1  UNL1        0.1631
      4 C           4.7897    0.1930   35.1006 C.ar    1  UNL1        0.1193
      5 N           4.7643   -0.5417   33.7931 N.ar    1  UNL1       -0.2846
      6 C           5.5369   -1.7258   33.2921 C.ar    1  UNL1        0.1023
      7 C           5.0815   -2.0180   31.8931 C.ar    1  UNL1        0.1195
      8 N           4.0274   -1.0146   31.5295 N.ar    1  UNL1       -0.2247
      9 C           3.8314   -0.1022   32.7039 C.ar    1  UNL1        0.1524
     10 N           2.1690    0.9907   30.4374 N.am    1  UNL1       -0.2657
     11 C           1.9910    1.5116   31.8328 C.2     1  UNL1        0.2536
     12 O           0.8801    2.4720   32.1389 O.2     1  UNL1       -0.2697
     13 H           2.8980    0.3604   30.2365 H       1  UNL1        0.1566
     14 C          -1.5629    2.7488   26.0806 C.3     1  UNL1        0.0327
     15 C          -0.6300    2.3093   27.1697 C.ar    1  UNL1       -0.0026
     16 C          -0.8634    1.0074   27.8772 C.ar    1  UNL1        0.0001
     17 C           0.0696    0.5679   28.9664 C.ar    1  UNL1        0.0342
     18 C           1.2360    1.4303   29.3482 C.ar    1  UNL1        0.1344
     19 N           1.4694    2.7322   28.6407 N.ar    1  UNL1       -0.2293
     20 C           0.5365    3.1717   27.5515 C.ar    1  UNL1        0.0960
     21 O           3.9076    2.1021   36.6263 O.3     1  UNL1       -0.4503
     22 C           2.7286    2.0290   37.5508 C.ar    1  UNL1        0.1667
     23 C           1.7918    3.1948   37.6653 C.ar    1  UNL1        0.1364
     24 N           0.6128    3.1217   38.5897 N.ar    1  UNL1       -0.2368
     25 C           0.3706    1.8826   39.3997 C.ar    1  UNL1        0.1286
     26 C           1.3074    0.7167   39.2852 C.ar    1  UNL1        0.1623
     27 F           1.0653   -0.5224   40.0952 F       1  UNL1       -0.2024
     28 C           2.4864    0.7899   38.3607 C.ar    1  UNL1        0.0703
@<TRIPOS>BOND
     1    14    15    1
     2    15    16   ar
     3    16    17   ar
     4    17    18   ar
     5    18    10    1
     6    10    11   am
     7    11    12    2
     8    11     1    1
     9     1     2   ar
    10     2     3   ar
    11     3    21    1
    12    21    22    1
    13    22    23   ar
    14    23    24   ar
    15    24    25   ar
    16    25    26   ar
    17    26    27    1
    18    26    28   ar
    19     3     4   ar
    20     4     5   ar
    21     5     6   ar
    22     6     7   ar
    23     7     8   ar
    24     8     9   ar
    25    18    19   ar
    26    19    20   ar
    27    20    15   ar
    28     9     1   ar
    29    28    22   ar
    30     9     5   ar
    31    10    13    1
@<TRIPOS>MOLECULE
*****
 28 31 0 0 0
SMALL
GASTEIGER

@<TRIPOS>ATOM
      1 C         -13.4200   -4.8095   19.3068 C.ar    1  UNL1        0.0912
      2 C         -14.3566   -5.9793   19.2421 C.ar    1  UNL1        0.0466
      3 C         -13.8422   -7.3309   18.8443 C.ar    1  UNL1        0.1631
      4 C         -12.3910   -7.5129   18.5110 C.ar    1  UNL1        0.1193
      5 N         -11.4543   -6.3431   18.5757 N.ar    1  UNL1       -0.2846
      6 C          -9.9842   -6.2184   18.3053 C.ar    1  UNL1        0.1023
      7 C          -9.5901   -4.7896   18.5361 C.ar    1  UNL1        0.1195
      8 N         -10.8166   -4.0313   18.9491 N.ar    1  UNL1       -0.2247
      9 C         -11.9688   -4.9914   18.9736 C.ar    1  UNL1        0.1524
     10 N         -14.5820   -2.5712   18.6827 N.am    1  UNL1       -0.2657
     11 C         -13.9344   -3.4579   19.7047 C.2     1  UNL1        0.2536
     12 O         -13.8014   -2.9928   21.1246 O.2     1  UNL1       -0.2697
     13 H         -14.6693   -2.8763   17.7507 H       1  UNL1        0.1566
     14 C         -16.6396    2.8355   20.2744 C.3     1  UNL1        0.0327
     15 C         -16.1252    1.4839   19.8765 C.ar    1  UNL1       -0.0026
     16 C         -14.9022    1.3705   19.0154 C.ar    1  UNL1        0.0001
     17 C         -14.3878    0.0188   18.6175 C.ar    1  UNL1        0.0342
     18 C         -15.0964   -1.2195   19.0806 C.ar    1  UNL1        0.1344
     19 N         -16.3194   -1.1061   19.9417 N.ar    1  UNL1       -0.2293
     20 C         -16.8338    0.2455   20.3396 C.ar    1  UNL1        0.0960
     21 O         -14.7790   -8.5008   18.7796 O.3     1  UNL1       -0.4503
     22 C         -16.2610   -8.2733   18.7352 C.ar    1  UNL1        0.1667
     23 C         -16.9390   -8.0007   17.4252 C.ar    1  UNL1        0.1364
     24 N         -18.4210   -7.7732   17.3808 N.ar    1  UNL1       -0.2368
     25 C         -19.2250   -7.8184   18.6463 C.ar    1  UNL1        0.1286
     26 C         -18.5470   -8.0910   19.9562 C.ar    1  UNL1        0.1623
     27 F         -19.3509   -8.1362   21.2219 F       1  UNL1       -0.2024
     28 C         -17.0650   -8.3185   20.0007 C.ar    1  UNL1        0.0703
@<TRIPOS>BOND
     1    14    15    1
     2    15    16   ar
     3    16    17   ar
     4    17    18   ar
     5    18    10    1
     6    10    11   am
     7    11    12    2
     8    11     1    1
     9     1     2   ar
    10     2     3   ar
    11     3    21    1
    12    21    22    1
    13    22    23   ar
    14    23    24   ar
    15    24    25   ar
    16    25    26   ar
    17    26    27    1
    18    26    28   ar
    19     3     4   ar
    20     4     5   ar
    21     5     6   ar
    22     6     7   ar
    23     7     8   ar
    24     8     9   ar
    25    18    19   ar
    26    19    20   ar
    27    20    15   ar
    28     9     1   ar
    29    28    22   ar
    30     9     5   ar
    31    10    13    1
@<TRIPOS>MOLECULE
*****
 28 31 0 0 0
SMALL
GASTEIGER

@<TRIPOS>ATOM
      1 C          -7.6374  -18.3631   21.6301 C.ar    1  UNL1        0.0912
      2 C          -7.9348  -17.7762   22.9781 C.ar    1  UNL1        0.0466
      3 C          -9.3381  -17.7868   23.5076 C.ar    1  UNL1        0.1631
      4 C         -10.4442  -18.3842   22.6892 C.ar    1  UNL1        0.1193
      5 N         -10.1468  -18.9710   21.3412 N.ar    1  UNL1       -0.2846
      6 C         -11.0245  -19.6245   20.3152 C.ar    1  UNL1        0.1023
      7 C         -10.1636  -20.0178   19.1516 C.ar    1  UNL1        0.1195
      8 N          -8.7538  -19.6074   19.4583 N.ar    1  UNL1       -0.2247
      9 C          -8.7434  -18.9604   20.8116 C.ar    1  UNL1        0.1524
     10 N          -5.0819  -18.1262   22.0339 N.am    1  UNL1       -0.2657
     11 C          -6.2341  -18.3525   21.1005 C.2     1  UNL1        0.2536
     12 O          -5.9828  -18.5683   19.6374 O.2     1  UNL1       -0.2697
     13 H          -5.2467  -17.9846   22.9942 H       1  UNL1        0.1566
     14 C           0.5314  -18.0844   19.9154 C.3     1  UNL1        0.0327
     15 C          -0.8718  -18.0948   20.4450 C.ar    1  UNL1       -0.0026
     16 C          -1.6334  -19.3846   20.5257 C.ar    1  UNL1        0.0001
     17 C          -3.0368  -19.3950   21.0553 C.ar    1  UNL1        0.0342
     18 C          -3.6785  -18.1157   21.5043 C.ar    1  UNL1        0.1344
     19 N          -2.9169  -16.8260   21.4236 N.ar    1  UNL1       -0.2293
     20 C          -1.5136  -16.8155   20.8940 C.ar    1  UNL1        0.0960
     21 O          -9.6355  -17.1999   24.8557 O.3     1  UNL1       -0.4503
     22 C          -8.5399  -16.5534   25.6505 C.ar    1  UNL1        0.1667
     23 C          -8.5960  -16.5609   27.1495 C.ar    1  UNL1        0.1364
     24 N          -7.5003  -15.9145   27.9443 N.ar    1  UNL1       -0.2368
     25 C          -6.3486  -15.2605   27.2401 C.ar    1  UNL1        0.1286
     26 C          -6.2925  -15.2529   25.7412 C.ar    1  UNL1        0.1623
     27 F          -5.1408  -14.5989   25.0369 F       1  UNL1       -0.2024
     28 C          -7.3881  -15.8994   24.9464 C.ar    1  UNL1        0.0703
@<TRIPOS>BOND
     1    14    15    1
     2    15    16   ar
     3    16    17   ar
     4    17    18   ar
     5    18    10    1
     6    10    11   am
     7    11    12    2
     8    11     1    1
     9     1     2   ar
    10     2     3   ar
    11     3    21    1
    12    21    22    1
    13    22    23   ar
    14    23    24   ar
    15    24    25   ar
    16    25    26   ar
    17    26    27    1
    18    26    28   ar
    19     3     4   ar
    20     4     5   ar
    21     5     6   ar
    22     6     7   ar
    23     7     8   ar
    24     8     9   ar
    25    18    19   ar
    26    19    20   ar
    27    20    15   ar
    28     9     1   ar
    29    28    22   ar
    30     9     5   ar
    31    10    13    1
@<TRIPOS>MOLECULE
*****
 28 31 0 0 0
SMALL
GASTEIGER

@<TRIPOS>ATOM
      1 C         -13.0207   -5.4669   18.8564 C.ar    1  UNL1        0.0912
      2 C         -13.0506   -3.9831   19.0739 C.ar    1  UNL1        0.0466
      3 C         -11.7696   -3.2034   19.1034 C.ar    1  UNL1        0.1631
      4 C         -10.4585   -3.9076   18.9154 C.ar    1  UNL1        0.1193
      5 N         -10.4286   -5.3914   18.6979 N.ar    1  UNL1       -0.2846
      6 C          -9.2963   -6.3518   18.4843 C.ar    1  UNL1        0.1023
      7 C          -9.8777   -7.7251   18.3228 C.ar    1  UNL1        0.1195
      8 N         -11.3692   -7.6134   18.4366 N.ar    1  UNL1       -0.2247
      9 C         -11.7097   -6.1711   18.6684 C.ar    1  UNL1        0.1524
     10 N         -14.3861   -7.5213   18.0407 N.am    1  UNL1       -0.2657
     11 C         -14.3018   -6.2466   18.8269 C.2     1  UNL1        0.2536
     12 O         -15.4987   -5.7516   19.5837 O.2     1  UNL1       -0.2697
     13 H         -13.6006   -7.8462   17.5441 H       1  UNL1        0.1566
     14 C         -19.5107  -10.6396   17.9228 C.3     1  UNL1        0.0327
     15 C         -18.2296   -9.8601   17.9523 C.ar    1  UNL1       -0.0026
     16 C         -18.0529   -8.6734   17.0521 C.ar    1  UNL1        0.0001
     17 C         -16.7717   -7.8938   17.0816 C.ar    1  UNL1        0.0342
     18 C         -15.6673   -8.3009   18.0113 C.ar    1  UNL1        0.1344
     19 N         -15.8440   -9.4877   18.9115 N.ar    1  UNL1       -0.2293
     20 C         -17.1251  -10.2672   18.8820 C.ar    1  UNL1        0.0960
     21 O         -11.7996   -1.7195   19.3210 O.3     1  UNL1       -0.4503
     22 C         -12.3169   -0.8138   18.2430 C.ar    1  UNL1        0.1667
     23 C         -11.4026   -0.3555   17.1457 C.ar    1  UNL1        0.1364
     24 N         -11.9199    0.5502   16.0677 N.ar    1  UNL1       -0.2368
     25 C         -13.3514    0.9977   16.0870 C.ar    1  UNL1        0.1286
     26 C         -14.2657    0.5394   17.1843 C.ar    1  UNL1        0.1623
     27 F         -15.6973    0.9869   17.2037 F       1  UNL1       -0.2024
     28 C         -13.7484   -0.3663   18.2623 C.ar    1  UNL1        0.0703
@<TRIPOS>BOND
     1    14    15    1
     2    15    16   ar
     3    16    17   ar
     4    17    18   ar
     5    18    10    1
     6    10    11   am
     7    11    12    2
     8    11     1    1
     9     1     2   ar
    10     2     3   ar
    11     3    21    1
    12    21    22    1
    13    22    23   ar
    14    23    24   ar
    15    24    25   ar
    16    25    26   ar
    17    26    27    1
    18    26    28   ar
    19     3     4   ar
    20     4     5   ar
    21     5     6   ar
    22     6     7   ar
    23     7     8   ar
    24     8     9   ar
    25    18    19   ar
    26    19    20   ar
    27    20    15   ar
    28     9     1   ar
    29    28    22   ar
    30     9     5   ar
    31    10    13    1
@<TRIPOS>MOLECULE
*****
 28 31 0 0 0
SMALL
GASTEIGER

@<TRIPOS>ATOM
      1 C         -14.3853   -1.0147   18.9370 C.ar    1  UNL1        0.0912
      2 C         -15.7990   -0.9601   19.4352 C.ar    1  UNL1        0.0466
      3 C         -16.6316    0.2646   19.1967 C.ar    1  UNL1        0.1631
      4 C         -16.0503    1.4348   18.4598 C.ar    1  UNL1        0.1193
      5 N         -14.6366    1.3802   17.9616 N.ar    1  UNL1       -0.2846
      6 C         -13.7984    2.3713   17.2098 C.ar    1  UNL1        0.1023
      7 C         -12.4478    1.7590   16.9837 C.ar    1  UNL1        0.1195
      8 N         -12.4513    0.3896   17.5958 N.ar    1  UNL1       -0.2247
      9 C         -13.8040    0.1555   18.2002 C.ar    1  UNL1        0.1524
     10 N         -12.7191   -2.8076   18.0655 N.am    1  UNL1       -0.2657
     11 C         -13.5527   -2.2394   19.1756 C.2     1  UNL1        0.2536
     12 O         -13.5538   -2.8960   20.5243 O.2     1  UNL1       -0.2697
     13 H         -12.7184   -2.3766   17.1804 H       1  UNL1        0.1566
     14 C          -9.3890   -7.7063   19.0203 C.3     1  UNL1        0.0327
     15 C         -10.2215   -6.4817   18.7816 C.ar    1  UNL1       -0.0026
     16 C          -9.6111   -5.1195   18.9289 C.ar    1  UNL1        0.0001
     17 C         -10.4437   -3.8948   18.6902 C.ar    1  UNL1        0.0342
     18 C         -11.8866   -4.0323   18.3042 C.ar    1  UNL1        0.1344
     19 N         -12.4970   -5.3946   18.1569 N.ar    1  UNL1       -0.2293
     20 C         -11.6645   -6.6192   18.3956 C.ar    1  UNL1        0.0960
     21 O         -18.0454    0.3192   19.6949 O.3     1  UNL1       -0.4503
     22 C         -18.3520    0.9688   21.0117 C.ar    1  UNL1        0.1667
     23 C         -19.7390    0.8973   21.5784 C.ar    1  UNL1        0.1364
     24 N         -20.0456    1.5469   22.8952 N.ar    1  UNL1       -0.2368
     25 C         -18.9653    2.2682   23.6452 C.ar    1  UNL1        0.1286
     26 C         -17.5783    2.3398   23.0785 C.ar    1  UNL1        0.1623
     27 F         -16.4978    3.0611   23.8285 F       1  UNL1       -0.2024
     28 C         -17.2717    1.6901   21.7617 C.ar    1  UNL1        0.0703
@<TRIPOS>BOND
     1    14    15    1
     2    15    16   ar
     3    16    17   ar
     4    17    18   ar
     5    18    10    1
     6    10    11   am
     7    11    12    2
     8    11     1    1
     9     1     2   ar
    10     2     3   ar
    11     3    21    1
    12    21    22    1
    13    22    23   ar
    14    23    24   ar
    15    24    25   ar
    16    25    26   ar
    17    26    27    1
    18    26    28   ar
    19     3     4   ar
    20     4     5   ar
    21     5     6   ar
    22     6     7   ar
    23     7     8   ar
    24     8     9   ar
    25    18    19   ar
    26    19    20   ar
    27    20    15   ar
    28     9     1   ar
    29    28    22   ar
    30     9     5   ar
    31    10    13    1
@<TRIPOS>MOLECULE
*****
 28 31 0 0 0
SMALL
GASTEIGER

@<TRIPOS>ATOM
      1 C          -0.5830    2.6760   22.6965 C.ar    1  UNL1        0.0912
      2 C          -0.4023    2.8922   24.1698 C.ar    1  UNL1        0.0466
      3 C          -1.4919    3.5396   24.9719 C.ar    1  UNL1        0.1631
      4 C          -2.7623    3.9708   24.3008 C.ar    1  UNL1        0.1193
      5 N          -2.9429    3.7546   22.8276 N.ar    1  UNL1       -0.2846
      6 C          -4.0764    4.0727   21.8980 C.ar    1  UNL1        0.1023
      7 C          -3.6872    3.6219   20.5213 C.ar    1  UNL1        0.1195
      8 N          -2.3133    3.0252   20.6000 N.ar    1  UNL1       -0.2247
      9 C          -1.8533    3.1072   22.0254 C.ar    1  UNL1        0.1524
     10 N           0.1791    0.9118   20.9480 N.am    1  UNL1       -0.2657
     11 C           0.5067    2.0286   21.8943 C.2     1  UNL1        0.2536
     12 O           1.9242    2.4980   22.0384 O.2     1  UNL1       -0.2697
     13 H          -0.7512    0.6037   20.8535 H       1  UNL1        0.1566
     14 C           4.5380   -1.6776   17.7397 C.3     1  UNL1        0.0327
     15 C           3.4484   -1.0303   18.5418 C.ar    1  UNL1       -0.0026
     16 C           3.0935   -1.5681   19.8963 C.ar    1  UNL1        0.0001
     17 C           2.0037   -0.9207   20.6984 C.ar    1  UNL1        0.0342
     18 C           1.2688    0.2645   20.1459 C.ar    1  UNL1        0.1344
     19 N           1.6237    0.8023   18.7914 N.ar    1  UNL1       -0.2293
     20 C           2.7134    0.1550   17.9893 C.ar    1  UNL1        0.0960
     21 O          -1.3113    3.7558   26.4453 O.3     1  UNL1       -0.4503
     22 C          -0.5702    2.7428   27.2667 C.ar    1  UNL1        0.1667
     23 C           0.8305    3.0264   27.7223 C.ar    1  UNL1        0.1364
     24 N           1.5716    2.0134   28.5437 N.ar    1  UNL1       -0.2368
     25 C           0.9119    0.7168   28.9095 C.ar    1  UNL1        0.1286
     26 C          -0.4888    0.4333   28.4538 C.ar    1  UNL1        0.1623
     27 F          -1.1485   -0.8633   28.8195 F       1  UNL1       -0.2024
     28 C          -1.2298    1.4463   27.6324 C.ar    1  UNL1        0.0703
@<TRIPOS>BOND
     1    14    15    1
     2    15    16   ar
     3    16    17   ar
     4    17    18   ar
     5    18    10    1
     6    10    11   am
     7    11    12    2
     8    11     1    1
     9     1     2   ar
    10     2     3   ar
    11     3    21    1
    12    21    22    1
    13    22    23   ar
    14    23    24   ar
    15    24    25   ar
    16    25    26   ar
    17    26    27    1
    18    26    28   ar
    19     3     4   ar
    20     4     5   ar
    21     5     6   ar
    22     6     7   ar
    23     7     8   ar
    24     8     9   ar
    25    18    19   ar
    26    19    20   ar
    27    20    15   ar
    28     9     1   ar
    29    28    22   ar
    30     9     5   ar
    31    10    13    1
@<TRIPOS>MOLECULE
*****
 28 31 0 0 0
SMALL
GASTEIGER

@<TRIPOS>ATOM
      1 C           6.9067   -4.3113   23.8277 C.ar    1  UNL1        0.0912
      2 C           6.4120   -3.8052   25.1502 C.ar    1  UNL1        0.0466
      3 C           6.7617   -4.5373   26.4118 C.ar    1  UNL1        0.1631
      4 C           7.6063   -5.7755   26.3509 C.ar    1  UNL1        0.1193
      5 N           8.1010   -6.2815   25.0284 N.ar    1  UNL1       -0.2846
      6 C           8.9445   -7.4655   24.6587 C.ar    1  UNL1        0.1023
      7 C           9.1160   -7.4651   23.1685 C.ar    1  UNL1        0.1195
      8 N           8.3786   -6.2809   22.6173 N.ar    1  UNL1       -0.2247
      9 C           7.7512   -5.5494   23.7668 C.ar    1  UNL1        0.1524
     10 N           5.2221   -3.7976   21.9177 N.am    1  UNL1       -0.2657
     11 C           6.5569   -3.5791   22.5661 C.2     1  UNL1        0.2536
     12 O           7.5421   -2.6285   21.9529 O.2     1  UNL1       -0.2697
     13 H           4.5755   -4.4215   22.3201 H       1  UNL1        0.1566
     14 C           3.8234   -0.8692   16.8712 C.3     1  UNL1        0.0327
     15 C           4.1731   -1.6012   18.1327 C.ar    1  UNL1       -0.0026
     16 C           5.0968   -2.7820   18.0832 C.ar    1  UNL1        0.0001
     17 C           5.4464   -3.5141   19.3449 C.ar    1  UNL1        0.0342
     18 C           4.8724   -3.0654   20.6561 C.ar    1  UNL1        0.1344
     19 N           3.9487   -1.8846   20.7055 N.ar    1  UNL1       -0.2293
     20 C           3.5991   -1.1525   19.4440 C.ar    1  UNL1        0.0960
     21 O           6.2670   -4.0312   27.7344 O.3     1  UNL1       -0.4503
     22 C           7.1062   -4.2050   28.9655 C.ar    1  UNL1        0.1667
     23 C           8.2739   -3.2962   29.2116 C.ar    1  UNL1        0.1364
     24 N           9.1131   -3.4700   30.4427 N.ar    1  UNL1       -0.2368
     25 C           8.7846   -4.5526   31.4276 C.ar    1  UNL1        0.1286
     26 C           7.6169   -5.4613   31.1815 C.ar    1  UNL1        0.1623
     27 F           7.2883   -6.5439   32.1665 F       1  UNL1       -0.2024
     28 C           6.7777   -5.2875   29.9505 C.ar    1  UNL1        0.0703
@<TRIPOS>BOND
     1    14    15    1
     2    15    16   ar
     3    16    17   ar
     4    17    18   ar
     5    18    10    1
     6    10    11   am
     7    11    12    2
     8    11     1    1
     9     1     2   ar
    10     2     3   ar
    11     3    21    1
    12    21    22    1
    13    22    23   ar
    14    23    24   ar
    15    24    25   ar
    16    25    26   ar
    17    26    27    1
    18    26    28   ar
    19     3     4   ar
    20     4     5   ar
    21     5     6   ar
    22     6     7   ar
    23     7     8   ar
    24     8     9   ar
    25    18    19   ar
    26    19    20   ar
    27    20    15   ar
    28     9     1   ar
    29    28    22   ar
    30     9     5   ar
    31    10    13    1
