@<TRIPOS>MOLECULE
*****
 35 38 0 0 0
SMALL
GASTEIGER

@<TRIPOS>ATOM
      1 C           6.2917   -2.3048   31.8463 C.ar    1  UNL1        0.0528
      2 C           6.2604   -1.9212   30.3966 C.ar    1  UNL1        0.0150
      3 C           6.5190   -2.9554   29.3413 C.ar    1  UNL1        0.0082
      4 C           6.8088   -4.3732   29.7359 C.ar    1  UNL1        0.0827
      5 C           6.8401   -4.7569   31.1856 C.ar    1  UNL1        0.1459
      6 F           7.1300   -6.1747   31.5801 F       1  UNL1       -0.2040
      7 C           6.5816   -3.7227   32.2408 C.ar    1  UNL1        0.0445
      8 C           7.0674   -5.4074   28.6806 C.ar    1  UNL1        0.2534
      9 N           6.2782   -5.5962   27.4189 N.ar    1  UNL1       -0.1057
     10 N           6.8836   -6.7398   26.6602 N.ar    1  UNL1       -0.0923
     11 C           8.0469   -7.2579   27.4530 C.ar    1  UNL1        0.3086
     12 O           8.1604   -6.4345   28.7016 O.2     1  UNL1       -0.4048
     13 N           8.9398   -8.3991   27.0652 N.pl3   1  UNL1       -0.2871
     14 H           9.5953   -8.2866   26.3393 H       1  UNL1        0.1512
     15 C           8.8340   -9.7118   27.7833 C.3     1  UNL1        0.0912
     16 C           7.5393  -10.4694   27.7744 C.3     1  UNL1        0.0227
     17 C           7.4870  -11.8712   28.3054 C.3     1  UNL1        0.0191
     18 C           6.6223  -12.8960   27.6332 C.3     1  UNL1        0.0723
     19 N           5.1430  -12.9086   27.8817 N.3     1  UNL1       -0.2685
     20 C           4.2242  -13.5802   26.9047 C.3     1  UNL1        0.1046
     21 C           2.7449  -13.5929   27.1531 C.3     1  UNL1        0.1595
     22 O           2.1845  -12.9340   28.3786 O.3     1  UNL1       -0.3508
     23 C           3.1035  -12.2625   29.3556 C.3     1  UNL1        0.1595
     24 C           4.5827  -12.2498   29.1072 C.3     1  UNL1        0.1046
     25 O           3.6736   -2.2781   33.3109 O.2     1  UNL1       -0.2697
     26 C           4.7241   -1.2572   33.6339 C.2     1  UNL1        0.2517
     27 N           6.0332   -1.2706   32.9016 N.am    1  UNL1       -0.2803
     28 H           6.7226   -0.6006   33.1136 H       1  UNL1        0.1552
     29 C           4.4656   -0.2230   34.6892 C.ar    1  UNL1        0.0811
     30 C           5.0583   -0.3834   36.0577 C.ar    1  UNL1        0.0068
     31 C           4.7998    0.6508   37.1129 C.ar    1  UNL1        0.0003
     32 C           3.9484    1.8454   36.7996 C.ar    1  UNL1        0.0023
     33 C           3.3557    2.0058   35.4311 C.ar    1  UNL1        0.0298
     34 C           3.6143    0.9716   34.3759 C.ar    1  UNL1        0.1445
     35 F           3.0215    1.1320   33.0073 F       1  UNL1       -0.2040
@<TRIPOS>BOND
     1    25    26    2
     2    26    27   am
     3    27     1    1
     4     1     2   ar
     5     2     3   ar
     6     3     4   ar
     7     4     8    1
     8     8     9   ar
     9     9    10   ar
    10    10    11   ar
    11    11    13    1
    12    13    15    1
    13    15    16    1
    14    16    17    1
    15    17    18    1
    16    18    19    1
    17    19    20    1
    18    20    21    1
    19    21    22    1
    20    22    23    1
    21    23    24    1
    22    11    12   ar
    23     4     5   ar
    24     5     6    1
    25     5     7   ar
    26    26    29    1
    27    29    30   ar
    28    30    31   ar
    29    31    32   ar
    30    32    33   ar
    31    33    34   ar
    32    34    35    1
    33     7     1   ar
    34    34    29   ar
    35    12     8   ar
    36    24    19    1
    37    27    28    1
    38    13    14    1
@<TRIPOS>MOLECULE
*****
 35 38 0 0 0
SMALL
GASTEIGER

@<TRIPOS>ATOM
      1 C           7.0496   -3.9712   22.8051 C.ar    1  UNL1        0.0528
      2 C           6.4722   -3.8204   24.1812 C.ar    1  UNL1        0.0150
      3 C           6.8538   -4.7853   25.2645 C.ar    1  UNL1        0.0082
      4 C           7.8127   -5.9009   24.9716 C.ar    1  UNL1        0.0827
      5 C           8.3901   -6.0517   23.5954 C.ar    1  UNL1        0.1459
      6 F           9.3491   -7.1673   23.3025 F       1  UNL1       -0.2040
      7 C           8.0085   -5.0869   22.5121 C.ar    1  UNL1        0.0445
      8 C           8.1943   -6.8657   26.0549 C.ar    1  UNL1        0.2534
      9 N           9.0160   -6.5483   27.2690 N.ar    1  UNL1       -0.1057
     10 N           9.1507   -7.8037   28.0788 N.ar    1  UNL1       -0.0923
     11 C           8.4123   -8.8970   27.3651 C.ar    1  UNL1        0.3086
     12 O           7.8212   -8.3173   26.1143 O.2     1  UNL1       -0.4048
     13 N           8.2870  -10.3203   27.8221 N.pl3   1  UNL1       -0.2871
     14 H           9.0949  -10.8454   28.0240 H       1  UNL1        0.1512
     15 C           6.9307  -10.9434   27.9713 C.3     1  UNL1        0.0912
     16 C           6.8071  -12.3850   28.3669 C.3     1  UNL1        0.0227
     17 C           6.0551  -13.3416   27.4897 C.3     1  UNL1        0.0191
     18 C           4.6765  -12.9949   27.0111 C.3     1  UNL1        0.0723
     19 N           3.4836  -13.3214   27.8599 N.3     1  UNL1       -0.2685
     20 C           3.1268  -12.4424   29.0218 C.3     1  UNL1        0.1046
     21 C           1.9339  -12.7688   29.8707 C.3     1  UNL1        0.1595
     22 O           1.0977  -13.9741   29.5575 O.3     1  UNL1       -0.3508
     23 C           1.4546  -14.8530   28.3955 C.3     1  UNL1        0.1595
     24 C           2.6475  -14.5266   27.5467 C.3     1  UNL1        0.1046
     25 O           4.5935   -4.4639   21.1542 O.2     1  UNL1       -0.2697
     26 C           5.4400   -3.2528   20.8963 C.2     1  UNL1        0.2517
     27 N           6.6680   -3.0064   21.7217 N.am    1  UNL1       -0.2803
     28 H           7.2236   -2.2115   21.5524 H       1  UNL1        0.1552
     29 C           5.0584   -2.2879   19.8130 C.ar    1  UNL1        0.0811
     30 C           5.9943   -2.0376   18.6678 C.ar    1  UNL1        0.0068
     31 C           5.6127   -1.0728   17.5846 C.ar    1  UNL1        0.0003
     32 C           4.2952   -0.3583   17.6465 C.ar    1  UNL1        0.0023
     33 C           3.3594   -0.6086   18.7917 C.ar    1  UNL1        0.0298
     34 C           3.7410   -1.5734   19.8749 C.ar    1  UNL1        0.1445
     35 F           2.8051   -1.8237   21.0202 F       1  UNL1       -0.2040
@<TRIPOS>BOND
     1    25    26    2
     2    26    27   am
     3    27     1    1
     4     1     2   ar
     5     2     3   ar
     6     3     4   ar
     7     4     8    1
     8     8     9   ar
     9     9    10   ar
    10    10    11   ar
    11    11    13    1
    12    13    15    1
    13    15    16    1
    14    16    17    1
    15    17    18    1
    16    18    19    1
    17    19    20    1
    18    20    21    1
    19    21    22    1
    20    22    23    1
    21    23    24    1
    22    11    12   ar
    23     4     5   ar
    24     5     6    1
    25     5     7   ar
    26    26    29    1
    27    29    30   ar
    28    30    31   ar
    29    31    32   ar
    30    32    33   ar
    31    33    34   ar
    32    34    35    1
    33     7     1   ar
    34    34    29   ar
    35    12     8   ar
    36    24    19    1
    37    27    28    1
    38    13    14    1
@<TRIPOS>MOLECULE
*****
 35 38 0 0 0
SMALL
GASTEIGER

@<TRIPOS>ATOM
      1 C           6.9120   -3.5511   24.2122 C.ar    1  UNL1        0.0528
      2 C           7.0151   -2.5136   25.2906 C.ar    1  UNL1        0.0150
      3 C           7.0963   -2.9321   26.7287 C.ar    1  UNL1        0.0082
      4 C           7.0745   -4.3882   27.0884 C.ar    1  UNL1        0.0827
      5 C           6.9714   -5.4257   26.0100 C.ar    1  UNL1        0.1459
      6 F           6.9496   -6.8818   26.3698 F       1  UNL1       -0.2040
      7 C           6.8902   -5.0071   24.5720 C.ar    1  UNL1        0.0445
      8 C           7.1557   -4.8067   28.5266 C.ar    1  UNL1        0.2534
      9 N           7.8872   -6.0043   29.0563 N.ar    1  UNL1       -0.1057
     10 N           7.7034   -6.0390   30.5446 N.ar    1  UNL1       -0.0923
     11 C           6.8582   -4.8627   30.9347 C.ar    1  UNL1        0.3086
     12 O           6.5197   -4.1011   29.6875 O.2     1  UNL1       -0.4048
     13 N           6.4271   -4.5099   32.3274 N.pl3   1  UNL1       -0.2871
     14 H           6.3926   -5.2056   33.0231 H       1  UNL1        0.1512
     15 C           6.0487   -3.0971   32.6602 C.3     1  UNL1        0.0912
     16 C           4.6522   -2.7801   33.1069 C.3     1  UNL1        0.0227
     17 C           4.2328   -1.3532   33.3015 C.3     1  UNL1        0.0191
     18 C           4.5198   -0.3353   32.2378 C.3     1  UNL1        0.0723
     19 N           3.9669   -0.5186   30.8555 N.3     1  UNL1       -0.2685
     20 C           2.5090   -0.2824   30.5936 C.3     1  UNL1        0.1046
     21 C           1.9560   -0.4657   29.2113 C.3     1  UNL1        0.1595
     22 O           2.8610   -0.8851   28.0909 O.3     1  UNL1       -0.3508
     23 C           4.3189   -1.1213   28.3530 C.3     1  UNL1        0.1595
     24 C           4.8718   -0.9381   29.7353 C.3     1  UNL1        0.1046
     25 O           4.2768   -3.6093   22.7796 O.2     1  UNL1       -0.2697
     26 C           5.5132   -3.1616   22.0577 C.2     1  UNL1        0.2517
     27 N           6.8307   -3.1325   22.7740 N.am    1  UNL1       -0.2803
     28 H           7.6422   -2.8388   22.3003 H       1  UNL1        0.1552
     29 C           5.4319   -2.7431   20.6196 C.ar    1  UNL1        0.0811
     30 C           4.1571   -2.1687   20.0765 C.ar    1  UNL1        0.0068
     31 C           4.0759   -1.7502   18.6383 C.ar    1  UNL1        0.0003
     32 C           5.2695   -1.9061   17.7433 C.ar    1  UNL1        0.0023
     33 C           6.5443   -2.4805   18.2864 C.ar    1  UNL1        0.0298
     34 C           6.6255   -2.8990   19.7245 C.ar    1  UNL1        0.1445
     35 F           7.9003   -3.4734   20.2677 F       1  UNL1       -0.2040
@<TRIPOS>BOND
     1    25    26    2
     2    26    27   am
     3    27     1    1
     4     1     2   ar
     5     2     3   ar
     6     3     4   ar
     7     4     8    1
     8     8     9   ar
     9     9    10   ar
    10    10    11   ar
    11    11    13    1
    12    13    15    1
    13    15    16    1
    14    16    17    1
    15    17    18    1
    16    18    19    1
    17    19    20    1
    18    20    21    1
    19    21    22    1
    20    22    23    1
    21    23    24    1
    22    11    12   ar
    23     4     5   ar
    24     5     6    1
    25     5     7   ar
    26    26    29    1
    27    29    30   ar
    28    30    31   ar
    29    31    32   ar
    30    32    33   ar
    31    33    34   ar
    32    34    35    1
    33     7     1   ar
    34    34    29   ar
    35    12     8   ar
    36    24    19    1
    37    27    28    1
    38    13    14    1
@<TRIPOS>MOLECULE
*****
 35 38 0 0 0
SMALL
GASTEIGER

@<TRIPOS>ATOM
      1 C           6.3595   -2.4926   31.7378 C.ar    1  UNL1        0.0528
      2 C           6.5319   -2.2331   30.2705 C.ar    1  UNL1        0.0150
      3 C           6.9319   -3.3505   29.3532 C.ar    1  UNL1        0.0082
      4 C           7.1595   -4.7273   29.9032 C.ar    1  UNL1        0.0827
      5 C           6.9871   -4.9868   31.3705 C.ar    1  UNL1        0.1459
      6 F           7.2147   -6.3637   31.9205 F       1  UNL1       -0.2040
      7 C           6.5871   -3.8695   32.2878 C.ar    1  UNL1        0.0445
      8 C           7.5596   -5.8447   28.9859 C.ar    1  UNL1        0.2534
      9 N           8.5766   -6.9070   29.2816 N.ar    1  UNL1       -0.1057
     10 N           8.6585   -7.8148   28.0903 N.ar    1  UNL1       -0.0923
     11 C           7.6921   -7.3135   27.0583 C.ar    1  UNL1        0.3086
     12 O           7.0130   -6.0960   27.6118 O.2     1  UNL1       -0.4048
     13 N           7.4477   -7.9229   25.7096 N.pl3   1  UNL1       -0.2871
     14 H           6.5937   -8.3749   25.5211 H       1  UNL1        0.1512
     15 C           8.5045   -7.8436   24.6481 C.3     1  UNL1        0.0912
     16 C           8.4336   -6.7753   23.5975 C.3     1  UNL1        0.0227
     17 C           8.3272   -5.3341   23.9993 C.3     1  UNL1        0.0191
     18 C           6.9955   -4.6445   23.9727 C.3     1  UNL1        0.0723
     19 N           6.4428   -4.1301   22.6766 N.3     1  UNL1       -0.2685
     20 C           7.3417   -3.9793   21.4853 C.3     1  UNL1        0.1046
     21 C           6.7892   -3.4649   20.1890 C.3     1  UNL1        0.1595
     22 O           5.3377   -3.1014   20.0841 O.3     1  UNL1       -0.3508
     23 C           4.4388   -3.2522   21.2755 C.3     1  UNL1        0.1595
     24 C           4.9914   -3.7665   22.5717 C.3     1  UNL1        0.1046
     25 O           3.9021   -2.7550   33.4386 O.2     1  UNL1       -0.2697
     26 C           4.7308   -1.5064   33.5055 C.2     1  UNL1        0.2517
     27 N           5.9594   -1.3752   32.6551 N.am    1  UNL1       -0.2803
     28 H           6.5032   -0.5558   32.6991 H       1  UNL1        0.1552
     29 C           4.3307   -0.3890   34.4229 C.ar    1  UNL1        0.0811
     30 C           4.7019   -0.4417   35.8752 C.ar    1  UNL1        0.0068
     31 C           4.3018    0.6757   36.7925 C.ar    1  UNL1        0.0003
     32 C           3.5306    1.8456   36.2574 C.ar    1  UNL1        0.0023
     33 C           3.1594    1.8983   34.8051 C.ar    1  UNL1        0.0298
     34 C           3.5594    0.7809   33.8878 C.ar    1  UNL1        0.1445
     35 F           3.1883    0.8335   32.4353 F       1  UNL1       -0.2040
@<TRIPOS>BOND
     1    25    26    2
     2    26    27   am
     3    27     1    1
     4     1     2   ar
     5     2     3   ar
     6     3     4   ar
     7     4     8    1
     8     8     9   ar
     9     9    10   ar
    10    10    11   ar
    11    11    13    1
    12    13    15    1
    13    15    16    1
    14    16    17    1
    15    17    18    1
    16    18    19    1
    17    19    20    1
    18    20    21    1
    19    21    22    1
    20    22    23    1
    21    23    24    1
    22    11    12   ar
    23     4     5   ar
    24     5     6    1
    25     5     7   ar
    26    26    29    1
    27    29    30   ar
    28    30    31   ar
    29    31    32   ar
    30    32    33   ar
    31    33    34   ar
    32    34    35    1
    33     7     1   ar
    34    34    29   ar
    35    12     8   ar
    36    24    19    1
    37    27    28    1
    38    13    14    1
@<TRIPOS>MOLECULE
*****
 35 38 0 0 0
SMALL
GASTEIGER

@<TRIPOS>ATOM
      1 C           6.6815   -3.4359   24.0834 C.ar    1  UNL1        0.0528
      2 C           7.1587   -4.8408   24.3039 C.ar    1  UNL1        0.0150
      3 C           7.3174   -5.3686   25.6990 C.ar    1  UNL1        0.0082
      4 C           6.9989   -4.4916   26.8734 C.ar    1  UNL1        0.0827
      5 C           6.5218   -3.0867   26.6529 C.ar    1  UNL1        0.1459
      6 F           6.2033   -2.2097   27.8274 F       1  UNL1       -0.2040
      7 C           6.3631   -2.5589   25.2578 C.ar    1  UNL1        0.0445
      8 C           7.1576   -5.0195   28.2685 C.ar    1  UNL1        0.2534
      9 N           7.9775   -6.2085   28.6733 N.ar    1  UNL1       -0.1057
     10 N           7.8510   -6.3750   30.1587 N.ar    1  UNL1       -0.0923
     11 C           6.9527   -5.2887   30.6719 C.ar    1  UNL1        0.3086
     12 O           6.5242   -4.4510   29.5037 O.2     1  UNL1       -0.4048
     13 N           6.5532   -5.0773   32.1022 N.pl3   1  UNL1       -0.2871
     14 H           6.5801   -5.8293   32.7371 H       1  UNL1        0.1512
     15 C           6.1126   -3.7203   32.5651 C.3     1  UNL1        0.0912
     16 C           7.0483   -2.5524   32.4621 C.3     1  UNL1        0.0227
     17 C           6.6876   -1.3757   31.6046 C.3     1  UNL1        0.0191
     18 C           5.9380   -0.2187   32.1956 C.3     1  UNL1        0.0723
     19 N           4.5134    0.0332   31.7994 N.3     1  UNL1       -0.2685
     20 C           3.8884   -0.7697   30.6972 C.3     1  UNL1        0.1046
     21 C           2.4637   -0.5178   30.3009 C.3     1  UNL1        0.1595
     22 O           1.6641    0.5369   31.0067 O.3     1  UNL1       -0.3508
     23 C           2.2893    1.3398   32.1089 C.3     1  UNL1        0.1595
     24 C           3.7138    1.0879   32.5052 C.3     1  UNL1        0.1046
     25 O           4.1993   -4.0577   22.5175 O.2     1  UNL1       -0.2697
     26 C           5.2817   -3.2189   21.9054 C.2     1  UNL1        0.2517
     27 N           6.5229   -2.9080   22.6883 N.am    1  UNL1       -0.2803
     28 H           7.2333   -2.3575   22.2865 H       1  UNL1        0.1552
     29 C           5.1230   -2.6910   20.5103 C.ar    1  UNL1        0.0811
     30 C           6.1749   -2.9710   19.4783 C.ar    1  UNL1        0.0068
     31 C           6.0162   -2.4432   18.0833 C.ar    1  UNL1        0.0003
     32 C           4.8056   -1.6353   17.7203 C.ar    1  UNL1        0.0023
     33 C           3.7537   -1.3553   18.7523 C.ar    1  UNL1        0.0298
     34 C           3.9124   -1.8832   20.1473 C.ar    1  UNL1        0.1445
     35 F           2.8605   -1.6032   21.1794 F       1  UNL1       -0.2040
@<TRIPOS>BOND
     1    25    26    2
     2    26    27   am
     3    27     1    1
     4     1     2   ar
     5     2     3   ar
     6     3     4   ar
     7     4     8    1
     8     8     9   ar
     9     9    10   ar
    10    10    11   ar
    11    11    13    1
    12    13    15    1
    13    15    16    1
    14    16    17    1
    15    17    18    1
    16    18    19    1
    17    19    20    1
    18    20    21    1
    19    21    22    1
    20    22    23    1
    21    23    24    1
    22    11    12   ar
    23     4     5   ar
    24     5     6    1
    25     5     7   ar
    26    26    29    1
    27    29    30   ar
    28    30    31   ar
    29    31    32   ar
    30    32    33   ar
    31    33    34   ar
    32    34    35    1
    33     7     1   ar
    34    34    29   ar
    35    12     8   ar
    36    24    19    1
    37    27    28    1
    38    13    14    1
@<TRIPOS>MOLECULE
*****
 35 38 0 0 0
SMALL
GASTEIGER

@<TRIPOS>ATOM
      1 C          -9.2780  -19.4598   21.7588 C.ar    1  UNL1        0.0528
      2 C          -9.0605  -19.2032   20.2970 C.ar    1  UNL1        0.0150
      3 C          -7.6690  -19.1871   19.7373 C.ar    1  UNL1        0.0082
      4 C          -6.4949  -19.4277   20.6393 C.ar    1  UNL1        0.0827
      5 C          -6.7124  -19.6844   22.1011 C.ar    1  UNL1        0.1459
      6 F          -5.5383  -19.9250   23.0031 F       1  UNL1       -0.2040
      7 C          -8.1039  -19.7004   22.6608 C.ar    1  UNL1        0.0445
      8 C          -5.1034  -19.4117   20.0795 C.ar    1  UNL1        0.2534
      9 N          -4.3683  -20.5890   19.5106 N.ar    1  UNL1       -0.1057
     10 N          -3.0132  -20.1206   19.0698 N.ar    1  UNL1       -0.0923
     11 C          -2.9108  -18.6537   19.3662 C.ar    1  UNL1        0.3086
     12 O          -4.2026  -18.2156   19.9902 O.2     1  UNL1       -0.4048
     13 N          -1.7249  -17.7785   19.0876 N.pl3   1  UNL1       -0.2871
     14 H          -1.2724  -17.8260   18.2145 H       1  UNL1        0.1512
     15 C          -1.2283  -16.8311   20.1391 C.3     1  UNL1        0.0912
     16 C          -1.4805  -17.1208   21.5891 C.3     1  UNL1        0.0227
     17 C          -2.6132  -16.4448   22.3031 C.3     1  UNL1        0.0191
     18 C          -3.5914  -17.2586   23.0973 C.3     1  UNL1        0.0723
     19 N          -4.7035  -16.5793   23.8402 N.3     1  UNL1       -0.2685
     20 C          -4.4924  -16.1239   25.2537 C.3     1  UNL1        0.1046
     21 C          -5.6045  -15.4446   25.9968 C.3     1  UNL1        0.1595
     22 O          -6.9275  -15.2208   25.3263 O.3     1  UNL1       -0.3508
     23 C          -7.1384  -15.6763   23.9128 C.3     1  UNL1        0.1595
     24 C          -6.0264  -16.3555   23.1698 C.3     1  UNL1        0.1046
     25 O         -10.1806  -17.2677   23.5973 O.2     1  UNL1       -0.2697
     26 C         -11.1209  -18.3798   23.2378 C.2     1  UNL1        0.2517
     27 N         -10.6696  -19.4758   22.3186 N.am    1  UNL1       -0.2803
     28 H         -11.2867  -20.2057   22.0827 H       1  UNL1        0.1552
     29 C         -12.5124  -18.3958   23.7977 C.ar    1  UNL1        0.0811
     30 C         -12.7284  -18.6278   25.2638 C.ar    1  UNL1        0.0068
     31 C         -14.1199  -18.6438   25.8235 C.ar    1  UNL1        0.0003
     32 C         -15.2955  -18.4279   24.9172 C.ar    1  UNL1        0.0023
     33 C         -15.0795  -18.1959   23.4511 C.ar    1  UNL1        0.0298
     34 C         -13.6880  -18.1799   22.8913 C.ar    1  UNL1        0.1445
     35 F         -13.4719  -17.9479   21.4251 F       1  UNL1       -0.2040
@<TRIPOS>BOND
     1    25    26    2
     2    26    27   am
     3    27     1    1
     4     1     2   ar
     5     2     3   ar
     6     3     4   ar
     7     4     8    1
     8     8     9   ar
     9     9    10   ar
    10    10    11   ar
    11    11    13    1
    12    13    15    1
    13    15    16    1
    14    16    17    1
    15    17    18    1
    16    18    19    1
    17    19    20    1
    18    20    21    1
    19    21    22    1
    20    22    23    1
    21    23    24    1
    22    11    12   ar
    23     4     5   ar
    24     5     6    1
    25     5     7   ar
    26    26    29    1
    27    29    30   ar
    28    30    31   ar
    29    31    32   ar
    30    32    33   ar
    31    33    34   ar
    32    34    35    1
    33     7     1   ar
    34    34    29   ar
    35    12     8   ar
    36    24    19    1
    37    27    28    1
    38    13    14    1
@<TRIPOS>MOLECULE
*****
 35 38 0 0 0
SMALL
GASTEIGER

@<TRIPOS>ATOM
      1 C          -0.6591    2.4662   26.8425 C.ar    1  UNL1        0.0528
      2 C           0.0605    3.5687   27.5611 C.ar    1  UNL1        0.0150
      3 C           0.7400    3.2927   28.8695 C.ar    1  UNL1        0.0082
      4 C           0.6998    1.9142   29.4594 C.ar    1  UNL1        0.0827
      5 C          -0.0198    0.8116   28.7408 C.ar    1  UNL1        0.1459
      6 F          -0.0600   -0.5670   29.3306 F       1  UNL1       -0.2040
      7 C          -0.6993    1.0876   27.4323 C.ar    1  UNL1        0.0445
      8 C           1.3793    1.6382   30.7679 C.ar    1  UNL1        0.2534
      9 N           1.1683    2.3923   32.0473 N.ar    1  UNL1       -0.1057
     10 N           2.0477    1.7799   33.0968 N.ar    1  UNL1       -0.0923
     11 C           2.8022    0.6472   32.4661 C.ar    1  UNL1        0.3086
     12 O           2.3891    0.5597   31.0268 O.2     1  UNL1       -0.4048
     13 N           3.7954   -0.2418   33.1540 N.pl3   1  UNL1       -0.2871
     14 H           3.9097   -1.1738   32.8580 H       1  UNL1        0.1512
     15 C           4.6145    0.2891   34.2929 C.3     1  UNL1        0.0912
     16 C           4.7294   -0.4976   35.5649 C.3     1  UNL1        0.0227
     17 C           5.6291   -0.0177   36.6649 C.3     1  UNL1        0.0191
     18 C           5.4251    1.3437   37.2605 C.3     1  UNL1        0.0723
     19 N           4.0370    1.8442   37.5302 N.3     1  UNL1       -0.2685
     20 C           3.1738    1.1517   38.5428 C.3     1  UNL1        0.1046
     21 C           1.7856    1.6520   38.8126 C.3     1  UNL1        0.1595
     22 O           1.2607    2.8448   38.0698 O.3     1  UNL1       -0.3508
     23 C           2.1240    3.5372   37.0572 C.3     1  UNL1        0.1595
     24 C           3.5121    3.0369   36.7874 C.3     1  UNL1        0.1046
     25 O          -3.3047    3.8799   26.7948 O.2     1  UNL1       -0.2697
     26 C          -2.6614    3.4490   25.5101 C.2     1  UNL1        0.2517
     27 N          -1.3386    2.7422   25.5339 N.am    1  UNL1       -0.2803
     28 H          -0.9164    2.4593   24.6907 H       1  UNL1        0.1552
     29 C          -3.3409    3.7250   24.2016 C.ar    1  UNL1        0.0811
     30 C          -4.6512    3.0678   23.8837 C.ar    1  UNL1        0.0068
     31 C          -5.3307    3.3438   22.5752 C.ar    1  UNL1        0.0003
     32 C          -4.6998    4.2770   21.5847 C.ar    1  UNL1        0.0023
     33 C          -3.3894    4.9341   21.9026 C.ar    1  UNL1        0.0298
     34 C          -2.7100    4.6582   23.2111 C.ar    1  UNL1        0.1445
     35 F          -1.3996    5.3153   23.5290 F       1  UNL1       -0.2040
@<TRIPOS>BOND
     1    25    26    2
     2    26    27   am
     3    27     1    1
     4     1     2   ar
     5     2     3   ar
     6     3     4   ar
     7     4     8    1
     8     8     9   ar
     9     9    10   ar
    10    10    11   ar
    11    11    13    1
    12    13    15    1
    13    15    16    1
    14    16    17    1
    15    17    18    1
    16    18    19    1
    17    19    20    1
    18    20    21    1
    19    21    22    1
    20    22    23    1
    21    23    24    1
    22    11    12   ar
    23     4     5   ar
    24     5     6    1
    25     5     7   ar
    26    26    29    1
    27    29    30   ar
    28    30    31   ar
    29    31    32   ar
    30    32    33   ar
    31    33    34   ar
    32    34    35    1
    33     7     1   ar
    34    34    29   ar
    35    12     8   ar
    36    24    19    1
    37    27    28    1
    38    13    14    1
@<TRIPOS>MOLECULE
*****
 35 38 0 0 0
SMALL
GASTEIGER

@<TRIPOS>ATOM
      1 C           0.3217    2.1567   22.9031 C.ar    1  UNL1        0.0528
      2 C          -0.5521    3.2276   22.3203 C.ar    1  UNL1        0.0150
      3 C          -1.6213    3.8622   23.1594 C.ar    1  UNL1        0.0082
      4 C          -1.8167    3.4259   24.5811 C.ar    1  UNL1        0.0827
      5 C          -0.9430    2.3550   25.1639 C.ar    1  UNL1        0.1459
      6 F          -1.1384    1.9187   26.5857 F       1  UNL1       -0.2040
      7 C           0.1263    1.7204   24.3249 C.ar    1  UNL1        0.0445
      8 C          -2.8860    4.0606   25.4202 C.ar    1  UNL1        0.2534
      9 N          -3.3836    3.5575   26.7428 N.ar    1  UNL1       -0.1057
     10 N          -4.4505    4.4957   27.2240 N.ar    1  UNL1       -0.0923
     11 C          -4.6123    5.5786   26.1987 C.ar    1  UNL1        0.3086
     12 O          -3.6454    5.3097   25.0839 O.2     1  UNL1       -0.4048
     13 N          -5.5724    6.7286   26.2748 N.pl3   1  UNL1       -0.2871
     14 H          -5.3414    7.5288   26.7997 H       1  UNL1        0.1512
     15 C          -6.8845    6.6593   25.5513 C.3     1  UNL1        0.0912
     16 C          -7.2948    5.3919   24.8618 C.3     1  UNL1        0.0227
     17 C          -7.0635    5.2308   23.3886 C.3     1  UNL1        0.0191
     18 C          -6.2563    4.0741   22.8782 C.3     1  UNL1        0.0723
     19 N          -5.1736    4.3037   21.8657 N.3     1  UNL1       -0.2685
     20 C          -4.6682    3.1608   21.0361 C.3     1  UNL1        0.1046
     21 C          -3.5854    3.3903   20.0236 C.3     1  UNL1        0.1595
     22 O          -3.0082    4.7626   19.8407 O.3     1  UNL1       -0.3508
     23 C          -3.5137    5.9055   20.6704 C.3     1  UNL1        0.1595
     24 C          -4.5964    5.6760   21.6829 C.3     1  UNL1        0.1046
     25 O          -0.4278    0.2821   20.6840 O.2     1  UNL1       -0.2697
     26 C           1.0162    0.5848   20.9545 C.2     1  UNL1        0.2517
     27 N           1.3910    1.5220   22.0640 N.am    1  UNL1       -0.2803
     28 H           2.3387    1.7207   22.2416 H       1  UNL1        0.1552
     29 C           2.0855   -0.0499   20.1155 C.ar    1  UNL1        0.0811
     30 C           2.2547    0.3578   18.6820 C.ar    1  UNL1        0.0068
     31 C           3.3240   -0.2769   17.8430 C.ar    1  UNL1        0.0003
     32 C           4.2239   -1.3192   18.4376 C.ar    1  UNL1        0.0023
     33 C           4.0547   -1.7269   19.8711 C.ar    1  UNL1        0.0298
     34 C           2.9855   -1.0922   20.7101 C.ar    1  UNL1        0.1445
     35 F           2.8162   -1.4999   22.1437 F       1  UNL1       -0.2040
@<TRIPOS>BOND
     1    25    26    2
     2    26    27   am
     3    27     1    1
     4     1     2   ar
     5     2     3   ar
     6     3     4   ar
     7     4     8    1
     8     8     9   ar
     9     9    10   ar
    10    10    11   ar
    11    11    13    1
    12    13    15    1
    13    15    16    1
    14    16    17    1
    15    17    18    1
    16    18    19    1
    17    19    20    1
    18    20    21    1
    19    21    22    1
    20    22    23    1
    21    23    24    1
    22    11    12   ar
    23     4     5   ar
    24     5     6    1
    25     5     7   ar
    26    26    29    1
    27    29    30   ar
    28    30    31   ar
    29    31    32   ar
    30    32    33   ar
    31    33    34   ar
    32    34    35    1
    33     7     1   ar
    34    34    29   ar
    35    12     8   ar
    36    24    19    1
    37    27    28    1
    38    13    14    1
@<TRIPOS>MOLECULE
*****
 35 38 0 0 0
SMALL
GASTEIGER

@<TRIPOS>ATOM
      1 C           5.2764   -1.1445   31.2221 C.ar    1  UNL1        0.0528
      2 C           5.7077   -1.2053   29.7868 C.ar    1  UNL1        0.0150
      3 C           6.4156   -2.4215   29.2673 C.ar    1  UNL1        0.0082
      4 C           6.6921   -3.5768   30.1831 C.ar    1  UNL1        0.0827
      5 C           6.2608   -3.5159   31.6185 C.ar    1  UNL1        0.1459
      6 F           6.5374   -4.6713   32.5343 F       1  UNL1       -0.2040
      7 C           5.5530   -2.2998   32.1380 C.ar    1  UNL1        0.0445
      8 C           7.4000   -4.7930   29.6636 C.ar    1  UNL1        0.2534
      9 N           8.7823   -5.2370   30.0407 N.ar    1  UNL1       -0.1057
     10 N           9.0865   -6.4970   29.2859 N.ar    1  UNL1       -0.0923
     11 C           7.8921   -6.8318   28.4423 C.ar    1  UNL1        0.3086
     12 O           6.8499   -5.7786   28.6757 O.2     1  UNL1       -0.4048
     13 N           7.7628   -8.0125   27.5262 N.pl3   1  UNL1       -0.2871
     14 H           7.9240   -8.9213   27.8687 H       1  UNL1        0.1512
     15 C           7.3881   -7.8084   26.0882 C.3     1  UNL1        0.0912
     16 C           8.2546   -6.9662   25.1995 C.3     1  UNL1        0.0227
     17 C           7.6790   -5.7637   24.5119 C.3     1  UNL1        0.0191
     18 C           7.2980   -4.5533   25.3116 C.3     1  UNL1        0.0723
     19 N           6.2717   -3.5965   24.7813 N.3     1  UNL1       -0.2685
     20 C           5.8576   -2.4106   25.6012 C.3     1  UNL1        0.1046
     21 C           4.8313   -1.4537   25.0710 C.3     1  UNL1        0.1595
     22 O           4.2191   -1.6827   23.7209 O.3     1  UNL1       -0.3508
     23 C           4.6333   -2.8686   22.9011 C.3     1  UNL1        0.1595
     24 C           5.6595   -3.8255   23.4313 C.3     1  UNL1        0.1046
     25 O           2.2915   -0.9382   31.0034 O.2     1  UNL1       -0.2697
     26 C           3.0761    0.1748   31.6323 C.2     1  UNL1        0.2517
     27 N           4.5686    0.0717   31.7417 N.am    1  UNL1       -0.2803
     28 H           5.0835    0.8022   32.1545 H       1  UNL1        0.1552
     29 C           2.3683    1.3910   32.1519 C.ar    1  UNL1        0.0811
     30 C           2.6765    1.9087   33.5255 C.ar    1  UNL1        0.0068
     31 C           1.9687    3.1248   34.0450 C.ar    1  UNL1        0.0003
     32 C           0.9526    3.8233   33.1908 C.ar    1  UNL1        0.0023
     33 C           0.6443    3.3056   31.8172 C.ar    1  UNL1        0.0298
     34 C           1.3521    2.0895   31.2977 C.ar    1  UNL1        0.1445
     35 F           1.0439    1.5718   29.9240 F       1  UNL1       -0.2040
@<TRIPOS>BOND
     1    25    26    2
     2    26    27   am
     3    27     1    1
     4     1     2   ar
     5     2     3   ar
     6     3     4   ar
     7     4     8    1
     8     8     9   ar
     9     9    10   ar
    10    10    11   ar
    11    11    13    1
    12    13    15    1
    13    15    16    1
    14    16    17    1
    15    17    18    1
    16    18    19    1
    17    19    20    1
    18    20    21    1
    19    21    22    1
    20    22    23    1
    21    23    24    1
    22    11    12   ar
    23     4     5   ar
    24     5     6    1
    25     5     7   ar
    26    26    29    1
    27    29    30   ar
    28    30    31   ar
    29    31    32   ar
    30    32    33   ar
    31    33    34   ar
    32    34    35    1
    33     7     1   ar
    34    34    29   ar
    35    12     8   ar
    36    24    19    1
    37    27    28    1
    38    13    14    1
