@<TRIPOS>MOLECULE
*****
 21 24 0 0 0
SMALL
GASTEIGER

@<TRIPOS>ATOM
      1 O          -7.2082  -17.8611   21.2403 O.2     1  UNL1       -0.2685
      2 C          -7.6378  -19.0281   22.0791 C.2     1  UNL1        0.2636
      3 N          -6.7553  -20.2357   22.1922 N.am    1  UNL1       -0.2999
      4 H          -6.9479  -21.0473   22.7152 H       1  UNL1        0.1498
      5 C          -8.9500  -18.9874   22.8049 C.ar    1  UNL1        0.1347
      6 C         -10.0919  -18.1913   22.2459 C.ar    1  UNL1        0.0269
      7 C         -11.4040  -18.1507   22.9717 C.ar    1  UNL1        0.0409
      8 C         -12.6989  -17.4578   22.6662 C.ar    1  UNL1        0.0438
      9 C         -13.6693  -17.7850   23.7622 C.ar    1  UNL1        0.1797
     10 O         -12.9743  -18.6800   24.7450 O.2     1  UNL1       -0.4488
     11 C         -11.5742  -18.9060   24.2564 C.ar    1  UNL1        0.1645
     12 C         -10.4323  -19.7019   24.8154 C.ar    1  UNL1        0.1363
     13 N          -9.1202  -19.7426   24.0896 N.ar    1  UNL1       -0.2361
     14 C          -4.5639  -19.7930   20.7200 C.3     1  UNL1        0.0879
     15 C          -3.6492  -19.1772   21.5096 C.3     1  UNL1        0.0919
     16 N          -3.0624  -18.8027   21.9494 N.3     1  UNL1       -0.2713
     17 C          -2.7335  -19.1077   20.5181 C.3     1  UNL1        0.0722
     18 C          -3.7453  -19.7888   19.6448 C.3     1  UNL1        0.0191
     19 C          -5.0858  -20.1647   20.2029 C.3     1  UNL1        0.0221
     20 C          -5.4147  -19.8597   21.6342 C.3     1  UNL1        0.0191
     21 C          -4.4030  -19.1787   22.5075 C.3     1  UNL1        0.0722
@<TRIPOS>BOND
     1     1     2    2
     2     2     3   am
     3    14     3    1
     4    14    15    1
     5    15    16    1
     6    16    17    1
     7    17    18    1
     8    18    19    1
     9    19    20    1
    10    20    21    1
    11     2     5    1
    12     5     6   ar
    13     6     7   ar
    14     7     8   ar
    15     8     9   ar
    16     9    10   ar
    17    10    11   ar
    18    11    12   ar
    19    12    13   ar
    20    19    14    1
    21    13     5   ar
    22    21    16    1
    23    11     7   ar
    24     3     4    1
@<TRIPOS>MOLECULE
*****
 21 24 0 0 0
SMALL
GASTEIGER

@<TRIPOS>ATOM
      1 O          -6.9546  -20.3740   22.0463 O.2     1  UNL1       -0.2685
      2 C          -7.4642  -19.2304   21.2202 C.2     1  UNL1        0.2636
      3 N          -6.5248  -18.4695   20.3322 N.am    1  UNL1       -0.2999
      4 H          -6.7618  -17.7080   19.7550 H       1  UNL1        0.1498
      5 C          -8.9133  -18.8476   21.2821 C.ar    1  UNL1        0.1347
      6 C          -9.6273  -18.8248   22.6012 C.ar    1  UNL1        0.0269
      7 C         -11.0763  -18.4420   22.6630 C.ar    1  UNL1        0.0409
      8 C         -12.0369  -18.3305   23.8097 C.ar    1  UNL1        0.0438
      9 C         -13.3655  -17.9017   23.2613 C.ar    1  UNL1        0.1797
     10 O         -13.2262  -17.7482   21.7757 O.2     1  UNL1       -0.4488
     11 C         -11.8113  -18.0821   21.4060 C.ar    1  UNL1        0.1645
     12 C         -11.0973  -18.1050   20.0870 C.ar    1  UNL1        0.1363
     13 N          -9.6483  -18.4878   20.0251 N.ar    1  UNL1       -0.2361
     14 C          -4.0895  -19.5494   20.5951 C.3     1  UNL1        0.0879
     15 C          -3.5720  -19.1273   21.7755 C.3     1  UNL1        0.0919
     16 N          -3.2164  -18.8980   22.4819 N.3     1  UNL1       -0.2713
     17 C          -2.4207  -19.8124   21.5984 C.3     1  UNL1        0.0722
     18 C          -2.9931  -20.2792   20.2928 C.3     1  UNL1        0.0191
     19 C          -4.3611  -19.8316   19.8708 C.3     1  UNL1        0.0221
     20 C          -5.1568  -18.9171   20.7543 C.3     1  UNL1        0.0191
     21 C          -4.5845  -18.4503   22.0599 C.3     1  UNL1        0.0722
@<TRIPOS>BOND
     1     1     2    2
     2     2     3   am
     3    14     3    1
     4    14    15    1
     5    15    16    1
     6    16    17    1
     7    17    18    1
     8    18    19    1
     9    19    20    1
    10    20    21    1
    11     2     5    1
    12     5     6   ar
    13     6     7   ar
    14     7     8   ar
    15     8     9   ar
    16     9    10   ar
    17    10    11   ar
    18    11    12   ar
    19    12    13   ar
    20    19    14    1
    21    13     5   ar
    22    21    16    1
    23    11     7   ar
    24     3     4    1
@<TRIPOS>MOLECULE
*****
 21 24 0 0 0
SMALL
GASTEIGER

@<TRIPOS>ATOM
      1 O          -8.7275  -17.2817   22.1838 O.2     1  UNL1       -0.2685
      2 C          -8.4397  -18.6891   21.7520 C.2     1  UNL1        0.2636
      3 N          -9.5657  -19.6639   21.5735 N.am    1  UNL1       -0.2999
      4 H          -9.4795  -20.6042   21.2947 H       1  UNL1        0.1498
      5 C          -7.0259  -19.1217   21.4987 C.ar    1  UNL1        0.1347
      6 C          -5.8951  -18.4478   22.2181 C.ar    1  UNL1        0.0269
      7 C          -4.4814  -18.8804   21.9648 C.ar    1  UNL1        0.0409
      8 C          -3.1717  -18.4061   22.5212 C.ar    1  UNL1        0.0438
      9 C          -2.0792  -19.2193   21.8926 C.ar    1  UNL1        0.1797
     10 O          -2.7138  -20.1963   20.9476 O.2     1  UNL1       -0.4488
     11 C          -4.1984  -19.9868   20.9922 C.ar    1  UNL1        0.1645
     12 C          -5.3292  -20.6606   20.2730 C.ar    1  UNL1        0.1363
     13 N          -6.7429  -20.2280   20.5263 N.ar    1  UNL1       -0.2361
     14 C         -11.8511  -18.3938   22.1474 C.3     1  UNL1        0.0879
     15 C         -12.0552  -18.4877   23.4850 C.3     1  UNL1        0.0919
     16 N         -12.2216  -18.5182   24.2908 N.3     1  UNL1       -0.2713
     17 C         -13.2111  -17.7897   23.4305 C.3     1  UNL1        0.0722
     18 C         -12.9854  -17.6858   21.9512 C.3     1  UNL1        0.0191
     19 C         -11.7703  -18.3106   21.3323 C.3     1  UNL1        0.0221
     20 C         -10.7808  -19.0392   22.1925 C.3     1  UNL1        0.0191
     21 C         -11.0064  -19.1430   23.6718 C.3     1  UNL1        0.0722
@<TRIPOS>BOND
     1     1     2    2
     2     2     3   am
     3    14     3    1
     4    14    15    1
     5    15    16    1
     6    16    17    1
     7    17    18    1
     8    18    19    1
     9    19    20    1
    10    20    21    1
    11     2     5    1
    12     5     6   ar
    13     6     7   ar
    14     7     8   ar
    15     8     9   ar
    16     9    10   ar
    17    10    11   ar
    18    11    12   ar
    19    12    13   ar
    20    19    14    1
    21    13     5   ar
    22    21    16    1
    23    11     7   ar
    24     3     4    1
@<TRIPOS>MOLECULE
*****
 21 24 0 0 0
SMALL
GASTEIGER

@<TRIPOS>ATOM
      1 O          -8.7338  -16.5563   23.0108 O.2     1  UNL1       -0.2685
      2 C          -8.1044  -17.8609   22.6208 C.2     1  UNL1        0.2636
      3 N          -8.9682  -19.0481   22.3134 N.am    1  UNL1       -0.2999
      4 H          -8.6517  -19.9423   22.0499 H       1  UNL1        0.1498
      5 C          -6.6112  -17.9782   22.5382 C.ar    1  UNL1        0.1347
      6 C          -5.9884  -19.0202   21.6571 C.ar    1  UNL1        0.0269
      7 C          -4.4953  -19.1375   21.5745 C.ar    1  UNL1        0.0409
      8 C          -3.6024  -20.0599   20.7986 C.ar    1  UNL1        0.0438
      9 C          -2.1803  -19.7052   21.1176 C.ar    1  UNL1        0.1797
     10 O          -2.1943  -18.5637   22.0907 O.2     1  UNL1       -0.4488
     11 C          -3.6250  -18.2129   22.3731 C.ar    1  UNL1        0.1645
     12 C          -4.2479  -17.1709   23.2542 C.ar    1  UNL1        0.1363
     13 N          -5.7410  -17.0536   23.3367 N.ar    1  UNL1       -0.2361
     14 C         -11.5227  -18.3043   22.6083 C.3     1  UNL1        0.0879
     15 C         -11.9727  -17.8735   21.4036 C.3     1  UNL1        0.0919
     16 N         -12.2906  -17.6028   20.6939 N.3     1  UNL1       -0.2713
     17 C         -13.2053  -17.5949   21.8827 C.3     1  UNL1        0.0722
     18 C         -12.7075  -18.0715   23.2151 C.3     1  UNL1        0.0191
     19 C         -11.2952  -18.5558   23.3586 C.3     1  UNL1        0.0221
     20 C         -10.3805  -18.5637   22.1698 C.3     1  UNL1        0.0191
     21 C         -10.8782  -18.0872   20.8374 C.3     1  UNL1        0.0722
@<TRIPOS>BOND
     1     1     2    2
     2     2     3   am
     3    14     3    1
     4    14    15    1
     5    15    16    1
     6    16    17    1
     7    17    18    1
     8    18    19    1
     9    19    20    1
    10    20    21    1
    11     2     5    1
    12     5     6   ar
    13     6     7   ar
    14     7     8   ar
    15     8     9   ar
    16     9    10   ar
    17    10    11   ar
    18    11    12   ar
    19    12    13   ar
    20    19    14    1
    21    13     5   ar
    22    21    16    1
    23    11     7   ar
    24     3     4    1
@<TRIPOS>MOLECULE
*****
 21 24 0 0 0
SMALL
GASTEIGER

@<TRIPOS>ATOM
      1 O         -13.7138   -6.9705   16.7698 O.2     1  UNL1       -0.2685
      2 C         -14.0629   -7.8828   17.9082 C.2     1  UNL1        0.2636
      3 N         -13.1169   -8.0383   19.0619 N.am    1  UNL1       -0.2999
      4 H         -13.2551   -8.6096   19.8517 H       1  UNL1        0.1498
      5 C         -15.3580   -8.6396   17.8929 C.ar    1  UNL1        0.1347
      6 C         -16.5785   -8.0250   17.2741 C.ar    1  UNL1        0.0269
      7 C         -17.8735   -8.7818   17.2588 C.ar    1  UNL1        0.0409
      8 C         -19.2316   -8.4362   16.7241 C.ar    1  UNL1        0.0438
      9 C         -20.1456   -9.5938   16.9972 C.ar    1  UNL1        0.1797
     10 O         -19.3523  -10.6549   17.7006 O.2     1  UNL1       -0.4488
     11 C         -17.9480  -10.1530   17.8623 C.ar    1  UNL1        0.1645
     12 C         -16.7276  -10.7674   18.4811 C.ar    1  UNL1        0.1363
     13 N         -15.4326  -10.0107   18.4964 N.ar    1  UNL1       -0.2361
     14 C         -10.9865   -6.4869   18.5927 C.3     1  UNL1        0.0879
     15 C         -11.2972   -5.2247   18.9797 C.3     1  UNL1        0.0919
     16 N         -11.4395   -4.4442   19.2002 N.3     1  UNL1       -0.2713
     17 C         -10.0853   -4.7412   18.6274 C.3     1  UNL1        0.0722
     18 C          -9.7418   -6.1372   18.1995 C.3     1  UNL1        0.0191
     19 C         -10.7523   -7.2362   18.3443 C.3     1  UNL1        0.0221
     20 C         -12.1065   -6.9392   18.9171 C.3     1  UNL1        0.0191
     21 C         -12.4501   -5.5432   19.3451 C.3     1  UNL1        0.0722
@<TRIPOS>BOND
     1     1     2    2
     2     2     3   am
     3    14     3    1
     4    14    15    1
     5    15    16    1
     6    16    17    1
     7    17    18    1
     8    18    19    1
     9    19    20    1
    10    20    21    1
    11     2     5    1
    12     5     6   ar
    13     6     7   ar
    14     7     8   ar
    15     8     9   ar
    16     9    10   ar
    17    10    11   ar
    18    11    12   ar
    19    12    13   ar
    20    19    14    1
    21    13     5   ar
    22    21    16    1
    23    11     7   ar
    24     3     4    1
@<TRIPOS>MOLECULE
*****
 21 24 0 0 0
SMALL
GASTEIGER

@<TRIPOS>ATOM
      1 O         -13.5045   -6.6789   17.0052 O.2     1  UNL1       -0.2685
      2 C         -13.6997   -7.4064   18.3023 C.2     1  UNL1        0.2636
      3 N         -12.6112   -7.4047   19.3344 N.am    1  UNL1       -0.2999
      4 H         -12.6436   -7.8503   20.2117 H       1  UNL1        0.1498
      5 C         -14.9835   -8.1356   18.5675 C.ar    1  UNL1        0.1347
      6 C         -16.1186   -7.4318   19.2504 C.ar    1  UNL1        0.0269
      7 C         -17.4023   -8.1610   19.5156 C.ar    1  UNL1        0.0409
      8 C         -18.6845   -7.7321   20.1652 C.ar    1  UNL1        0.0438
      9 C         -19.6256   -8.9000   20.1490 C.ar    1  UNL1        0.1797
     10 O         -18.9250  -10.0507   19.4893 O.2     1  UNL1       -0.4488
     11 C         -17.5509   -9.5940   19.0978 C.ar    1  UNL1        0.1645
     12 C         -16.4159  -10.2977   18.4150 C.ar    1  UNL1        0.1363
     13 N         -15.1322   -9.5685   18.1498 N.ar    1  UNL1       -0.2361
     14 C         -10.5646   -5.9754   18.3678 C.3     1  UNL1        0.0879
     15 C         -10.8052   -4.6682   18.6381 C.3     1  UNL1        0.0919
     16 N         -10.9075   -3.8636   18.7794 N.3     1  UNL1       -0.2713
     17 C          -9.6565   -4.2614   18.0536 C.3     1  UNL1        0.0722
     18 C          -9.3905   -5.7071   17.7548 C.3     1  UNL1        0.0191
     19 C         -10.3754   -6.7548   18.1817 C.3     1  UNL1        0.0221
     20 C         -11.6263   -6.3569   18.9075 C.3     1  UNL1        0.0191
     21 C         -11.8924   -4.9113   19.2064 C.3     1  UNL1        0.0722
@<TRIPOS>BOND
     1     1     2    2
     2     2     3   am
     3    14     3    1
     4    14    15    1
     5    15    16    1
     6    16    17    1
     7    17    18    1
     8    18    19    1
     9    19    20    1
    10    20    21    1
    11     2     5    1
    12     5     6   ar
    13     6     7   ar
    14     7     8   ar
    15     8     9   ar
    16     9    10   ar
    17    10    11   ar
    18    11    12   ar
    19    12    13   ar
    20    19    14    1
    21    13     5   ar
    22    21    16    1
    23    11     7   ar
    24     3     4    1
@<TRIPOS>MOLECULE
*****
 21 24 0 0 0
SMALL
GASTEIGER

@<TRIPOS>ATOM
      1 O          -8.4351  -16.5661   21.2442 O.2     1  UNL1       -0.2685
      2 C          -7.7617  -17.3475   22.3332 C.2     1  UNL1        0.2636
      3 N          -7.6001  -18.8329   22.2005 N.am    1  UNL1       -0.2999
      4 H          -7.1747  -19.4305   22.8571 H       1  UNL1        0.1498
      5 C          -7.2498  -16.6435   23.5550 C.ar    1  UNL1        0.1347
      6 C          -8.1667  -16.3929   24.7155 C.ar    1  UNL1        0.0269
      7 C          -7.6548  -15.6890   25.9371 C.ar    1  UNL1        0.0409
      8 C          -8.3186  -15.3049   27.2263 C.ar    1  UNL1        0.0438
      9 C          -7.3003  -14.6143   28.0841 C.ar    1  UNL1        0.1797
     10 O          -6.0071  -14.5715   27.3253 O.2     1  UNL1       -0.4488
     11 C          -6.2262  -15.2357   25.9983 C.ar    1  UNL1        0.1645
     12 C          -5.3095  -15.4863   24.8378 C.ar    1  UNL1        0.1363
     13 N          -5.8214  -16.1903   23.6161 N.ar    1  UNL1       -0.2361
     14 C          -8.6738  -19.5707   19.8620 C.3     1  UNL1        0.0879
     15 C         -10.0221  -19.5835   20.0085 C.3     1  UNL1        0.0919
     16 N         -10.8442  -19.6058   20.0491 N.3     1  UNL1       -0.2713
     17 C         -10.2295  -19.9710   18.7304 C.3     1  UNL1        0.0722
     18 C          -8.7383  -19.9568   18.5686 C.3     1  UNL1        0.0191
     19 C          -7.8619  -19.5774   19.7253 C.3     1  UNL1        0.0221
     20 C          -8.4766  -19.2122   21.0439 C.3     1  UNL1        0.0191
     21 C          -9.9678  -19.2264   21.2058 C.3     1  UNL1        0.0722
@<TRIPOS>BOND
     1     1     2    2
     2     2     3   am
     3    14     3    1
     4    14    15    1
     5    15    16    1
     6    16    17    1
     7    17    18    1
     8    18    19    1
     9    19    20    1
    10    20    21    1
    11     2     5    1
    12     5     6   ar
    13     6     7   ar
    14     7     8   ar
    15     8     9   ar
    16     9    10   ar
    17    10    11   ar
    18    11    12   ar
    19    12    13   ar
    20    19    14    1
    21    13     5   ar
    22    21    16    1
    23    11     7   ar
    24     3     4    1
@<TRIPOS>MOLECULE
*****
 21 24 0 0 0
SMALL
GASTEIGER

@<TRIPOS>ATOM
      1 O         -10.5992   -3.3793   16.8410 O.2     1  UNL1       -0.2685
      2 C         -11.3073   -2.7780   18.0186 C.2     1  UNL1        0.2636
      3 N         -11.4152   -3.5472   19.3018 N.am    1  UNL1       -0.2999
      4 H         -11.8577   -3.2404   20.1260 H       1  UNL1        0.1498
      5 C         -11.9076   -1.4073   17.9131 C.ar    1  UNL1        0.1347
      6 C         -13.2214   -1.1110   18.5736 C.ar    1  UNL1        0.0269
      7 C         -13.8216    0.2596   18.4681 C.ar    1  UNL1        0.0409
      8 C         -15.0931    0.8428   19.0095 C.ar    1  UNL1        0.0438
      9 C         -15.1654    2.2776   18.5782 C.ar    1  UNL1        0.1797
     10 O         -13.9385    2.5812   17.7702 O.2     1  UNL1       -0.4488
     11 C         -13.1080    1.3339   17.7022 C.ar    1  UNL1        0.1645
     12 C         -11.7942    1.0376   17.0418 C.ar    1  UNL1        0.1363
     13 N         -11.1940   -0.3330   17.1473 N.ar    1  UNL1       -0.2361
     14 C         -10.1913   -5.9024   18.9535 C.3     1  UNL1        0.0879
     15 C         -11.0907   -6.7635   18.4159 C.3     1  UNL1        0.0919
     16 N         -11.6006   -7.3217   18.0897 N.3     1  UNL1       -0.2713
     17 C         -10.2014   -7.7803   18.3755 C.3     1  UNL1        0.0722
     18 C          -9.2067   -6.8278   18.9701 C.3     1  UNL1        0.0191
     19 C          -9.6114   -5.4169   19.2788 C.3     1  UNL1        0.0221
     20 C         -11.0106   -4.9582   18.9930 C.3     1  UNL1        0.0191
     21 C         -12.0053   -5.9106   18.3985 C.3     1  UNL1        0.0722
@<TRIPOS>BOND
     1     1     2    2
     2     2     3   am
     3    14     3    1
     4    14    15    1
     5    15    16    1
     6    16    17    1
     7    17    18    1
     8    18    19    1
     9    19    20    1
    10    20    21    1
    11     2     5    1
    12     5     6   ar
    13     6     7   ar
    14     7     8   ar
    15     8     9   ar
    16     9    10   ar
    17    10    11   ar
    18    11    12   ar
    19    12    13   ar
    20    19    14    1
    21    13     5   ar
    22    21    16    1
    23    11     7   ar
    24     3     4    1
@<TRIPOS>MOLECULE
*****
 21 24 0 0 0
SMALL
GASTEIGER

@<TRIPOS>ATOM
      1 O         -13.6323   -6.6301   17.0926 O.2     1  UNL1       -0.2685
      2 C         -14.2307   -6.7746   18.4604 C.2     1  UNL1        0.2636
      3 N         -13.4061   -6.4696   19.6758 N.am    1  UNL1       -0.2999
      4 H         -13.7068   -6.5337   20.6111 H       1  UNL1        0.1498
      5 C         -15.6537   -7.2240   18.6129 C.ar    1  UNL1        0.1347
      6 C         -16.0849   -8.5499   18.0594 C.ar    1  UNL1        0.0269
      7 C         -17.5078   -8.9993   18.2119 C.ar    1  UNL1        0.0409
      8 C         -18.2194  -10.2448   17.7735 C.ar    1  UNL1        0.0438
      9 C         -19.6509  -10.1383   18.2086 C.ar    1  UNL1        0.1797
     10 O         -19.8241   -8.8269   18.9159 O.2     1  UNL1       -0.4488
     11 C         -18.4995   -8.1229   18.9179 C.ar    1  UNL1        0.1645
     12 C         -18.0683   -6.7971   19.4714 C.ar    1  UNL1        0.1363
     13 N         -16.6454   -6.3477   19.3189 N.ar    1  UNL1       -0.2361
     14 C         -10.9723   -5.7201   18.8509 C.3     1  UNL1        0.0879
     15 C         -10.9627   -4.3671   18.7572 C.3     1  UNL1        0.0919
     16 N         -10.9087   -3.5487   18.6853 N.3     1  UNL1       -0.2713
     17 C          -9.6760   -4.3328   18.3453 C.3     1  UNL1        0.0722
     18 C          -9.6867   -5.8292   18.4489 C.3     1  UNL1        0.0191
     19 C         -10.9301   -6.5414   18.8924 C.3     1  UNL1        0.0221
     20 C         -12.1628   -5.7573   19.2323 C.3     1  UNL1        0.0191
     21 C         -12.1522   -4.2609   19.1288 C.3     1  UNL1        0.0722
@<TRIPOS>BOND
     1     1     2    2
     2     2     3   am
     3    14     3    1
     4    14    15    1
     5    15    16    1
     6    16    17    1
     7    17    18    1
     8    18    19    1
     9    19    20    1
    10    20    21    1
    11     2     5    1
    12     5     6   ar
    13     6     7   ar
    14     7     8   ar
    15     8     9   ar
    16     9    10   ar
    17    10    11   ar
    18    11    12   ar
    19    12    13   ar
    20    19    14    1
    21    13     5   ar
    22    21    16    1
    23    11     7   ar
    24     3     4    1
