@<TRIPOS>MOLECULE
*****
 36 39 0 0 0
SMALL
GASTEIGER

@<TRIPOS>ATOM
      1 C           5.4442   -2.0653   18.4558 C.ar    1  UNL1        0.1424
      2 C           6.6571   -1.2466   18.7860 C.ar    1  UNL1        0.0339
      3 C           7.3751   -1.4603   20.0855 C.ar    1  UNL1       -0.0037
      4 C           6.8804   -2.4925   21.0548 C.ar    1  UNL1        0.0515
      5 C           5.6677   -3.3112   20.7247 C.ar    1  UNL1        0.0215
      6 C           4.9495   -3.0976   19.4252 C.ar    1  UNL1        0.1065
      7 N           7.7878   -2.4793   22.2492 N.am    1  UNL1       -0.2430
      8 C           7.6617   -3.3531   23.4619 C.2     1  UNL1        0.3114
      9 O           6.5482   -4.3540   23.5527 O.2     1  UNL1       -0.2519
     10 N           8.6493   -3.2261   24.5838 N.am    1  UNL1       -0.2678
     11 C           8.8432   -1.4388   22.0181 C.3     1  UNL1        0.1045
     12 C           8.5882   -0.8091   20.6808 C.3     1  UNL1        0.0496
     13 H           9.3801   -2.5692   24.5242 H       1  UNL1        0.1564
     14 C           8.5233   -4.0999   25.7965 C.ar    1  UNL1        0.0546
     15 C           9.0088   -5.5184   25.7525 C.ar    1  UNL1        0.0519
     16 C           8.8828   -6.3921   26.9652 C.ar    1  UNL1        0.1480
     17 C           8.2713   -5.8473   28.2219 C.ar    1  UNL1        0.0373
     18 C           7.7859   -4.4287   28.2659 C.ar    1  UNL1        0.0057
     19 C           7.9119   -3.5550   27.0532 C.ar    1  UNL1        0.0150
     20 C           7.1744   -3.8839   29.5226 C.ar    1  UNL1        0.0193
     21 C           7.2723   -4.6605   30.8022 C.ar    1  UNL1        0.0031
     22 C           6.6609   -4.1156   32.0588 C.ar    1  UNL1        0.0207
     23 C           5.9516   -2.7941   32.0360 C.ar    1  UNL1        0.0989
     24 N           5.8537   -2.0175   30.7564 N.ar    1  UNL1       -0.2423
     25 C           6.4652   -2.5624   29.4997 C.ar    1  UNL1        0.0988
     26 O           9.3682   -7.8107   26.9213 O.3     1  UNL1       -0.4044
     27 C           8.4478   -8.9306   27.3068 C.3     1  UNL1        0.5753
     28 F           7.5274  -10.0506   27.6923 F       1  UNL1       -0.1328
     29 F           7.3710   -8.3430   26.4434 F       1  UNL1       -0.1328
     30 F           9.5244   -9.5184   28.1701 F       1  UNL1       -0.1328
     31 C           3.7368   -3.9162   19.0950 C.3     1  UNL1        0.4214
     32 F           2.5241   -4.7348   18.7649 F       1  UNL1       -0.1657
     33 F           4.6165   -4.9908   18.5283 F       1  UNL1       -0.1657
     34 F           2.8571   -2.8416   19.6618 F       1  UNL1       -0.1657
     35 C           3.7648   -0.7097   17.0096 C.3     1  UNL1        0.2525
     36 O           4.7262   -1.8516   17.1563 O.3     1  UNL1       -0.4715
@<TRIPOS>BOND
     1    35    36    1
     2    36     1    1
     3     1     2   ar
     4     2     3   ar
     5     3     4   ar
     6     4     5   ar
     7     5     6   ar
     8     6    31    1
     9    31    32    1
    10    31    33    1
    11    31    34    1
    12     4     7    1
    13     7     8   am
    14     8     9    2
    15     8    10   am
    16    10    14    1
    17    14    15   ar
    18    15    16   ar
    19    16    26    1
    20    26    27    1
    21    27    28    1
    22    27    29    1
    23    27    30    1
    24    16    17   ar
    25    17    18   ar
    26    18    20    1
    27    20    21   ar
    28    21    22   ar
    29    22    23   ar
    30    23    24   ar
    31    24    25   ar
    32    18    19   ar
    33     7    11    1
    34    11    12    1
    35     6     1   ar
    36    19    14   ar
    37    12     3    1
    38    25    20   ar
    39    10    13    1
@<TRIPOS>MOLECULE
*****
 36 39 0 0 0
SMALL
GASTEIGER

@<TRIPOS>ATOM
      1 C           4.2794   -1.1690   18.3368 C.ar    1  UNL1        0.1424
      2 C           4.1354    0.2366   17.8332 C.ar    1  UNL1        0.0339
      3 C           3.2615    1.2103   18.5669 C.ar    1  UNL1       -0.0037
      4 C           2.5316    0.7783   19.8041 C.ar    1  UNL1        0.0515
      5 C           2.6756   -0.6272   20.3077 C.ar    1  UNL1        0.0215
      6 C           3.5495   -1.6010   19.5740 C.ar    1  UNL1        0.1065
      7 N           1.7472    1.9513   20.3128 N.am    1  UNL1       -0.2430
      8 C           0.8714    1.9650   21.5305 C.2     1  UNL1        0.3114
      9 O           0.7223    0.7248   22.3610 O.2     1  UNL1       -0.2519
     10 N           0.1448    3.2188   21.9178 N.am    1  UNL1       -0.2678
     11 C           1.9922    3.1082   19.3900 C.3     1  UNL1        0.1045
     12 C           2.9282    2.6502   18.3110 C.3     1  UNL1        0.0496
     13 H           0.2428    4.0328   21.3727 H       1  UNL1        0.1564
     14 C          -0.7310    3.2326   23.1355 C.ar    1  UNL1        0.0546
     15 C          -0.1578    2.8780   24.4756 C.ar    1  UNL1        0.0519
     16 C          -1.0337    2.8918   25.6932 C.ar    1  UNL1        0.1480
     17 C          -2.4826    3.2602   25.5708 C.ar    1  UNL1        0.0373
     18 C          -3.0557    3.6147   24.2307 C.ar    1  UNL1        0.0057
     19 C          -2.1799    3.6009   23.0131 C.ar    1  UNL1        0.0150
     20 C          -4.5046    3.9831   24.1083 C.ar    1  UNL1        0.0193
     21 C          -5.2546    3.6683   22.8479 C.ar    1  UNL1        0.0031
     22 C          -6.7035    4.0367   22.7255 C.ar    1  UNL1        0.0207
     23 C          -7.4024    4.7198   23.8634 C.ar    1  UNL1        0.0989
     24 N          -6.6524    5.0345   25.1238 N.ar    1  UNL1       -0.2423
     25 C          -5.2035    4.6661   25.2462 C.ar    1  UNL1        0.0988
     26 O          -0.4607    2.5373   27.0333 O.3     1  UNL1       -0.4044
     27 C          -0.5231    1.1215   27.5249 C.3     1  UNL1        0.5753
     28 F          -0.5856   -0.2944   28.0165 F       1  UNL1       -0.1328
     29 F           0.8365    0.8609   26.9473 F       1  UNL1       -0.1328
     30 F          -1.8827    1.3820   28.1025 F       1  UNL1       -0.1328
     31 C           3.6935   -3.0065   20.0775 C.3     1  UNL1        0.4214
     32 F           3.8375   -4.4121   20.5811 F       1  UNL1       -0.1657
     33 F           4.6203   -2.5258   21.1545 F       1  UNL1       -0.1657
     34 F           2.7667   -3.4873   19.0006 F       1  UNL1       -0.1657
     35 C           6.5435   -2.4198   18.0934 C.3     1  UNL1        0.2525
     36 O           5.1533   -2.1427   17.6031 O.3     1  UNL1       -0.4715
@<TRIPOS>BOND
     1    35    36    1
     2    36     1    1
     3     1     2   ar
     4     2     3   ar
     5     3     4   ar
     6     4     5   ar
     7     5     6   ar
     8     6    31    1
     9    31    32    1
    10    31    33    1
    11    31    34    1
    12     4     7    1
    13     7     8   am
    14     8     9    2
    15     8    10   am
    16    10    14    1
    17    14    15   ar
    18    15    16   ar
    19    16    26    1
    20    26    27    1
    21    27    28    1
    22    27    29    1
    23    27    30    1
    24    16    17   ar
    25    17    18   ar
    26    18    20    1
    27    20    21   ar
    28    21    22   ar
    29    22    23   ar
    30    23    24   ar
    31    24    25   ar
    32    18    19   ar
    33     7    11    1
    34    11    12    1
    35     6     1   ar
    36    19    14   ar
    37    12     3    1
    38    25    20   ar
    39    10    13    1
@<TRIPOS>MOLECULE
*****
 36 39 0 0 0
SMALL
GASTEIGER

@<TRIPOS>ATOM
      1 C           4.2563   -1.3186   18.3129 C.ar    1  UNL1        0.1424
      2 C           4.0757    0.0794   17.7999 C.ar    1  UNL1        0.0339
      3 C           3.2243    1.0529   18.5597 C.ar    1  UNL1       -0.0037
      4 C           2.5535    0.6285   19.8325 C.ar    1  UNL1        0.0515
      5 C           2.7341   -0.7694   20.3454 C.ar    1  UNL1        0.0215
      6 C           3.5855   -1.7430   19.5856 C.ar    1  UNL1        0.1065
      7 N           1.7795    1.7995   20.3613 N.am    1  UNL1       -0.2430
      8 C           0.9574    1.8190   21.6158 C.2     1  UNL1        0.3114
      9 O           0.8576    0.5874   22.4663 O.2     1  UNL1       -0.2519
     10 N           0.2351    3.0700   22.0198 N.am    1  UNL1       -0.2678
     11 C           1.9720    2.9477   19.4154 C.3     1  UNL1        0.1045
     12 C           2.8649    2.4862   18.3020 C.3     1  UNL1        0.0496
     13 H           0.3006    3.8783   21.4616 H       1  UNL1        0.1564
     14 C          -0.5870    3.0895   23.2744 C.ar    1  UNL1        0.0546
     15 C          -1.9814    3.6416   23.2487 C.ar    1  UNL1        0.0519
     16 C          -2.8035    3.6611   24.5032 C.ar    1  UNL1        0.1480
     17 C          -2.2311    3.1285   25.7833 C.ar    1  UNL1        0.0373
     18 C          -0.8367    2.5764   25.8090 C.ar    1  UNL1        0.0057
     19 C          -0.0146    2.5569   24.5545 C.ar    1  UNL1        0.0150
     20 C          -0.2643    2.0438   27.0891 C.ar    1  UNL1        0.0193
     21 C          -0.9617    0.9336   27.8179 C.ar    1  UNL1        0.0031
     22 C          -0.3893    0.4010   29.0980 C.ar    1  UNL1        0.0207
     23 C           0.8805    0.9785   29.6493 C.ar    1  UNL1        0.0989
     24 N           1.5779    2.0887   28.9205 N.ar    1  UNL1       -0.2423
     25 C           1.0055    2.6213   27.6404 C.ar    1  UNL1        0.0988
     26 O          -4.1980    4.2132   24.4777 O.3     1  UNL1       -0.4044
     27 C          -5.1081    3.8987   23.3276 C.3     1  UNL1        0.5753
     28 F          -6.0183    3.5843   22.1775 F       1  UNL1       -0.1328
     29 F          -5.0409    2.4405   23.6730 F       1  UNL1       -0.1328
     30 F          -5.1754    5.3568   22.9821 F       1  UNL1       -0.1328
     31 C           3.7661   -3.1409   20.0986 C.3     1  UNL1        0.4214
     32 F           3.9467   -4.5388   20.6115 F       1  UNL1       -0.1657
     33 F           4.7469   -2.6405   21.1172 F       1  UNL1       -0.1657
     34 F           2.7854   -3.6414   19.0799 F       1  UNL1       -0.1657
     35 C           6.5694   -2.4146   17.8672 C.3     1  UNL1        0.2525
     36 O           5.1078   -2.2921   17.5531 O.3     1  UNL1       -0.4715
@<TRIPOS>BOND
     1    35    36    1
     2    36     1    1
     3     1     2   ar
     4     2     3   ar
     5     3     4   ar
     6     4     5   ar
     7     5     6   ar
     8     6    31    1
     9    31    32    1
    10    31    33    1
    11    31    34    1
    12     4     7    1
    13     7     8   am
    14     8     9    2
    15     8    10   am
    16    10    14    1
    17    14    15   ar
    18    15    16   ar
    19    16    26    1
    20    26    27    1
    21    27    28    1
    22    27    29    1
    23    27    30    1
    24    16    17   ar
    25    17    18   ar
    26    18    20    1
    27    20    21   ar
    28    21    22   ar
    29    22    23   ar
    30    23    24   ar
    31    24    25   ar
    32    18    19   ar
    33     7    11    1
    34    11    12    1
    35     6     1   ar
    36    19    14   ar
    37    12     3    1
    38    25    20   ar
    39    10    13    1
@<TRIPOS>MOLECULE
*****
 36 39 0 0 0
SMALL
GASTEIGER

@<TRIPOS>ATOM
      1 C           5.9141   -3.1711   20.2310 C.ar    1  UNL1        0.1424
      2 C           6.5916   -1.8341   20.1726 C.ar    1  UNL1        0.0339
      3 C           5.7763   -0.5872   19.9977 C.ar    1  UNL1       -0.0037
      4 C           4.2836   -0.6774   19.8810 C.ar    1  UNL1        0.0515
      5 C           3.6061   -2.0143   19.9394 C.ar    1  UNL1        0.0215
      6 C           4.4214   -3.2613   20.1143 C.ar    1  UNL1        0.1065
      7 N           3.7466    0.7136   19.7168 N.am    1  UNL1       -0.2430
      8 C           2.3024    1.0888   19.5643 C.2     1  UNL1        0.3114
      9 O           1.2463    0.0236   19.5677 O.2     1  UNL1       -0.2519
     10 N           1.9141    2.5293   19.4083 N.am    1  UNL1       -0.2678
     11 C           4.9075    1.6634   19.7320 C.3     1  UNL1        0.1045
     12 C           6.1619    0.8595   19.9056 C.3     1  UNL1        0.0496
     13 H           2.6073    3.2284   19.4060 H       1  UNL1        0.1564
     14 C           0.4699    2.9046   19.2557 C.ar    1  UNL1        0.0546
     15 C          -0.0837    3.2199   17.8977 C.ar    1  UNL1        0.0519
     16 C          -1.5280    3.5952   17.7452 C.ar    1  UNL1        0.1480
     17 C          -2.4186    3.6552   18.9507 C.ar    1  UNL1        0.0373
     18 C          -1.8650    3.3400   20.3087 C.ar    1  UNL1        0.0057
     19 C          -0.4208    2.9647   20.4611 C.ar    1  UNL1        0.0150
     20 C          -2.7557    3.4000   21.5141 C.ar    1  UNL1        0.0193
     21 C          -2.1625    3.6163   22.8748 C.ar    1  UNL1        0.0031
     22 C          -3.0532    3.6764   24.0803 C.ar    1  UNL1        0.0207
     23 C          -4.5369    3.5201   23.9251 C.ar    1  UNL1        0.0989
     24 N          -5.1300    3.3038   22.5644 N.ar    1  UNL1       -0.2423
     25 C          -4.2394    3.2438   21.3589 C.ar    1  UNL1        0.0988
     26 O          -2.0816    3.9105   16.3873 O.3     1  UNL1       -0.4044
     27 C          -3.4376    4.5385   16.2575 C.3     1  UNL1        0.5753
     28 F          -4.7937    5.1665   16.1277 F       1  UNL1       -0.1328
     29 F          -2.8337    5.8913   16.4929 F       1  UNL1       -0.1328
     30 F          -4.0416    3.1858   16.0221 F       1  UNL1       -0.1328
     31 C           3.7439   -4.5983   20.1727 C.3     1  UNL1        0.4214
     32 F           3.0664   -5.9353   20.2310 F       1  UNL1       -0.1657
     33 F           3.9029   -4.6138   21.6641 F       1  UNL1       -0.1657
     34 F           3.5849   -4.5828   18.6813 F       1  UNL1       -0.1657
     35 C           7.8870   -4.4295   21.3599 C.3     1  UNL1        0.2525
     36 O           6.7294   -4.4180   20.4060 O.3     1  UNL1       -0.4715
@<TRIPOS>BOND
     1    35    36    1
     2    36     1    1
     3     1     2   ar
     4     2     3   ar
     5     3     4   ar
     6     4     5   ar
     7     5     6   ar
     8     6    31    1
     9    31    32    1
    10    31    33    1
    11    31    34    1
    12     4     7    1
    13     7     8   am
    14     8     9    2
    15     8    10   am
    16    10    14    1
    17    14    15   ar
    18    15    16   ar
    19    16    26    1
    20    26    27    1
    21    27    28    1
    22    27    29    1
    23    27    30    1
    24    16    17   ar
    25    17    18   ar
    26    18    20    1
    27    20    21   ar
    28    21    22   ar
    29    22    23   ar
    30    23    24   ar
    31    24    25   ar
    32    18    19   ar
    33     7    11    1
    34    11    12    1
    35     6     1   ar
    36    19    14   ar
    37    12     3    1
    38    25    20   ar
    39    10    13    1
@<TRIPOS>MOLECULE
*****
 36 39 0 0 0
SMALL
GASTEIGER

@<TRIPOS>ATOM
      1 C           0.6380    2.1927   29.1828 C.ar    1  UNL1        0.1424
      2 C           1.5468    3.3213   28.7948 C.ar    1  UNL1        0.0339
      3 C           1.9584    3.4944   27.3628 C.ar    1  UNL1       -0.0037
      4 C           1.4612    2.5389   26.3188 C.ar    1  UNL1        0.0515
      5 C           0.5525    1.4104   26.7067 C.ar    1  UNL1        0.0215
      6 C           0.1408    1.2373   28.1387 C.ar    1  UNL1        0.1065
      7 N           2.0326    2.9585   24.9968 N.am    1  UNL1       -0.2430
      8 C           1.7954    2.2820   23.6792 C.2     1  UNL1        0.3114
      9 O           0.9158    1.0691   23.6065 O.2     1  UNL1       -0.2519
     10 N           2.4377    2.8184   22.4344 N.am    1  UNL1       -0.2678
     11 C           2.8829    4.1731   25.2238 C.3     1  UNL1        0.1045
     12 C           2.8371    4.5043   26.6861 C.3     1  UNL1        0.0496
     13 H           3.0149    3.6145   22.4821 H       1  UNL1        0.1564
     14 C           2.2004    2.1420   21.1167 C.ar    1  UNL1        0.0546
     15 C           1.1957    2.7041   20.1552 C.ar    1  UNL1        0.0519
     16 C           0.9585    2.0277   18.8376 C.ar    1  UNL1        0.1480
     17 C           1.7261    0.7892   18.4814 C.ar    1  UNL1        0.0373
     18 C           2.7309    0.2271   19.4429 C.ar    1  UNL1        0.0057
     19 C           2.9681    0.9035   20.7605 C.ar    1  UNL1        0.0150
     20 C           3.4985   -1.0114   19.0867 C.ar    1  UNL1        0.0193
     21 C           3.1939   -2.3074   19.7779 C.ar    1  UNL1        0.0031
     22 C           3.9615   -3.5459   19.4218 C.ar    1  UNL1        0.0207
     23 C           5.0338   -3.4885   18.3744 C.ar    1  UNL1        0.0989
     24 N           5.3384   -2.1925   17.6833 N.ar    1  UNL1       -0.2423
     25 C           4.5708   -0.9540   18.0394 C.ar    1  UNL1        0.0988
     26 O          -0.0463    2.5897   17.8761 O.3     1  UNL1       -0.4044
     27 C          -0.4451    4.0329   17.9665 C.3     1  UNL1        0.5753
     28 F          -0.8439    5.4761   18.0569 F       1  UNL1       -0.1328
     29 F          -1.7110    3.6392   18.6684 F       1  UNL1       -0.1328
     30 F           0.8207    4.4267   17.2646 F       1  UNL1       -0.1328
     31 C          -0.7680    0.1088   28.5267 C.3     1  UNL1        0.4214
     32 F          -1.6767   -1.0198   28.9146 F       1  UNL1       -0.1657
     33 F           0.4236   -0.7763   28.7432 F       1  UNL1       -0.1657
     34 F          -1.9595    0.9938   28.3102 F       1  UNL1       -0.1657
     35 C           1.2173    2.2618   31.7145 C.3     1  UNL1        0.2525
     36 O           0.2264    2.0196   30.6147 O.3     1  UNL1       -0.4715
@<TRIPOS>BOND
     1    35    36    1
     2    36     1    1
     3     1     2   ar
     4     2     3   ar
     5     3     4   ar
     6     4     5   ar
     7     5     6   ar
     8     6    31    1
     9    31    32    1
    10    31    33    1
    11    31    34    1
    12     4     7    1
    13     7     8   am
    14     8     9    2
    15     8    10   am
    16    10    14    1
    17    14    15   ar
    18    15    16   ar
    19    16    26    1
    20    26    27    1
    21    27    28    1
    22    27    29    1
    23    27    30    1
    24    16    17   ar
    25    17    18   ar
    26    18    20    1
    27    20    21   ar
    28    21    22   ar
    29    22    23   ar
    30    23    24   ar
    31    24    25   ar
    32    18    19   ar
    33     7    11    1
    34    11    12    1
    35     6     1   ar
    36    19    14   ar
    37    12     3    1
    38    25    20   ar
    39    10    13    1
@<TRIPOS>MOLECULE
*****
 36 39 0 0 0
SMALL
GASTEIGER

@<TRIPOS>ATOM
      1 C           5.4376   -1.5075   30.6848 C.ar    1  UNL1        0.1424
      2 C           6.4886   -2.3359   30.0071 C.ar    1  UNL1        0.0339
      3 C           6.4431   -2.5361   28.5213 C.ar    1  UNL1       -0.0037
      4 C           5.3467   -1.9079   27.7130 C.ar    1  UNL1        0.0515
      5 C           4.2957   -1.0796   28.3906 C.ar    1  UNL1        0.0215
      6 C           4.3411   -0.8793   29.8766 C.ar    1  UNL1        0.1065
      7 N           5.5600   -2.2786   26.2753 N.am    1  UNL1       -0.2430
      8 C           4.6966   -1.8647   25.1206 C.2     1  UNL1        0.3114
      9 O           3.4934   -1.0005   25.3558 O.2     1  UNL1       -0.2519
     10 N           5.0365   -2.3149   23.7308 N.am    1  UNL1       -0.2678
     11 C           6.7883   -3.1359   26.1949 C.3     1  UNL1        0.1045
     12 C           7.3340   -3.2950   27.5830 C.3     1  UNL1        0.0496
     13 H           5.8262   -2.8822   23.5764 H       1  UNL1        0.1564
     14 C           4.1732   -1.9011   22.5760 C.ar    1  UNL1        0.0546
     15 C           4.3398   -2.5625   21.2401 C.ar    1  UNL1        0.0519
     16 C           3.4764   -2.1486   20.0855 C.ar    1  UNL1        0.1480
     17 C           2.4465   -1.0732   20.2667 C.ar    1  UNL1        0.0373
     18 C           2.2799   -0.4117   21.6026 C.ar    1  UNL1        0.0057
     19 C           3.1433   -0.8257   22.7573 C.ar    1  UNL1        0.0150
     20 C           1.2500    0.6636   21.7839 C.ar    1  UNL1        0.0193
     21 C           1.1956    1.4417   23.0652 C.ar    1  UNL1        0.0031
     22 C           0.1657    2.5171   23.2465 C.ar    1  UNL1        0.0207
     23 C          -0.8098    2.8143   22.1465 C.ar    1  UNL1        0.0989
     24 N          -0.7554    2.0363   20.8652 N.ar    1  UNL1       -0.2423
     25 C           0.2745    0.9609   20.6839 C.ar    1  UNL1        0.0988
     26 O           3.6429   -2.8100   18.7495 O.3     1  UNL1       -0.4044
     27 C           4.1809   -4.2077   18.6665 C.3     1  UNL1        0.5753
     28 F           4.7188   -5.6056   18.5835 F       1  UNL1       -0.1328
     29 F           5.5194   -3.6683   18.2572 F       1  UNL1       -0.1328
     30 F           2.8424   -4.7471   19.0758 F       1  UNL1       -0.1328
     31 C           3.2902   -0.0509   30.5542 C.3     1  UNL1        0.4214
     32 F           2.2392    0.7774   31.2318 F       1  UNL1       -0.1657
     33 F           2.4611   -1.2817   30.7728 F       1  UNL1       -0.1657
     34 F           4.1193    1.1798   30.3356 F       1  UNL1       -0.1657
     35 C           4.8473   -2.3141   33.0829 C.3     1  UNL1        0.2525
     36 O           5.4830   -1.3073   32.1707 O.3     1  UNL1       -0.4715
@<TRIPOS>BOND
     1    35    36    1
     2    36     1    1
     3     1     2   ar
     4     2     3   ar
     5     3     4   ar
     6     4     5   ar
     7     5     6   ar
     8     6    31    1
     9    31    32    1
    10    31    33    1
    11    31    34    1
    12     4     7    1
    13     7     8   am
    14     8     9    2
    15     8    10   am
    16    10    14    1
    17    14    15   ar
    18    15    16   ar
    19    16    26    1
    20    26    27    1
    21    27    28    1
    22    27    29    1
    23    27    30    1
    24    16    17   ar
    25    17    18   ar
    26    18    20    1
    27    20    21   ar
    28    21    22   ar
    29    22    23   ar
    30    23    24   ar
    31    24    25   ar
    32    18    19   ar
    33     7    11    1
    34    11    12    1
    35     6     1   ar
    36    19    14   ar
    37    12     3    1
    38    25    20   ar
    39    10    13    1
@<TRIPOS>MOLECULE
*****
 36 39 0 0 0
SMALL
GASTEIGER

@<TRIPOS>ATOM
      1 C          -4.0217    5.1972   19.7468 C.ar    1  UNL1        0.1424
      2 C          -3.0163    5.6149   18.7148 C.ar    1  UNL1        0.0339
      3 C          -1.7422    4.8401   18.5522 C.ar    1  UNL1       -0.0037
      4 C          -1.4735    3.6475   19.4216 C.ar    1  UNL1        0.0515
      5 C          -2.4788    3.2298   20.4534 C.ar    1  UNL1        0.0215
      6 C          -3.7529    4.0047   20.6161 C.ar    1  UNL1        0.1065
      7 N          -0.1389    3.0829   19.0343 N.am    1  UNL1       -0.2430
      8 C           0.5233    1.8851   19.6479 C.2     1  UNL1        0.3114
      9 O          -0.1576    1.1368   20.7554 O.2     1  UNL1       -0.2519
     10 N           1.8664    1.4354   19.1541 N.am    1  UNL1       -0.2678
     11 C           0.4173    3.9265   17.9256 C.3     1  UNL1        0.1045
     12 C          -0.5737    5.0124   17.6277 C.3     1  UNL1        0.0496
     13 H           2.3133    1.9265   18.4273 H       1  UNL1        0.1564
     14 C           2.5287    0.2375   19.7678 C.ar    1  UNL1        0.0546
     15 C           2.9644   -0.9054   18.8996 C.ar    1  UNL1        0.0519
     16 C           3.6267   -2.1033   19.5133 C.ar    1  UNL1        0.1480
     17 C           3.8532   -2.1581   20.9951 C.ar    1  UNL1        0.0373
     18 C           3.4175   -1.0151   21.8632 C.ar    1  UNL1        0.0057
     19 C           2.7552    0.1827   21.2495 C.ar    1  UNL1        0.0150
     20 C           3.6440   -1.0699   23.3450 C.ar    1  UNL1        0.0193
     21 C           4.6567   -2.0188   23.9143 C.ar    1  UNL1        0.0031
     22 C           4.8832   -2.0736   25.3961 C.ar    1  UNL1        0.0207
     23 C           4.0971   -1.1795   26.3086 C.ar    1  UNL1        0.0989
     24 N           3.0844   -0.2306   25.7392 N.ar    1  UNL1       -0.2423
     25 C           2.8579   -0.1758   24.2574 C.ar    1  UNL1        0.0988
     26 O           4.0625   -3.2463   18.6452 O.3     1  UNL1       -0.4044
     27 C           3.9286   -4.6564   19.1389 C.3     1  UNL1        0.5753
     28 F           3.7948   -6.0666   19.6325 F       1  UNL1       -0.1328
     29 F           5.4028   -4.7004   19.4131 F       1  UNL1       -0.1328
     30 F           2.4546   -4.6125   18.8647 F       1  UNL1       -0.1328
     31 C          -4.7583    3.5870   21.6479 C.3     1  UNL1        0.4214
     32 F          -5.7636    3.1693   22.6798 F       1  UNL1       -0.1657
     33 F          -4.0201    4.3776   22.6871 F       1  UNL1       -0.1657
     34 F          -5.4964    2.7964   20.6088 F       1  UNL1       -0.1657
     35 C          -6.4496    5.7206   18.9846 C.3     1  UNL1        0.2525
     36 O          -5.2957    5.9720   19.9093 O.3     1  UNL1       -0.4715
@<TRIPOS>BOND
     1    35    36    1
     2    36     1    1
     3     1     2   ar
     4     2     3   ar
     5     3     4   ar
     6     4     5   ar
     7     5     6   ar
     8     6    31    1
     9    31    32    1
    10    31    33    1
    11    31    34    1
    12     4     7    1
    13     7     8   am
    14     8     9    2
    15     8    10   am
    16    10    14    1
    17    14    15   ar
    18    15    16   ar
    19    16    26    1
    20    26    27    1
    21    27    28    1
    22    27    29    1
    23    27    30    1
    24    16    17   ar
    25    17    18   ar
    26    18    20    1
    27    20    21   ar
    28    21    22   ar
    29    22    23   ar
    30    23    24   ar
    31    24    25   ar
    32    18    19   ar
    33     7    11    1
    34    11    12    1
    35     6     1   ar
    36    19    14   ar
    37    12     3    1
    38    25    20   ar
    39    10    13    1
@<TRIPOS>MOLECULE
*****
 36 39 0 0 0
SMALL
GASTEIGER

@<TRIPOS>ATOM
      1 C           8.1913   -5.4780   27.3794 C.ar    1  UNL1        0.1424
      2 C           7.5825   -4.2797   28.0455 C.ar    1  UNL1        0.0339
      3 C           6.6867   -3.3629   27.2665 C.ar    1  UNL1       -0.0037
      4 C           6.3996   -3.6442   25.8213 C.ar    1  UNL1        0.0515
      5 C           7.0084   -4.8424   25.1552 C.ar    1  UNL1        0.0215
      6 C           7.9042   -5.7593   25.9342 C.ar    1  UNL1        0.1065
      7 N           5.4848   -2.5698   25.3128 N.am    1  UNL1       -0.2430
      8 C           4.9434   -2.4600   23.9182 C.2     1  UNL1        0.3114
      9 O           5.3113   -3.4862   22.8879 O.2     1  UNL1       -0.2519
     10 N           4.0340   -1.3241   23.5539 N.am    1  UNL1       -0.2678
     11 C           5.2064   -1.6244   26.4436 C.3     1  UNL1        0.1045
     12 C           5.9492   -2.1146   27.6510 C.3     1  UNL1        0.0496
     13 H           3.7925   -0.6506   24.2302 H       1  UNL1        0.1564
     14 C           3.4925   -1.2143   22.1593 C.ar    1  UNL1        0.0546
     15 C           3.9197   -2.1966   21.1094 C.ar    1  UNL1        0.0519
     16 C           3.3782   -2.0867   19.7149 C.ar    1  UNL1        0.1480
     17 C           2.4096   -0.9945   19.3704 C.ar    1  UNL1        0.0373
     18 C           1.9823   -0.0121   20.4203 C.ar    1  UNL1        0.0057
     19 C           2.5239   -0.1220   21.8148 C.ar    1  UNL1        0.0150
     20 C           1.0137    1.0801   20.0758 C.ar    1  UNL1        0.0193
     21 C           1.1027    1.7699   18.7468 C.ar    1  UNL1        0.0031
     22 C           0.1341    2.8621   18.4023 C.ar    1  UNL1        0.0207
     23 C          -0.9237    3.2645   19.3868 C.ar    1  UNL1        0.0989
     24 N          -1.0127    2.5747   20.7158 N.ar    1  UNL1       -0.2423
     25 C          -0.0441    1.4825   21.0603 C.ar    1  UNL1        0.0988
     26 O           3.8054   -3.0690   18.6648 O.3     1  UNL1       -0.4044
     27 C           3.9619   -4.5194   19.0140 C.3     1  UNL1        0.5753
     28 F           4.1183   -5.9699   19.3632 F       1  UNL1       -0.1328
     29 F           5.4515   -4.3484   19.0569 F       1  UNL1       -0.1328
     30 F           2.4723   -4.6904   18.9712 F       1  UNL1       -0.1328
     31 C           8.5130   -6.9575   25.2681 C.3     1  UNL1        0.4214
     32 F           9.1217   -8.1557   24.6020 F       1  UNL1       -0.1657
     33 F           7.4925   -7.8402   25.9233 F       1  UNL1       -0.1657
     34 F           9.5334   -6.0748   24.6129 F       1  UNL1       -0.1657
     35 C           8.7668   -6.7208   29.5871 C.3     1  UNL1        0.2525
     36 O           9.0870   -6.3948   28.1584 O.3     1  UNL1       -0.4715
@<TRIPOS>BOND
     1    35    36    1
     2    36     1    1
     3     1     2   ar
     4     2     3   ar
     5     3     4   ar
     6     4     5   ar
     7     5     6   ar
     8     6    31    1
     9    31    32    1
    10    31    33    1
    11    31    34    1
    12     4     7    1
    13     7     8   am
    14     8     9    2
    15     8    10   am
    16    10    14    1
    17    14    15   ar
    18    15    16   ar
    19    16    26    1
    20    26    27    1
    21    27    28    1
    22    27    29    1
    23    27    30    1
    24    16    17   ar
    25    17    18   ar
    26    18    20    1
    27    20    21   ar
    28    21    22   ar
    29    22    23   ar
    30    23    24   ar
    31    24    25   ar
    32    18    19   ar
    33     7    11    1
    34    11    12    1
    35     6     1   ar
    36    19    14   ar
    37    12     3    1
    38    25    20   ar
    39    10    13    1
@<TRIPOS>MOLECULE
*****
 36 39 0 0 0
SMALL
GASTEIGER

@<TRIPOS>ATOM
      1 C           5.3409   -1.2203   19.0066 C.ar    1  UNL1        0.1424
      2 C           5.6405    0.2131   18.6810 C.ar    1  UNL1        0.0339
      3 C           4.5635    1.2502   18.8004 C.ar    1  UNL1       -0.0037
      4 C           3.1869    0.8542   19.2454 C.ar    1  UNL1        0.0515
      5 C           2.8872   -0.5790   19.5709 C.ar    1  UNL1        0.0215
      6 C           3.9642   -1.6163   19.4515 C.ar    1  UNL1        0.1065
      7 N           2.3347    2.0884   19.2697 N.am    1  UNL1       -0.2430
      8 C           0.8867    2.1525   19.6560 C.2     1  UNL1        0.3114
      9 O           0.1639    0.9037   20.0663 O.2     1  UNL1       -0.2519
     10 N           0.1615    3.4653   19.6321 N.am    1  UNL1       -0.2678
     11 C           3.1846    3.2472   18.8398 C.3     1  UNL1        0.1045
     12 C           4.5621    2.7292   18.5498 C.3     1  UNL1        0.0496
     13 H           0.6359    4.2848   19.3629 H       1  UNL1        0.1564
     14 C          -1.2865    3.5294   20.0185 C.ar    1  UNL1        0.0546
     15 C          -2.3469    3.5218   18.9576 C.ar    1  UNL1        0.0519
     16 C          -3.7948    3.5860   19.3441 C.ar    1  UNL1        0.1480
     17 C          -4.1823    3.6578   20.7914 C.ar    1  UNL1        0.0373
     18 C          -3.1220    3.6654   21.8523 C.ar    1  UNL1        0.0057
     19 C          -1.6740    3.6012   21.4658 C.ar    1  UNL1        0.0150
     20 C          -3.5095    3.7372   23.2995 C.ar    1  UNL1        0.0193
     21 C          -4.9427    3.9601   23.6821 C.ar    1  UNL1        0.0031
     22 C          -5.3302    4.0319   25.1294 C.ar    1  UNL1        0.0207
     23 C          -4.2845    3.8807   26.1941 C.ar    1  UNL1        0.0989
     24 N          -2.8514    3.6577   25.8116 N.ar    1  UNL1       -0.2423
     25 C          -2.4639    3.5860   24.3643 C.ar    1  UNL1        0.0988
     26 O          -4.8553    3.5784   18.2832 O.3     1  UNL1       -0.4044
     27 C          -6.2679    3.9426   18.6323 C.3     1  UNL1        0.5753
     28 F          -7.6806    4.3066   18.9814 F       1  UNL1       -0.1328
     29 F          -5.9205    5.3976   18.5207 F       1  UNL1       -0.1328
     30 F          -6.6154    2.4876   18.7439 F       1  UNL1       -0.1328
     31 C           3.6645   -3.0495   19.7770 C.3     1  UNL1        0.4214
     32 F           3.3648   -4.4827   20.1025 F       1  UNL1       -0.1657
     33 F           3.8146   -2.7489   21.2389 F       1  UNL1       -0.1657
     34 F           3.5145   -3.3502   18.3152 F       1  UNL1       -0.1657
     35 C           7.3409   -2.5164   20.0408 C.3     1  UNL1        0.2525
     36 O           6.4178   -2.2575   18.8872 O.3     1  UNL1       -0.4715
@<TRIPOS>BOND
     1    35    36    1
     2    36     1    1
     3     1     2   ar
     4     2     3   ar
     5     3     4   ar
     6     4     5   ar
     7     5     6   ar
     8     6    31    1
     9    31    32    1
    10    31    33    1
    11    31    34    1
    12     4     7    1
    13     7     8   am
    14     8     9    2
    15     8    10   am
    16    10    14    1
    17    14    15   ar
    18    15    16   ar
    19    16    26    1
    20    26    27    1
    21    27    28    1
    22    27    29    1
    23    27    30    1
    24    16    17   ar
    25    17    18   ar
    26    18    20    1
    27    20    21   ar
    28    21    22   ar
    29    22    23   ar
    30    23    24   ar
    31    24    25   ar
    32    18    19   ar
    33     7    11    1
    34    11    12    1
    35     6     1   ar
    36    19    14   ar
    37    12     3    1
    38    25    20   ar
    39    10    13    1
