@<TRIPOS>MOLECULE
*****
 29 31 0 0 0
SMALL
GASTEIGER

@<TRIPOS>ATOM
      1 C         -10.1174  -19.2101   21.3795 C.ar    1  UNL1        0.0303
      2 C          -8.6920  -18.7447   21.4171 C.ar    1  UNL1        0.0147
      3 C          -7.8099  -18.9323   20.2186 C.ar    1  UNL1        0.0505
      4 C          -8.3532  -19.5854   18.9824 C.ar    1  UNL1        0.0170
      5 C          -9.7786  -20.0509   18.9447 C.ar    1  UNL1        0.0307
      6 C         -10.6607  -19.8632   20.1432 C.ar    1  UNL1        0.1383
      7 F         -12.0862  -20.3287   20.1056 F       1  UNL1       -0.2044
      8 C         -10.0875  -20.0969   23.0916 C.3     1  UNL1        0.0336
      9 C         -10.9996  -19.0224   22.5781 C.3     1  UNL1        0.1262
     10 C         -11.6053  -18.0132   21.6483 C.2     1  UNL1        0.0068
     11 C         -12.7764  -17.1894   22.0954 C.2     1  UNL1        0.0357
     12 S         -13.3418  -17.3750   23.4724 S.3     1  UNL1       -0.0536
     13 C         -12.7362  -18.3842   24.4021 C.2     1  UNL1        0.1526
     14 N         -13.3016  -18.5697   25.7791 N.pl3   1  UNL1       -0.3378
     15 N         -11.5650  -19.2080   23.9550 N.2     1  UNL1       -0.2464
     16 H         -14.0702  -18.0291   26.0725 H       1  UNL1        0.1442
     17 H         -12.9040  -19.2321   26.3893 H       1  UNL1        0.1442
     18 N          -6.3843  -18.4669   20.2562 N.am    1  UNL1       -0.2791
     19 C          -5.2677  -19.4682   20.2359 C.2     1  UNL1        0.2672
     20 O          -5.5765  -20.9350   20.1779 O.2     1  UNL1       -0.2682
     21 H          -6.1817  -17.5042   20.2943 H       1  UNL1        0.1552
     22 C          -3.8422  -19.0028   20.2735 C.ar    1  UNL1        0.1348
     23 C          -2.9191  -19.4998   21.3463 C.ar    1  UNL1        0.0245
     24 C          -1.4935  -19.0343   21.3838 C.ar    1  UNL1        0.0135
     25 C          -0.9912  -18.0720   20.3487 C.ar    1  UNL1        0.0876
     26 C          -1.9144  -17.5751   19.2759 C.ar    1  UNL1        0.1092
     27 N          -3.3399  -18.0404   19.2383 N.ar    1  UNL1       -0.2385
     28 C           0.4342  -17.6066   20.3863 C.1     1  UNL1        0.1020
     29 N           1.8597  -17.1412   20.4240 N.1     1  UNL1       -0.1908
@<TRIPOS>BOND
     1     9     8    1
     2     9     1    1
     3     1     2   ar
     4     2     3   ar
     5     3    18    1
     6    18    19   am
     7    19    20    2
     8    19    22    1
     9    22    23   ar
    10    23    24   ar
    11    24    25   ar
    12    25    28    1
    13    28    29    3
    14    25    26   ar
    15    26    27   ar
    16     3     4   ar
    17     4     5   ar
    18     5     6   ar
    19     6     7    1
    20     9    10    1
    21    10    11    2
    22    11    12    1
    23    12    13    1
    24    13    14    1
    25    13    15    2
    26    15     9    1
    27     6     1   ar
    28    27    22   ar
    29    18    21    1
    30    14    16    1
    31    14    17    1
@<TRIPOS>MOLECULE
*****
 29 31 0 0 0
SMALL
GASTEIGER

@<TRIPOS>ATOM
      1 C           3.0114    0.6838   18.7805 C.ar    1  UNL1        0.0303
      2 C           1.5957    0.9915   19.1693 C.ar    1  UNL1        0.0147
      3 C           1.1262    2.4150   19.2262 C.ar    1  UNL1        0.0505
      4 C           2.0723    3.5307   18.8943 C.ar    1  UNL1        0.0170
      5 C           3.4879    3.2229   18.5055 C.ar    1  UNL1        0.0307
      6 C           3.9574    1.7995   18.4486 C.ar    1  UNL1        0.1383
      7 F           5.3731    1.4917   18.0598 F       1  UNL1       -0.2044
      8 C           3.3196   -0.4599   17.2587 C.3     1  UNL1        0.0336
      9 C           3.4810   -0.7397   18.7236 C.3     1  UNL1        0.1262
     10 C           3.4793   -0.5252   20.2081 C.2     1  UNL1        0.0068
     11 C           3.8911   -1.6369   21.1270 C.2     1  UNL1        0.0357
     12 S           4.3047   -2.9632   20.5614 S.3     1  UNL1       -0.0536
     13 C           4.3064   -3.1778   19.0768 C.2     1  UNL1        0.1526
     14 N           4.7200   -4.5041   18.5111 N.pl3   1  UNL1       -0.3378
     15 N           3.8945   -2.0660   18.1579 N.2     1  UNL1       -0.2464
     16 H           4.9903   -5.2337   19.1142 H       1  UNL1        0.1442
     17 H           4.7211   -4.6449   17.5368 H       1  UNL1        0.1442
     18 N          -0.2895    2.7228   19.6150 N.am    1  UNL1       -0.2791
     19 C          -0.6514    2.8860   21.0616 C.2     1  UNL1        0.2672
     20 O           0.4024    2.7413   22.1192 O.2     1  UNL1       -0.2682
     21 H          -0.9811    2.8177   18.9209 H       1  UNL1        0.1552
     22 C          -2.0670    3.1938   21.4504 C.ar    1  UNL1        0.1348
     23 C          -2.3630    3.7880   22.7955 C.ar    1  UNL1        0.0245
     24 C          -3.7788    4.0958   23.1843 C.ar    1  UNL1        0.0135
     25 C          -4.8983    3.8094   22.2281 C.ar    1  UNL1        0.0876
     26 C          -4.6023    3.2151   20.8830 C.ar    1  UNL1        0.1092
     27 N          -3.1867    2.9073   20.4942 N.ar    1  UNL1       -0.2385
     28 C          -6.3140    4.1172   22.6170 C.1     1  UNL1        0.1020
     29 N          -7.7296    4.4249   23.0059 N.1     1  UNL1       -0.1908
@<TRIPOS>BOND
     1     9     8    1
     2     9     1    1
     3     1     2   ar
     4     2     3   ar
     5     3    18    1
     6    18    19   am
     7    19    20    2
     8    19    22    1
     9    22    23   ar
    10    23    24   ar
    11    24    25   ar
    12    25    28    1
    13    28    29    3
    14    25    26   ar
    15    26    27   ar
    16     3     4   ar
    17     4     5   ar
    18     5     6   ar
    19     6     7    1
    20     9    10    1
    21    10    11    2
    22    11    12    1
    23    12    13    1
    24    13    14    1
    25    13    15    2
    26    15     9    1
    27     6     1   ar
    28    27    22   ar
    29    18    21    1
    30    14    16    1
    31    14    17    1
@<TRIPOS>MOLECULE
*****
 29 31 0 0 0
SMALL
GASTEIGER

@<TRIPOS>ATOM
      1 C         -11.9427   -6.0049   18.3583 C.ar    1  UNL1        0.0303
      2 C         -12.3348   -4.6214   17.9316 C.ar    1  UNL1        0.0147
      3 C         -11.3487   -3.4962   18.0376 C.ar    1  UNL1        0.0505
      4 C          -9.9704   -3.7544   18.5704 C.ar    1  UNL1        0.0170
      5 C          -9.5784   -5.1379   18.9971 C.ar    1  UNL1        0.0307
      6 C         -10.5645   -6.2632   18.8911 C.ar    1  UNL1        0.1383
      7 F         -10.1725   -7.6468   19.3178 F       1  UNL1       -0.2044
      8 C         -11.8261   -7.6681   17.3894 C.3     1  UNL1        0.0336
      9 C         -12.9289   -7.1303   18.2524 C.3     1  UNL1        0.1262
     10 C         -13.6892   -6.2016   19.1521 C.2     1  UNL1        0.0068
     11 C         -15.0526   -6.5850   19.6461 C.2     1  UNL1        0.0357
     12 S         -15.6557   -7.8972   19.2404 S.3     1  UNL1       -0.0536
     13 C         -14.8955   -8.8258   18.3407 C.2     1  UNL1        0.1526
     14 N         -15.4986  -10.1379   17.9350 N.pl3   1  UNL1       -0.3378
     15 N         -13.5321   -8.4424   17.8466 N.2     1  UNL1       -0.2464
     16 H         -16.3935  -10.3896   18.2592 H       1  UNL1        0.1442
     17 H         -14.9996  -10.7475   17.3444 H       1  UNL1        0.1442
     18 N         -11.7407   -2.1126   17.6109 N.am    1  UNL1       -0.2791
     19 C         -12.7474   -1.3385   18.4093 C.2     1  UNL1        0.2672
     20 O         -13.3620   -1.9480   19.6344 O.2     1  UNL1       -0.2682
     21 H         -11.3373   -1.7126   16.8068 H       1  UNL1        0.1552
     22 C         -13.1394    0.0451   17.9826 C.ar    1  UNL1        0.1348
     23 C         -14.3888    0.6720   18.5267 C.ar    1  UNL1        0.0245
     24 C         -14.7808    2.0556   18.1000 C.ar    1  UNL1        0.0135
     25 C         -13.9235    2.8122   17.1292 C.ar    1  UNL1        0.0876
     26 C         -12.6742    2.1853   16.5851 C.ar    1  UNL1        0.1092
     27 N         -12.2821    0.8018   17.0118 N.ar    1  UNL1       -0.2385
     28 C         -14.3156    4.1957   16.7026 C.1     1  UNL1        0.1020
     29 N         -14.7076    5.5793   16.2759 N.1     1  UNL1       -0.1908
@<TRIPOS>BOND
     1     9     8    1
     2     9     1    1
     3     1     2   ar
     4     2     3   ar
     5     3    18    1
     6    18    19   am
     7    19    20    2
     8    19    22    1
     9    22    23   ar
    10    23    24   ar
    11    24    25   ar
    12    25    28    1
    13    28    29    3
    14    25    26   ar
    15    26    27   ar
    16     3     4   ar
    17     4     5   ar
    18     5     6   ar
    19     6     7    1
    20     9    10    1
    21    10    11    2
    22    11    12    1
    23    12    13    1
    24    13    14    1
    25    13    15    2
    26    15     9    1
    27     6     1   ar
    28    27    22   ar
    29    18    21    1
    30    14    16    1
    31    14    17    1
@<TRIPOS>MOLECULE
*****
 29 31 0 0 0
SMALL
GASTEIGER

@<TRIPOS>ATOM
      1 C           3.2880   -0.8613   19.7914 C.ar    1  UNL1        0.0303
      2 C           2.3069   -0.4144   20.8344 C.ar    1  UNL1        0.0147
      3 C           1.1719    0.4909   20.4574 C.ar    1  UNL1        0.0505
      4 C           1.0180    0.9494   19.0375 C.ar    1  UNL1        0.0170
      5 C           1.9991    0.5026   17.9946 C.ar    1  UNL1        0.0307
      6 C           3.1341   -0.4027   18.3715 C.ar    1  UNL1        0.1383
      7 F           4.1152   -0.8496   17.3286 F       1  UNL1       -0.2044
      8 C           3.4107   -2.7849   19.7344 C.3     1  UNL1        0.0336
      9 C           4.4230   -1.7666   20.1683 C.3     1  UNL1        0.1262
     10 C           5.0412   -0.4340   20.4714 C.2     1  UNL1        0.0068
     11 C           6.4428   -0.3603   21.0006 C.2     1  UNL1        0.0357
     12 S           7.2262   -1.6193   21.2268 S.3     1  UNL1       -0.0536
     13 C           6.6081   -2.9520   20.9238 C.2     1  UNL1        0.1526
     14 N           7.3915   -4.2110   21.1500 N.pl3   1  UNL1       -0.3378
     15 N           5.2065   -3.0257   20.3945 N.2     1  UNL1       -0.2464
     16 H           8.3114   -4.1627   21.4973 H       1  UNL1        0.1442
     17 H           6.9858   -5.0857   20.9510 H       1  UNL1        0.1442
     18 N           0.1907    0.9378   21.5004 N.am    1  UNL1       -0.2791
     19 C           0.3578    2.2724   22.1644 C.2     1  UNL1        0.2672
     20 O           1.5060    3.1602   21.7853 O.2     1  UNL1       -0.2682
     21 H          -0.5628    0.3551   21.7491 H       1  UNL1        0.1552
     22 C          -0.6233    2.7193   23.2073 C.ar    1  UNL1        0.1348
     23 C          -0.4095    2.3501   24.6453 C.ar    1  UNL1        0.0245
     24 C          -1.3907    2.7970   25.6883 C.ar    1  UNL1        0.0135
     25 C          -2.5856    3.6131   25.2931 C.ar    1  UNL1        0.0876
     26 C          -2.7994    3.9823   23.8551 C.ar    1  UNL1        0.1092
     27 N          -1.8183    3.5355   22.8122 N.ar    1  UNL1       -0.2385
     28 C          -3.5666    4.0600   26.3361 C.1     1  UNL1        0.1020
     29 N          -4.5477    4.5070   27.3790 N.1     1  UNL1       -0.1908
@<TRIPOS>BOND
     1     9     8    1
     2     9     1    1
     3     1     2   ar
     4     2     3   ar
     5     3    18    1
     6    18    19   am
     7    19    20    2
     8    19    22    1
     9    22    23   ar
    10    23    24   ar
    11    24    25   ar
    12    25    28    1
    13    28    29    3
    14    25    26   ar
    15    26    27   ar
    16     3     4   ar
    17     4     5   ar
    18     5     6   ar
    19     6     7    1
    20     9    10    1
    21    10    11    2
    22    11    12    1
    23    12    13    1
    24    13    14    1
    25    13    15    2
    26    15     9    1
    27     6     1   ar
    28    27    22   ar
    29    18    21    1
    30    14    16    1
    31    14    17    1
@<TRIPOS>MOLECULE
*****
 29 31 0 0 0
SMALL
GASTEIGER

@<TRIPOS>ATOM
      1 C         -12.8479   -3.9725   18.6848 C.ar    1  UNL1        0.0303
      2 C         -13.8376   -2.8951   18.3538 C.ar    1  UNL1        0.0147
      3 C         -13.3990   -1.4613   18.3109 C.ar    1  UNL1        0.0505
      4 C         -11.9707   -1.1049   18.5989 C.ar    1  UNL1        0.0170
      5 C         -10.9810   -2.1824   18.9299 C.ar    1  UNL1        0.0307
      6 C         -11.4196   -3.6161   18.9728 C.ar    1  UNL1        0.1383
      7 F         -10.4299   -4.6937   19.3038 F       1  UNL1       -0.2044
      8 C         -13.6233   -4.9889   20.1286 C.3     1  UNL1        0.0336
      9 C         -13.2865   -5.4063   18.7277 C.3     1  UNL1        0.1262
     10 C         -12.7975   -5.3259   17.3120 C.2     1  UNL1        0.0068
     11 C         -12.8639   -6.5342   16.4257 C.2     1  UNL1        0.0357
     12 S         -13.4195   -7.8230   16.9552 S.3     1  UNL1       -0.0536
     13 C         -13.9085   -7.9035   18.3709 C.2     1  UNL1        0.1526
     14 N         -14.4640   -9.1924   18.9004 N.pl3   1  UNL1       -0.3378
     15 N         -13.8420   -6.6952   19.2572 N.2     1  UNL1       -0.2464
     16 H         -14.5077   -9.9854   18.3187 H       1  UNL1        0.1442
     17 H         -14.7850   -9.2452   19.8296 H       1  UNL1        0.1442
     18 N         -14.3888   -0.3838   17.9799 N.am    1  UNL1       -0.2791
     19 C         -15.5150   -0.0841   18.9242 C.2     1  UNL1        0.2672
     20 O         -15.6516   -0.8621   20.1995 O.2     1  UNL1       -0.2682
     21 H         -14.2991    0.1268   17.1429 H       1  UNL1        0.1552
     22 C         -16.5047    0.9933   18.5933 C.ar    1  UNL1        0.1348
     23 C         -16.0619    2.4251   18.5313 C.ar    1  UNL1        0.0245
     24 C         -17.0517    3.5026   18.2004 C.ar    1  UNL1        0.0135
     25 C         -18.4842    3.1482   17.9314 C.ar    1  UNL1        0.0876
     26 C         -18.9270    1.7164   17.9934 C.ar    1  UNL1        0.1092
     27 N         -17.9373    0.6390   18.3243 N.ar    1  UNL1       -0.2385
     28 C         -19.4739    4.2257   17.6005 C.1     1  UNL1        0.1020
     29 N         -20.4637    5.3032   17.2696 N.1     1  UNL1       -0.1908
@<TRIPOS>BOND
     1     9     8    1
     2     9     1    1
     3     1     2   ar
     4     2     3   ar
     5     3    18    1
     6    18    19   am
     7    19    20    2
     8    19    22    1
     9    22    23   ar
    10    23    24   ar
    11    24    25   ar
    12    25    28    1
    13    28    29    3
    14    25    26   ar
    15    26    27   ar
    16     3     4   ar
    17     4     5   ar
    18     5     6   ar
    19     6     7    1
    20     9    10    1
    21    10    11    2
    22    11    12    1
    23    12    13    1
    24    13    14    1
    25    13    15    2
    26    15     9    1
    27     6     1   ar
    28    27    22   ar
    29    18    21    1
    30    14    16    1
    31    14    17    1
@<TRIPOS>MOLECULE
*****
 29 31 0 0 0
SMALL
GASTEIGER

@<TRIPOS>ATOM
      1 C          -3.1840    4.1874   20.6179 C.ar    1  UNL1        0.0303
      2 C          -2.2166    3.0424   20.6723 C.ar    1  UNL1        0.0147
      3 C          -0.9187    3.1210   19.9246 C.ar    1  UNL1        0.0505
      4 C          -0.5882    4.3447   19.1224 C.ar    1  UNL1        0.0170
      5 C          -1.5557    5.4897   19.0680 C.ar    1  UNL1        0.0307
      6 C          -2.8536    5.4110   19.8157 C.ar    1  UNL1        0.1383
      7 F          -3.8211    6.5561   19.7614 F       1  UNL1       -0.2044
      8 C          -4.8993    3.5085   20.0559 C.3     1  UNL1        0.0336
      9 C          -4.4820    4.1088   21.3657 C.3     1  UNL1        0.1262
     10 C          -3.6141    4.7363   22.4158 C.2     1  UNL1        0.0068
     11 C          -4.1889    5.0768   23.7588 C.2     1  UNL1        0.0357
     12 S          -5.6318    4.7897   24.0517 S.3     1  UNL1       -0.0536
     13 C          -6.4998    4.1622   23.0016 C.2     1  UNL1        0.1526
     14 N          -7.9427    3.8751   23.2944 N.pl3   1  UNL1       -0.3378
     15 N          -5.9249    3.8217   21.6586 N.2     1  UNL1       -0.2464
     16 H          -8.3200    4.0986   24.1759 H       1  UNL1        0.1442
     17 H          -8.5123    3.4632   22.6052 H       1  UNL1        0.1442
     18 N           0.0488    1.9760   19.9789 N.am    1  UNL1       -0.2791
     19 C           0.6226    1.5408   21.2948 C.2     1  UNL1        0.2672
     20 O           0.2288    2.2507   22.5562 O.2     1  UNL1       -0.2682
     21 H           0.3072    1.5101   19.1510 H       1  UNL1        0.1552
     22 C           1.5900    0.3958   21.3492 C.ar    1  UNL1        0.1348
     23 C           1.7743   -0.4879   20.1513 C.ar    1  UNL1        0.0245
     24 C           2.7419   -1.6330   20.2058 C.ar    1  UNL1        0.0135
     25 C           3.5250   -1.8942   21.4581 C.ar    1  UNL1        0.0876
     26 C           3.3407   -1.0104   22.6560 C.ar    1  UNL1        0.1092
     27 N           2.3733    0.1346   22.6016 N.ar    1  UNL1       -0.2385
     28 C           4.4925   -3.0391   21.5125 C.1     1  UNL1        0.1020
     29 N           5.4600   -4.1842   21.5669 N.1     1  UNL1       -0.1908
@<TRIPOS>BOND
     1     9     8    1
     2     9     1    1
     3     1     2   ar
     4     2     3   ar
     5     3    18    1
     6    18    19   am
     7    19    20    2
     8    19    22    1
     9    22    23   ar
    10    23    24   ar
    11    24    25   ar
    12    25    28    1
    13    28    29    3
    14    25    26   ar
    15    26    27   ar
    16     3     4   ar
    17     4     5   ar
    18     5     6   ar
    19     6     7    1
    20     9    10    1
    21    10    11    2
    22    11    12    1
    23    12    13    1
    24    13    14    1
    25    13    15    2
    26    15     9    1
    27     6     1   ar
    28    27    22   ar
    29    18    21    1
    30    14    16    1
    31    14    17    1
@<TRIPOS>MOLECULE
*****
 29 31 0 0 0
SMALL
GASTEIGER

@<TRIPOS>ATOM
      1 C           2.7427   -0.0983   20.1318 C.ar    1  UNL1        0.0303
      2 C           2.4944   -0.0451   21.6101 C.ar    1  UNL1        0.0147
      3 C           1.2522    0.6087   22.1389 C.ar    1  UNL1        0.0505
      4 C           0.2584    1.2092   21.1893 C.ar    1  UNL1        0.0170
      5 C           0.5067    1.1559   19.7110 C.ar    1  UNL1        0.0307
      6 C           1.7488    0.5022   19.1823 C.ar    1  UNL1        0.1383
      7 F           1.9972    0.4489   17.7039 F       1  UNL1       -0.2044
      8 C           4.4568    0.6689   19.6938 C.3     1  UNL1        0.0336
      9 C           3.9849   -0.7521   19.6030 C.3     1  UNL1        0.1262
     10 C           3.0815   -1.9459   19.6958 C.2     1  UNL1        0.0068
     11 C           3.5843   -3.3001   19.2914 C.2     1  UNL1        0.0357
     12 S           4.9904   -3.4603   18.7941 S.3     1  UNL1       -0.0536
     13 C           5.8937   -2.2665   18.7013 C.2     1  UNL1        0.1526
     14 N           7.2998   -2.4267   18.2040 N.pl3   1  UNL1       -0.3378
     15 N           5.3910   -0.9123   19.1057 N.2     1  UNL1       -0.2464
     16 H           7.6298   -3.3155   17.9386 H       1  UNL1        0.1442
     17 H           7.8927   -1.6431   18.1431 H       1  UNL1        0.1442
     18 N           1.0038    0.6620   23.6173 N.am    1  UNL1       -0.2791
     19 C           1.6046    1.7633   24.4395 C.2     1  UNL1        0.2672
     20 O           2.4537    2.8115   23.7833 O.2     1  UNL1       -0.2682
     21 H           0.4465   -0.0260   24.0479 H       1  UNL1        0.1552
     22 C           1.3563    1.8167   25.9178 C.ar    1  UNL1        0.1348
     23 C           0.0423    1.3548   26.4747 C.ar    1  UNL1        0.0245
     24 C          -0.2060    1.4081   27.9531 C.ar    1  UNL1        0.0135
     25 C           0.8597    1.9233   28.8745 C.ar    1  UNL1        0.0876
     26 C           2.1736    2.3852   28.3176 C.ar    1  UNL1        0.1092
     27 N           2.4220    2.3319   26.8392 N.ar    1  UNL1       -0.2385
     28 C           0.6114    1.9766   30.3528 C.1     1  UNL1        0.1020
     29 N           0.3630    2.0300   31.8312 N.1     1  UNL1       -0.1908
@<TRIPOS>BOND
     1     9     8    1
     2     9     1    1
     3     1     2   ar
     4     2     3   ar
     5     3    18    1
     6    18    19   am
     7    19    20    2
     8    19    22    1
     9    22    23   ar
    10    23    24   ar
    11    24    25   ar
    12    25    28    1
    13    28    29    3
    14    25    26   ar
    15    26    27   ar
    16     3     4   ar
    17     4     5   ar
    18     5     6   ar
    19     6     7    1
    20     9    10    1
    21    10    11    2
    22    11    12    1
    23    12    13    1
    24    13    14    1
    25    13    15    2
    26    15     9    1
    27     6     1   ar
    28    27    22   ar
    29    18    21    1
    30    14    16    1
    31    14    17    1
@<TRIPOS>MOLECULE
*****
 29 31 0 0 0
SMALL
GASTEIGER

@<TRIPOS>ATOM
      1 C          -9.9531  -19.1563   21.1529 C.ar    1  UNL1        0.0303
      2 C          -8.5267  -18.6933   21.1858 C.ar    1  UNL1        0.0147
      3 C          -7.6435  -18.8997   19.9911 C.ar    1  UNL1        0.0505
      4 C          -8.1867  -19.5691   18.7636 C.ar    1  UNL1        0.0170
      5 C          -9.6130  -20.0321   18.7307 C.ar    1  UNL1        0.0307
      6 C         -10.4962  -19.8257   19.9254 C.ar    1  UNL1        0.1383
      7 F         -11.9227  -20.2886   19.8926 F       1  UNL1       -0.2044
      8 C         -11.6607  -18.2715   21.2939 C.3     1  UNL1        0.0336
      9 C         -10.8363  -18.9498   22.3477 C.3     1  UNL1        0.1262
     10 C          -9.7053  -19.6999   22.9864 C.2     1  UNL1        0.0068
     11 C          -9.7437  -20.0079   24.4540 C.2     1  UNL1        0.0357
     12 S         -10.9133  -19.5659   25.2827 S.3     1  UNL1       -0.0536
     13 C         -12.0443  -18.8158   24.6439 C.2     1  UNL1        0.1526
     14 N         -13.2139  -18.3738   25.4727 N.pl3   1  UNL1       -0.3378
     15 N         -12.0059  -18.5078   23.1764 N.2     1  UNL1       -0.2464
     16 H         -13.2392  -18.5760   26.4358 H       1  UNL1        0.1442
     17 H         -13.9563  -17.8815   25.0534 H       1  UNL1        0.1442
     18 N          -6.2171  -18.4368   20.0239 N.am    1  UNL1       -0.2791
     19 C          -5.1084  -19.4342   20.1846 C.2     1  UNL1        0.2672
     20 O          -5.4261  -20.8946   20.3125 O.2     1  UNL1       -0.2682
     21 H          -6.0086  -17.4782   19.9400 H       1  UNL1        0.1552
     22 C          -3.6820  -18.9713   20.2174 C.ar    1  UNL1        0.1348
     23 C          -2.7589  -19.4616   21.2933 C.ar    1  UNL1        0.0245
     24 C          -1.3325  -18.9987   21.3261 C.ar    1  UNL1        0.0135
     25 C          -0.8292  -18.0454   20.2830 C.ar    1  UNL1        0.0876
     26 C          -1.7523  -17.5551   19.2072 C.ar    1  UNL1        0.1092
     27 N          -3.1786  -18.0180   19.1743 N.ar    1  UNL1       -0.2385
     28 C           0.5972  -17.5825   20.3159 C.1     1  UNL1        0.1020
     29 N           2.0237  -17.1196   20.3486 N.1     1  UNL1       -0.1908
@<TRIPOS>BOND
     1     9     8    1
     2     9     1    1
     3     1     2   ar
     4     2     3   ar
     5     3    18    1
     6    18    19   am
     7    19    20    2
     8    19    22    1
     9    22    23   ar
    10    23    24   ar
    11    24    25   ar
    12    25    28    1
    13    28    29    3
    14    25    26   ar
    15    26    27   ar
    16     3     4   ar
    17     4     5   ar
    18     5     6   ar
    19     6     7    1
    20     9    10    1
    21    10    11    2
    22    11    12    1
    23    12    13    1
    24    13    14    1
    25    13    15    2
    26    15     9    1
    27     6     1   ar
    28    27    22   ar
    29    18    21    1
    30    14    16    1
    31    14    17    1
@<TRIPOS>MOLECULE
*****
 29 31 0 0 0
SMALL
GASTEIGER

@<TRIPOS>ATOM
      1 C          -4.9223    4.8008   22.6063 C.ar    1  UNL1        0.0303
      2 C          -3.8688    3.7881   22.2681 C.ar    1  UNL1        0.0147
      3 C          -3.5496    3.4883   20.8335 C.ar    1  UNL1        0.0505
      4 C          -4.2841    4.2013   19.7370 C.ar    1  UNL1        0.0170
      5 C          -5.3377    5.2140   20.0751 C.ar    1  UNL1        0.0307
      6 C          -5.6568    5.5137   21.5098 C.ar    1  UNL1        0.1383
      7 F          -6.7104    6.5265   21.8480 F       1  UNL1       -0.2044
      8 C          -6.2675    4.0426   23.7615 C.3     1  UNL1        0.0336
      9 C          -5.2415    5.1006   24.0410 C.3     1  UNL1        0.1262
     10 C          -4.1048    6.0545   23.8222 C.2     1  UNL1        0.0068
     11 C          -3.6434    6.9407   24.9411 C.2     1  UNL1        0.0357
     12 S          -4.3190    6.8730   26.2787 S.3     1  UNL1       -0.0536
     13 C          -5.4557    5.9192   26.4974 C.2     1  UNL1        0.1526
     14 N          -6.1312    5.8516   27.8350 N.pl3   1  UNL1       -0.3378
     15 N          -5.9170    5.0330   25.3786 N.2     1  UNL1       -0.2464
     16 H          -5.8285    6.4332   28.5694 H       1  UNL1        0.1442
     17 H          -6.8774    5.2255   27.9786 H       1  UNL1        0.1442
     18 N          -2.4960    2.4756   20.4953 N.am    1  UNL1       -0.2791
     19 C          -1.0661    2.9028   20.3441 C.2     1  UNL1        0.2672
     20 O          -0.6899    4.3428   20.5312 O.2     1  UNL1       -0.2682
     21 H          -2.7430    1.5305   20.3725 H       1  UNL1        0.1552
     22 C          -0.0125    1.8902   20.0060 C.ar    1  UNL1        0.1348
     23 C           1.0503    2.2208   19.0004 C.ar    1  UNL1        0.0245
     24 C           2.1039    1.2081   18.6622 C.ar    1  UNL1        0.0135
     25 C           2.0947   -0.1352   19.3296 C.ar    1  UNL1        0.0876
     26 C           1.0319   -0.4658   20.3352 C.ar    1  UNL1        0.1092
     27 N          -0.0217    0.5468   20.6734 N.ar    1  UNL1       -0.2385
     28 C           3.1483   -1.1479   18.9914 C.1     1  UNL1        0.1020
     29 N           4.2020   -2.1605   18.6532 N.1     1  UNL1       -0.1908
@<TRIPOS>BOND
     1     9     8    1
     2     9     1    1
     3     1     2   ar
     4     2     3   ar
     5     3    18    1
     6    18    19   am
     7    19    20    2
     8    19    22    1
     9    22    23   ar
    10    23    24   ar
    11    24    25   ar
    12    25    28    1
    13    28    29    3
    14    25    26   ar
    15    26    27   ar
    16     3     4   ar
    17     4     5   ar
    18     5     6   ar
    19     6     7    1
    20     9    10    1
    21    10    11    2
    22    11    12    1
    23    12    13    1
    24    13    14    1
    25    13    15    2
    26    15     9    1
    27     6     1   ar
    28    27    22   ar
    29    18    21    1
    30    14    16    1
    31    14    17    1
