@<TRIPOS>MOLECULE
*****
 20 22 0 0 0
SMALL
GASTEIGER

@<TRIPOS>ATOM
      1 C          -9.6815  -17.8505   21.3705 C.ar    1  UNL1        0.0538
      2 C         -10.7307  -18.3218   20.4077 C.ar    1  UNL1        0.1019
      3 N         -12.0634  -17.6353   20.3557 N.ar    1  UNL1       -0.2422
      4 C         -12.3469  -16.4777   21.2664 C.ar    1  UNL1        0.0989
      5 C         -11.2977  -16.0064   22.2292 C.ar    1  UNL1        0.0209
      6 C          -9.9650  -16.6928   22.2813 C.ar    1  UNL1        0.0091
      7 C          -6.0617  -19.1784   20.9244 C.ar    1  UNL1        0.1385
      8 C          -6.5342  -20.0081   22.0813 C.ar    1  UNL1        0.0375
      9 C          -7.9477  -19.6116   22.3892 C.ar    1  UNL1        0.0404
     10 C          -8.3488  -18.5369   21.4226 C.ar    1  UNL1        0.1464
     11 O          -7.1831  -18.2692   20.5173 O.2     1  UNL1       -0.4563
     12 N          -4.3016  -18.2171   19.2727 N.3     1  UNL1       -0.3148
     13 C          -4.7057  -19.2460   20.2865 C.3     1  UNL1        0.1307
     14 H          -3.3558  -18.4148   18.9460 H       1  UNL1        0.1192
     15 H          -4.3273  -17.2909   19.6994 H       1  UNL1        0.1192
     16 C          -8.9157  -16.2216   23.2441 C.ar    1  UNL1        0.0410
     17 C          -8.8890  -16.4895   24.7197 C.ar    1  UNL1        0.0438
     18 C          -7.6657  -15.8332   25.2879 C.ar    1  UNL1        0.1798
     19 O          -6.9364  -15.1596   24.1634 O.2     1  UNL1       -0.4473
     20 C          -7.7089  -15.3997   22.9003 C.ar    1  UNL1        0.1797
@<TRIPOS>BOND
     1    12    13    1
     2    13     7    1
     3     7     8   ar
     4     8     9   ar
     5     9    10   ar
     6    10     1    1
     7     1     2   ar
     8     2     3   ar
     9     3     4   ar
    10     4     5   ar
    11     5     6   ar
    12     6    16    1
    13    16    17   ar
    14    17    18   ar
    15    18    19   ar
    16    19    20   ar
    17    10    11   ar
    18    11     7   ar
    19     6     1   ar
    20    20    16   ar
    21    12    14    1
    22    12    15    1
@<TRIPOS>MOLECULE
*****
 20 22 0 0 0
SMALL
GASTEIGER

@<TRIPOS>ATOM
      1 C          -9.8082  -16.6248   21.9894 C.ar    1  UNL1        0.0538
      2 C         -10.1179  -15.6122   20.9271 C.ar    1  UNL1        0.1019
      3 N         -10.9965  -15.9842   19.7697 N.ar    1  UNL1       -0.2422
      4 C         -11.5652  -17.3689   19.6745 C.ar    1  UNL1        0.0989
      5 C         -11.2555  -18.3816   20.7368 C.ar    1  UNL1        0.0209
      6 C         -10.3770  -18.0095   21.8943 C.ar    1  UNL1        0.0091
      7 C          -6.9731  -15.7407   24.4887 C.ar    1  UNL1        0.1385
      8 C          -8.1825  -15.6200   25.3678 C.ar    1  UNL1        0.0375
      9 C          -9.3917  -15.9365   24.5386 C.ar    1  UNL1        0.0404
     10 C          -8.9297  -16.2528   23.1470 C.ar    1  UNL1        0.1464
     11 O          -7.4349  -16.1318   23.1162 O.2     1  UNL1       -0.4563
     12 N          -5.2319  -14.4609   25.9311 N.3     1  UNL1       -0.3148
     13 C          -5.5515  -15.5106   24.9084 C.3     1  UNL1        0.1307
     14 H          -4.2254  -14.4413   26.0951 H       1  UNL1        0.1192
     15 H          -5.7143  -14.6779   26.8032 H       1  UNL1        0.1192
     16 C         -10.0672  -19.0222   22.9567 C.ar    1  UNL1        0.0410
     17 C         -10.8816  -19.2850   24.1886 C.ar    1  UNL1        0.0438
     18 C         -10.2064  -20.3751   24.9669 C.ar    1  UNL1        0.1798
     19 O          -8.9746  -20.7860   24.2159 O.2     1  UNL1       -0.4473
     20 C          -8.8886  -19.9499   22.9736 C.ar    1  UNL1        0.1797
@<TRIPOS>BOND
     1    12    13    1
     2    13     7    1
     3     7     8   ar
     4     8     9   ar
     5     9    10   ar
     6    10     1    1
     7     1     2   ar
     8     2     3   ar
     9     3     4   ar
    10     4     5   ar
    11     5     6   ar
    12     6    16    1
    13    16    17   ar
    14    17    18   ar
    15    18    19   ar
    16    19    20   ar
    17    10    11   ar
    18    11     7   ar
    19     6     1   ar
    20    20    16   ar
    21    12    14    1
    22    12    15    1
@<TRIPOS>MOLECULE
*****
 20 22 0 0 0
SMALL
GASTEIGER

@<TRIPOS>ATOM
      1 C          -7.9002  -18.8256   21.2104 C.ar    1  UNL1        0.0538
      2 C          -7.3106  -19.8563   20.2939 C.ar    1  UNL1        0.1019
      3 N          -5.8600  -20.2201   20.4088 N.ar    1  UNL1       -0.2422
      4 C          -4.9989  -19.5532   21.4403 C.ar    1  UNL1        0.0989
      5 C          -5.5886  -18.5226   22.3568 C.ar    1  UNL1        0.0209
      6 C          -7.0392  -18.1588   22.2419 C.ar    1  UNL1        0.0091
      7 C         -11.3925  -17.2118   20.6952 C.ar    1  UNL1        0.1385
      8 C         -11.7740  -18.5920   21.1419 C.ar    1  UNL1        0.0375
      9 C         -10.5123  -19.3645   21.3892 C.ar    1  UNL1        0.0404
     10 C          -9.3509  -18.4617   21.0954 C.ar    1  UNL1        0.1464
     11 O          -9.8949  -17.1313   20.6665 O.2     1  UNL1       -0.4563
     12 N         -12.3023  -15.4949   18.9705 N.3     1  UNL1       -0.3148
     13 C         -12.3418  -16.1062   20.3397 C.3     1  UNL1        0.1307
     14 H         -13.0107  -14.7642   18.9038 H       1  UNL1        0.1192
     15 H         -12.4887  -16.2141   18.2716 H       1  UNL1        0.1192
     16 C          -7.6289  -17.1281   23.1584 C.ar    1  UNL1        0.0410
     17 C          -8.8011  -17.3284   24.0725 C.ar    1  UNL1        0.0438
     18 C          -9.0465  -16.0402   24.8008 C.ar    1  UNL1        0.1798
     19 O          -8.0259  -15.0437   24.3367 O.2     1  UNL1       -0.4473
     20 C          -7.1498  -15.7160   23.3217 C.ar    1  UNL1        0.1797
@<TRIPOS>BOND
     1    12    13    1
     2    13     7    1
     3     7     8   ar
     4     8     9   ar
     5     9    10   ar
     6    10     1    1
     7     1     2   ar
     8     2     3   ar
     9     3     4   ar
    10     4     5   ar
    11     5     6   ar
    12     6    16    1
    13    16    17   ar
    14    17    18   ar
    15    18    19   ar
    16    19    20   ar
    17    10    11   ar
    18    11     7   ar
    19     6     1   ar
    20    20    16   ar
    21    12    14    1
    22    12    15    1
@<TRIPOS>MOLECULE
*****
 20 22 0 0 0
SMALL
GASTEIGER

@<TRIPOS>ATOM
      1 C          -8.4906  -17.8927   21.6704 C.ar    1  UNL1        0.0538
      2 C          -7.2941  -18.4794   20.9819 C.ar    1  UNL1        0.1019
      3 N          -7.4762  -19.3536   19.7767 N.ar    1  UNL1       -0.2422
      4 C          -8.8547  -19.6411   19.2600 C.ar    1  UNL1        0.0989
      5 C         -10.0512  -19.0544   19.9486 C.ar    1  UNL1        0.0209
      6 C          -9.8691  -18.1802   21.1538 C.ar    1  UNL1        0.0091
      7 C          -8.2708  -16.2297   25.1707 C.ar    1  UNL1        0.1385
      8 C          -7.7860  -15.1164   24.2900 C.ar    1  UNL1        0.0375
      9 C          -7.8094  -15.6039   22.8716 C.ar    1  UNL1        0.0404
     10 C          -8.3085  -17.0184   22.8757 C.ar    1  UNL1        0.1464
     11 O          -8.5937  -17.4052   24.2967 O.2     1  UNL1       -0.4563
     12 N          -8.1387  -14.8963   27.3966 N.3     1  UNL1       -0.3148
     13 C          -8.4085  -16.1768   26.6635 C.3     1  UNL1        0.1307
     14 H          -8.2793  -15.0409   28.3965 H       1  UNL1        0.1192
     15 H          -8.7771  -14.1734   27.0645 H       1  UNL1        0.1192
     16 C         -11.0657  -17.5934   21.8424 C.ar    1  UNL1        0.0410
     17 C         -11.9941  -18.3206   22.7693 C.ar    1  UNL1        0.0438
     18 C         -13.0460  -17.3531   23.2248 C.ar    1  UNL1        0.1798
     19 O         -12.7676  -16.0279   22.5793 O.2     1  UNL1       -0.4473
     20 C         -11.5437  -16.1765   21.7250 C.ar    1  UNL1        0.1797
@<TRIPOS>BOND
     1    12    13    1
     2    13     7    1
     3     7     8   ar
     4     8     9   ar
     5     9    10   ar
     6    10     1    1
     7     1     2   ar
     8     2     3   ar
     9     3     4   ar
    10     4     5   ar
    11     5     6   ar
    12     6    16    1
    13    16    17   ar
    14    17    18   ar
    15    18    19   ar
    16    19    20   ar
    17    10    11   ar
    18    11     7   ar
    19     6     1   ar
    20    20    16   ar
    21    12    14    1
    22    12    15    1
@<TRIPOS>MOLECULE
*****
 20 22 0 0 0
SMALL
GASTEIGER

@<TRIPOS>ATOM
      1 C          -9.8738  -18.3787   21.4485 C.ar    1  UNL1        0.0538
      2 C          -9.9469  -19.3126   20.2770 C.ar    1  UNL1        0.1019
      3 N          -8.6866  -19.7865   19.6160 N.ar    1  UNL1       -0.2422
      4 C          -7.3532  -19.3264   20.1264 C.ar    1  UNL1        0.0989
      5 C          -7.2802  -18.3925   21.2979 C.ar    1  UNL1        0.0209
      6 C          -8.5405  -17.9187   21.9590 C.ar    1  UNL1        0.0091
      7 C         -13.1628  -17.8508   23.4410 C.ar    1  UNL1        0.1385
      8 C         -12.9844  -16.5003   22.8130 C.ar    1  UNL1        0.0375
      9 C         -11.7306  -16.5337   21.9903 C.ar    1  UNL1        0.0404
     10 C         -11.1342  -17.9048   22.1097 C.ar    1  UNL1        0.1464
     11 O         -12.0193  -18.7189   23.0063 O.2     1  UNL1       -0.4563
     12 N         -14.0091  -18.6109   25.7768 N.3     1  UNL1       -0.3148
     13 C         -14.2873  -18.2613   24.3449 C.3     1  UNL1        0.1307
     14 H         -14.8815  -18.8646   26.2405 H       1  UNL1        0.1192
     15 H         -13.5944  -17.8073   26.2486 H       1  UNL1        0.1192
     16 C          -8.4675  -16.9847   23.1306 C.ar    1  UNL1        0.0410
     17 C          -9.0207  -17.2439   24.5005 C.ar    1  UNL1        0.0438
     18 C          -8.7236  -16.0470   25.3544 C.ar    1  UNL1        0.1798
     19 O          -7.9867  -15.0481   24.5122 O.2     1  UNL1       -0.4473
     20 C          -7.8285  -15.6277   23.1378 C.ar    1  UNL1        0.1797
@<TRIPOS>BOND
     1    12    13    1
     2    13     7    1
     3     7     8   ar
     4     8     9   ar
     5     9    10   ar
     6    10     1    1
     7     1     2   ar
     8     2     3   ar
     9     3     4   ar
    10     4     5   ar
    11     5     6   ar
    12     6    16    1
    13    16    17   ar
    14    17    18   ar
    15    18    19   ar
    16    19    20   ar
    17    10    11   ar
    18    11     7   ar
    19     6     1   ar
    20    20    16   ar
    21    12    14    1
    22    12    15    1
@<TRIPOS>MOLECULE
*****
 20 22 0 0 0
SMALL
GASTEIGER

@<TRIPOS>ATOM
      1 C          -9.9216  -16.9667   22.5290 C.ar    1  UNL1        0.0538
      2 C         -11.2273  -16.2315   22.5965 C.ar    1  UNL1        0.1019
      3 N         -12.4000  -16.7102   21.7931 N.ar    1  UNL1       -0.2422
      4 C         -12.2669  -17.9242   20.9221 C.ar    1  UNL1        0.0989
      5 C         -10.9613  -18.6594   20.8546 C.ar    1  UNL1        0.0209
      6 C          -9.7886  -18.1807   21.6581 C.ar    1  UNL1        0.0091
      7 C          -6.5205  -15.7506   23.9501 C.ar    1  UNL1        0.1385
      8 C          -7.3680  -15.7519   25.1878 C.ar    1  UNL1        0.0375
      9 C          -8.7451  -16.2077   24.8061 C.ar    1  UNL1        0.0404
     10 C          -8.7488  -16.4879   23.3325 C.ar    1  UNL1        0.1464
     11 O          -7.3740  -16.2054   22.8035 O.2     1  UNL1       -0.4563
     12 N          -4.6023  -14.4370   22.7903 N.3     1  UNL1       -0.3148
     13 C          -5.0737  -15.3624   23.8726 C.3     1  UNL1        0.1307
     14 H          -3.5989  -14.2825   22.8883 H       1  UNL1        0.1192
     15 H          -5.0927  -13.5459   22.8675 H       1  UNL1        0.1192
     16 C          -8.4828  -18.9159   21.5906 C.ar    1  UNL1        0.0410
     17 C          -7.9503  -19.8639   22.6239 C.ar    1  UNL1        0.0438
     18 C          -6.6188  -20.3661   22.1499 C.ar    1  UNL1        0.1798
     19 O          -6.3283  -19.7284   20.8235 O.2     1  UNL1       -0.4473
     20 C          -7.4803  -18.8322   20.4779 C.ar    1  UNL1        0.1797
@<TRIPOS>BOND
     1    12    13    1
     2    13     7    1
     3     7     8   ar
     4     8     9   ar
     5     9    10   ar
     6    10     1    1
     7     1     2   ar
     8     2     3   ar
     9     3     4   ar
    10     4     5   ar
    11     5     6   ar
    12     6    16    1
    13    16    17   ar
    14    17    18   ar
    15    18    19   ar
    16    19    20   ar
    17    10    11   ar
    18    11     7   ar
    19     6     1   ar
    20    20    16   ar
    21    12    14    1
    22    12    15    1
@<TRIPOS>MOLECULE
*****
 20 22 0 0 0
SMALL
GASTEIGER

@<TRIPOS>ATOM
      1 C          -9.8220  -16.7599   22.0204 C.ar    1  UNL1        0.0538
      2 C         -11.0519  -15.9666   21.6920 C.ar    1  UNL1        0.1019
      3 N         -11.9748  -16.4298   20.6041 N.ar    1  UNL1       -0.2422
      4 C         -11.6677  -17.6863   19.8445 C.ar    1  UNL1        0.0989
      5 C         -10.4378  -18.4796   20.1729 C.ar    1  UNL1        0.0209
      6 C          -9.5149  -18.0164   21.2608 C.ar    1  UNL1        0.0091
      7 C          -7.9314  -15.8894   25.2966 C.ar    1  UNL1        0.1385
      8 C          -7.0260  -15.2784   24.2685 C.ar    1  UNL1        0.0375
      9 C          -7.6241  -15.5301   22.9161 C.ar    1  UNL1        0.0404
     10 C          -8.8990  -16.2967   23.1084 C.ar    1  UNL1        0.1464
     11 O          -9.0889  -16.5187   24.5796 O.2     1  UNL1       -0.4563
     12 N          -6.7981  -14.8598   27.3955 N.3     1  UNL1       -0.3148
     13 C          -7.7168  -15.8738   26.7811 C.3     1  UNL1        0.1307
     14 H          -6.7711  -14.9937   28.4063 H       1  UNL1        0.1192
     15 H          -7.1385  -13.9214   27.1859 H       1  UNL1        0.1192
     16 C          -8.2849  -18.8097   21.5893 C.ar    1  UNL1        0.0410
     17 C          -6.9416  -18.6637   20.9379 C.ar    1  UNL1        0.0438
     18 C          -6.0088  -19.6520   21.5728 C.ar    1  UNL1        0.1798
     19 O          -6.7756  -20.4088   22.6166 O.2     1  UNL1       -0.4473
     20 C          -8.1822  -19.8882   22.6267 C.ar    1  UNL1        0.1797
@<TRIPOS>BOND
     1    12    13    1
     2    13     7    1
     3     7     8   ar
     4     8     9   ar
     5     9    10   ar
     6    10     1    1
     7     1     2   ar
     8     2     3   ar
     9     3     4   ar
    10     4     5   ar
    11     5     6   ar
    12     6    16    1
    13    16    17   ar
    14    17    18   ar
    15    18    19   ar
    16    19    20   ar
    17    10    11   ar
    18    11     7   ar
    19     6     1   ar
    20    20    16   ar
    21    12    14    1
    22    12    15    1
@<TRIPOS>MOLECULE
*****
 20 22 0 0 0
SMALL
GASTEIGER

@<TRIPOS>ATOM
      1 C          -6.9607  -19.0782   20.4684 C.ar    1  UNL1        0.0538
      2 C          -8.0136  -19.6502   19.5662 C.ar    1  UNL1        0.1019
      3 N          -9.4652  -19.4363   19.8778 N.ar    1  UNL1       -0.2422
      4 C          -9.8639  -18.6503   21.0916 C.ar    1  UNL1        0.0989
      5 C          -8.8109  -18.0783   21.9938 C.ar    1  UNL1        0.0209
      6 C          -7.3594  -18.2922   21.6822 C.ar    1  UNL1        0.0091
      7 C          -3.2062  -18.8957   19.5009 C.ar    1  UNL1        0.1385
      8 C          -3.3443  -20.3470   19.8541 C.ar    1  UNL1        0.0375
      9 C          -4.7675  -20.5920   20.2595 C.ar    1  UNL1        0.0404
     10 C          -5.5090  -19.2921   20.1569 C.ar    1  UNL1        0.1464
     11 O          -4.5441  -18.2437   19.6881 O.2     1  UNL1       -0.4563
     12 N          -0.6271  -18.6089   19.6274 N.3     1  UNL1       -0.3148
     13 C          -1.9507  -18.2157   19.0413 C.3     1  UNL1        0.1307
     14 H           0.1125  -18.0491   19.2031 H       1  UNL1        0.1192
     15 H          -0.4538  -19.5970   19.4432 H       1  UNL1        0.1192
     16 C          -6.3064  -17.7202   22.5845 C.ar    1  UNL1        0.0410
     17 C          -6.4021  -16.4304   23.3444 C.ar    1  UNL1        0.0438
     18 C          -5.1277  -16.2506   24.1148 C.ar    1  UNL1        0.1798
     19 O          -4.2442  -17.4293   23.8310 O.2     1  UNL1       -0.4473
     20 C          -4.9727  -18.3374   22.8852 C.ar    1  UNL1        0.1797
@<TRIPOS>BOND
     1    12    13    1
     2    13     7    1
     3     7     8   ar
     4     8     9   ar
     5     9    10   ar
     6    10     1    1
     7     1     2   ar
     8     2     3   ar
     9     3     4   ar
    10     4     5   ar
    11     5     6   ar
    12     6    16    1
    13    16    17   ar
    14    17    18   ar
    15    18    19   ar
    16    19    20   ar
    17    10    11   ar
    18    11     7   ar
    19     6     1   ar
    20    20    16   ar
    21    12    14    1
    22    12    15    1
@<TRIPOS>MOLECULE
*****
 20 22 0 0 0
SMALL
GASTEIGER

@<TRIPOS>ATOM
      1 C          -5.9939  -18.3712   22.2167 C.ar    1  UNL1        0.0538
      2 C          -5.6118  -19.4908   21.2946 C.ar    1  UNL1        0.1019
      3 N          -4.1806  -19.9300   21.2009 N.ar    1  UNL1       -0.2422
      4 C          -3.1316  -19.2495   22.0294 C.ar    1  UNL1        0.0989
      5 C          -3.5137  -18.1298   22.9515 C.ar    1  UNL1        0.0209
      6 C          -4.9449  -17.6907   23.0452 C.ar    1  UNL1        0.0091
      7 C          -9.5311  -16.8142   21.8563 C.ar    1  UNL1        0.1385
      8 C          -9.7241  -17.6982   23.0528 C.ar    1  UNL1        0.0375
      9 C          -8.4225  -18.3890   23.3334 C.ar    1  UNL1        0.0404
     10 C          -7.4252  -17.9320   22.3104 C.ar    1  UNL1        0.1464
     11 O          -8.1104  -16.9588   21.3975 O.2     1  UNL1       -0.4563
     12 N         -11.9011  -16.5196   20.8335 N.3     1  UNL1       -0.3148
     13 C         -10.5756  -15.9394   21.2288 C.3     1  UNL1        0.1307
     14 H         -12.4842  -15.7887   20.4257 H       1  UNL1        0.1192
     15 H         -12.3637  -16.9033   21.6576 H       1  UNL1        0.1192
     16 C          -5.3271  -16.5710   23.9673 C.ar    1  UNL1        0.0410
     17 C          -4.9230  -16.4364   25.4056 C.ar    1  UNL1        0.0438
     18 C          -5.5266  -15.1716   25.9402 C.ar    1  UNL1        0.1798
     19 O          -6.3038  -14.5244   24.8323 O.2     1  UNL1       -0.4473
     20 C          -6.1804  -15.3893   23.6130 C.ar    1  UNL1        0.1797
@<TRIPOS>BOND
     1    12    13    1
     2    13     7    1
     3     7     8   ar
     4     8     9   ar
     5     9    10   ar
     6    10     1    1
     7     1     2   ar
     8     2     3   ar
     9     3     4   ar
    10     4     5   ar
    11     5     6   ar
    12     6    16    1
    13    16    17   ar
    14    17    18   ar
    15    18    19   ar
    16    19    20   ar
    17    10    11   ar
    18    11     7   ar
    19     6     1   ar
    20    20    16   ar
    21    12    14    1
    22    12    15    1
