@<TRIPOS>MOLECULE
*****
 28 30 0 0 0
SMALL
GASTEIGER

@<TRIPOS>ATOM
      1 O          -5.1560  -16.3937   23.6891 O.2     1  UNL1       -0.2907
      2 C          -6.1620  -17.3544   23.1279 C.2     1  UNL1        0.1819
      3 C          -7.6262  -17.0388   23.2078 C.3     1  UNL1        0.0746
      4 C          -8.6322  -17.9995   22.6466 C.3     1  UNL1        0.0383
      5 C          -8.1740  -19.2758   22.0054 C.3     1  UNL1        0.0691
      6 C          -6.7098  -19.5914   21.9256 C.2     1  UNL1        0.1201
      7 O          -6.2516  -20.8677   21.2844 O.2     1  UNL1       -0.5092
      8 C          -5.7038  -18.6307   22.4868 C.2     1  UNL1        0.0936
      9 H          -6.8800  -21.4678   20.9338 H       1  UNL1        0.2917
     10 C         -10.0965  -17.6838   22.7265 C.ar    1  UNL1       -0.0072
     11 C         -10.6624  -16.5439   21.9326 C.ar    1  UNL1        0.0537
     12 CL         -9.7640  -15.7196   21.0587 Cl      1  UNL1       -0.0826
     13 C         -12.1266  -16.2282   22.0125 C.ar    1  UNL1        0.0111
     14 C         -13.0250  -17.0525   22.8863 C.ar    1  UNL1        0.0008
     15 C         -12.4591  -18.1924   23.6802 C.ar    1  UNL1        0.0036
     16 C         -10.9948  -18.5081   23.6003 C.ar    1  UNL1        0.0683
     17 C         -10.4289  -19.6480   24.3942 C.3     1  UNL1        0.4183
     18 F          -9.8630  -20.7880   25.1881 F       1  UNL1       -0.1659
     19 F         -10.8211  -20.6015   23.3047 F       1  UNL1       -0.1659
     20 F         -10.0368  -18.6945   25.4838 F       1  UNL1       -0.1659
     21 S          -4.2395  -18.9463   22.4068 S.3     1  UNL1       -0.0806
     22 C          -3.4542  -18.5589   21.1890 C.ar    1  UNL1        0.0402
     23 C          -3.6716  -19.2845   19.8942 C.ar    1  UNL1        0.0073
     24 C          -2.8862  -18.8971   18.6764 C.ar    1  UNL1        0.0006
     25 C          -1.8835  -17.7841   18.7533 C.ar    1  UNL1        0.0009
     26 C          -1.6662  -17.0585   20.0480 C.ar    1  UNL1        0.0119
     27 C          -2.4515  -17.4459   21.2658 C.ar    1  UNL1        0.0636
     28 CL         -2.2342  -16.7203   22.5606 Cl      1  UNL1       -0.0817
@<TRIPOS>BOND
     1     1     2    2
     2     2     3    1
     3     3     4    1
     4     4    10    1
     5    10    11   ar
     6    11    12    1
     7    11    13   ar
     8    13    14   ar
     9    14    15   ar
    10    15    16   ar
    11    16    17    1
    12    17    18    1
    13    17    19    1
    14    17    20    1
    15     4     5    1
    16     5     6    1
    17     6     7    1
    18     6     8    2
    19     8    21    1
    20    21    22    1
    21    22    23   ar
    22    23    24   ar
    23    24    25   ar
    24    25    26   ar
    25    26    27   ar
    26    27    28    1
    27     8     2    1
    28    27    22   ar
    29    16    10   ar
    30     7     9    1
@<TRIPOS>MOLECULE
*****
 28 30 0 0 0
SMALL
GASTEIGER

@<TRIPOS>ATOM
      1 O          -5.4528  -16.4399   23.2034 O.2     1  UNL1       -0.2907
      2 C          -6.3517  -17.5993   22.8905 C.2     1  UNL1        0.1819
      3 C          -7.8405  -17.4380   22.9749 C.3     1  UNL1        0.0746
      4 C          -8.7394  -18.5973   22.6620 C.3     1  UNL1        0.0383
      5 C          -8.1495  -19.9179   22.2647 C.3     1  UNL1        0.0691
      6 C          -6.6606  -20.0792   22.1803 C.2     1  UNL1        0.1201
      7 O          -6.0705  -21.3998   21.7830 O.2     1  UNL1       -0.5092
      8 C          -5.7617  -18.9199   22.4932 C.2     1  UNL1        0.0936
      9 H          -6.6320  -22.1241   21.5875 H       1  UNL1        0.2917
     10 C         -10.2284  -18.4360   22.7464 C.ar    1  UNL1       -0.0072
     11 C         -10.8961  -18.3260   24.0851 C.ar    1  UNL1        0.0537
     12 CL        -10.0749  -18.3773   25.3393 Cl      1  UNL1       -0.0826
     13 C         -12.3850  -18.1647   24.1696 C.ar    1  UNL1        0.0111
     14 C         -13.2062  -18.1134   22.9153 C.ar    1  UNL1        0.0008
     15 C         -12.5385  -18.2234   21.5767 C.ar    1  UNL1        0.0036
     16 C         -11.0495  -18.3848   21.4922 C.ar    1  UNL1        0.0683
     17 C         -10.3818  -18.4948   20.1536 C.3     1  UNL1        0.4183
     18 F          -9.7141  -18.6048   18.8149 F       1  UNL1       -0.1659
     19 F         -10.1881  -17.0076   20.1280 F       1  UNL1       -0.1659
     20 F         -10.5755  -19.9820   20.1792 F       1  UNL1       -0.1659
     21 S          -4.2727  -19.0812   22.4088 S.3     1  UNL1       -0.0806
     22 C          -3.5355  -18.6121   21.1896 C.ar    1  UNL1        0.0402
     23 C          -3.8117  -19.2432   19.8571 C.ar    1  UNL1        0.0073
     24 C          -3.0744  -18.7741   18.6379 C.ar    1  UNL1        0.0006
     25 C          -2.0610  -17.6740   18.7512 C.ar    1  UNL1        0.0009
     26 C          -1.7848  -17.0430   20.0837 C.ar    1  UNL1        0.0119
     27 C          -2.5221  -17.5121   21.3029 C.ar    1  UNL1        0.0636
     28 CL         -2.2459  -16.8810   22.6354 Cl      1  UNL1       -0.0817
@<TRIPOS>BOND
     1     1     2    2
     2     2     3    1
     3     3     4    1
     4     4    10    1
     5    10    11   ar
     6    11    12    1
     7    11    13   ar
     8    13    14   ar
     9    14    15   ar
    10    15    16   ar
    11    16    17    1
    12    17    18    1
    13    17    19    1
    14    17    20    1
    15     4     5    1
    16     5     6    1
    17     6     7    1
    18     6     8    2
    19     8    21    1
    20    21    22    1
    21    22    23   ar
    22    23    24   ar
    23    24    25   ar
    24    25    26   ar
    25    26    27   ar
    26    27    28    1
    27     8     2    1
    28    27    22   ar
    29    16    10   ar
    30     7     9    1
@<TRIPOS>MOLECULE
*****
 28 30 0 0 0
SMALL
GASTEIGER

@<TRIPOS>ATOM
      1 O          -4.8997  -16.8264   23.7823 O.2     1  UNL1       -0.2907
      2 C          -5.9528  -17.7033   23.1724 C.2     1  UNL1        0.1819
      3 C          -7.4007  -17.3304   23.2919 C.3     1  UNL1        0.0746
      4 C          -8.4538  -18.2073   22.6820 C.3     1  UNL1        0.0383
      5 C          -8.0590  -19.4570   21.9525 C.3     1  UNL1        0.0691
      6 C          -6.6111  -19.8299   21.8330 C.2     1  UNL1        0.1201
      7 O          -6.2162  -21.0797   21.1035 O.2     1  UNL1       -0.5092
      8 C          -5.5579  -18.9530   22.4430 C.2     1  UNL1        0.0936
      9 H          -6.8740  -21.6275   20.7225 H       1  UNL1        0.2917
     10 C          -9.9019  -17.8343   22.8016 C.ar    1  UNL1       -0.0072
     11 C         -10.8716  -18.7865   23.4363 C.ar    1  UNL1        0.0537
     12 CL        -10.3933  -20.1116   23.9515 Cl      1  UNL1       -0.0826
     13 C         -12.3196  -18.4136   23.5559 C.ar    1  UNL1        0.0111
     14 C         -12.7979  -17.0885   23.0407 C.ar    1  UNL1        0.0008
     15 C         -11.8281  -16.1363   22.4059 C.ar    1  UNL1        0.0036
     16 C         -10.3801  -16.5093   22.2864 C.ar    1  UNL1        0.0683
     17 C          -9.4103  -15.5571   21.6516 C.3     1  UNL1        0.4183
     18 F          -8.4406  -14.6049   21.0168 F       1  UNL1       -0.1659
     19 F          -9.9441  -15.9168   20.2967 F       1  UNL1       -0.1659
     20 F          -8.8766  -15.1974   23.0065 F       1  UNL1       -0.1659
     21 S          -4.1099  -19.3260   22.3234 S.3     1  UNL1       -0.0806
     22 C          -3.2217  -18.5870   21.3669 C.ar    1  UNL1        0.0402
     23 C          -2.4732  -17.3706   21.8255 C.ar    1  UNL1        0.0073
     24 C          -1.5850  -16.6317   20.8689 C.ar    1  UNL1        0.0006
     25 C          -1.4451  -17.1092   19.4538 C.ar    1  UNL1        0.0009
     26 C          -2.1935  -18.3255   18.9953 C.ar    1  UNL1        0.0119
     27 C          -3.0818  -19.0645   19.9518 C.ar    1  UNL1        0.0636
     28 CL         -3.8302  -20.2809   19.4932 Cl      1  UNL1       -0.0817
@<TRIPOS>BOND
     1     1     2    2
     2     2     3    1
     3     3     4    1
     4     4    10    1
     5    10    11   ar
     6    11    12    1
     7    11    13   ar
     8    13    14   ar
     9    14    15   ar
    10    15    16   ar
    11    16    17    1
    12    17    18    1
    13    17    19    1
    14    17    20    1
    15     4     5    1
    16     5     6    1
    17     6     7    1
    18     6     8    2
    19     8    21    1
    20    21    22    1
    21    22    23   ar
    22    23    24   ar
    23    24    25   ar
    24    25    26   ar
    25    26    27   ar
    26    27    28    1
    27     8     2    1
    28    27    22   ar
    29    16    10   ar
    30     7     9    1
@<TRIPOS>MOLECULE
*****
 28 30 0 0 0
SMALL
GASTEIGER

@<TRIPOS>ATOM
      1 O          -7.7403  -15.2883   23.7326 O.2     1  UNL1       -0.2907
      2 C          -7.5361  -16.7220   23.3417 C.2     1  UNL1        0.1819
      3 C          -6.2235  -17.1623   22.7645 C.3     1  UNL1        0.0746
      4 C          -6.0193  -18.5960   22.3736 C.3     1  UNL1        0.0383
      5 C          -7.1276  -19.5894   22.5599 C.3     1  UNL1        0.0691
      6 C          -8.4402  -19.1491   23.1372 C.2     1  UNL1        0.1201
      7 O          -9.5486  -20.1424   23.3235 O.2     1  UNL1       -0.5092
      8 C          -8.6444  -17.7154   23.5280 C.2     1  UNL1        0.0936
      9 H          -9.4211  -21.0380   23.0794 H       1  UNL1        0.2917
     10 C          -4.7066  -19.0364   21.7963 C.ar    1  UNL1       -0.0072
     11 C          -3.4223  -18.6146   22.4464 C.ar    1  UNL1        0.0537
     12 CL         -3.4506  -17.7526   23.6737 Cl      1  UNL1       -0.0826
     13 C          -2.1097  -19.0549   21.8692 C.ar    1  UNL1        0.0111
     14 C          -2.0814  -19.9170   20.6419 C.ar    1  UNL1        0.0008
     15 C          -3.3658  -20.3387   19.9919 C.ar    1  UNL1        0.0036
     16 C          -4.6784  -19.8984   20.5691 C.ar    1  UNL1        0.0683
     17 C          -5.9628  -20.3201   19.9191 C.3     1  UNL1        0.4183
     18 F          -7.2472  -20.7419   19.2691 F       1  UNL1       -0.1659
     19 F          -6.1673  -18.9219   19.4161 F       1  UNL1       -0.1659
     20 F          -5.7583  -21.7184   20.4222 F       1  UNL1       -0.1659
     21 S          -9.9571  -17.2750   24.1053 S.3     1  UNL1       -0.0806
     22 C         -11.1930  -17.2906   23.2555 C.ar    1  UNL1        0.0402
     23 C         -11.2340  -16.5072   21.9769 C.ar    1  UNL1        0.0073
     24 C         -12.4700  -16.5227   21.1271 C.ar    1  UNL1        0.0006
     25 C         -13.6650  -17.3216   21.5559 C.ar    1  UNL1        0.0009
     26 C         -13.6239  -18.1050   22.8344 C.ar    1  UNL1        0.0119
     27 C         -12.3880  -18.0894   23.6842 C.ar    1  UNL1        0.0636
     28 CL        -12.3470  -18.8728   24.9628 Cl      1  UNL1       -0.0817
@<TRIPOS>BOND
     1     1     2    2
     2     2     3    1
     3     3     4    1
     4     4    10    1
     5    10    11   ar
     6    11    12    1
     7    11    13   ar
     8    13    14   ar
     9    14    15   ar
    10    15    16   ar
    11    16    17    1
    12    17    18    1
    13    17    19    1
    14    17    20    1
    15     4     5    1
    16     5     6    1
    17     6     7    1
    18     6     8    2
    19     8    21    1
    20    21    22    1
    21    22    23   ar
    22    23    24   ar
    23    24    25   ar
    24    25    26   ar
    25    26    27   ar
    26    27    28    1
    27     8     2    1
    28    27    22   ar
    29    16    10   ar
    30     7     9    1
@<TRIPOS>MOLECULE
*****
 28 30 0 0 0
SMALL
GASTEIGER

@<TRIPOS>ATOM
      1 O         -14.0636   -3.9248   16.4244 O.2     1  UNL1       -0.2907
      2 C         -14.6731   -4.1974   17.7677 C.2     1  UNL1        0.1819
      3 C         -15.9304   -5.0088   17.8701 C.3     1  UNL1        0.0746
      4 C         -16.5399   -5.2814   19.2133 C.3     1  UNL1        0.0383
      5 C         -15.8919   -4.7426   20.4541 C.3     1  UNL1        0.0691
      6 C         -14.6345   -3.9312   20.3518 C.2     1  UNL1        0.1201
      7 O         -13.9865   -3.3923   21.5927 O.2     1  UNL1       -0.5092
      8 C         -14.0251   -3.6585   19.0085 C.2     1  UNL1        0.0936
      9 H         -14.3672   -3.5626   22.4318 H       1  UNL1        0.2917
     10 C         -17.7973   -6.0929   19.3156 C.ar    1  UNL1       -0.0072
     11 C         -19.1226   -5.4067   19.4659 C.ar    1  UNL1        0.0537
     12 CL        -19.1905   -3.9089   19.5138 Cl      1  UNL1       -0.0826
     13 C         -20.3800   -6.2181   19.5682 C.ar    1  UNL1        0.0111
     14 C         -20.3122   -7.7158   19.5203 C.ar    1  UNL1        0.0008
     15 C         -18.9868   -8.4021   19.3700 C.ar    1  UNL1        0.0036
     16 C         -17.7294   -7.5906   19.2677 C.ar    1  UNL1        0.0683
     17 C         -16.4041   -8.2768   19.1175 C.3     1  UNL1        0.4183
     18 F         -15.0787   -8.9631   18.9672 F       1  UNL1       -0.1659
     19 F         -16.2864   -8.3762   20.6095 F       1  UNL1       -0.1659
     20 F         -16.5218   -8.1775   17.6254 F       1  UNL1       -0.1659
     21 S         -12.7677   -2.8471   18.9062 S.3     1  UNL1       -0.0806
     22 C         -11.5257   -3.4581   18.3281 C.ar    1  UNL1        0.0402
     23 C         -10.9770   -4.7295   18.9048 C.ar    1  UNL1        0.0073
     24 C          -9.7351   -5.3406   18.3267 C.ar    1  UNL1        0.0006
     25 C          -9.0418   -4.6802   17.1720 C.ar    1  UNL1        0.0009
     26 C          -9.5905   -3.4088   16.5954 C.ar    1  UNL1        0.0119
     27 C         -10.8324   -2.7977   17.1735 C.ar    1  UNL1        0.0636
     28 CL        -11.3811   -1.5263   16.5969 Cl      1  UNL1       -0.0817
@<TRIPOS>BOND
     1     1     2    2
     2     2     3    1
     3     3     4    1
     4     4    10    1
     5    10    11   ar
     6    11    12    1
     7    11    13   ar
     8    13    14   ar
     9    14    15   ar
    10    15    16   ar
    11    16    17    1
    12    17    18    1
    13    17    19    1
    14    17    20    1
    15     4     5    1
    16     5     6    1
    17     6     7    1
    18     6     8    2
    19     8    21    1
    20    21    22    1
    21    22    23   ar
    22    23    24   ar
    23    24    25   ar
    24    25    26   ar
    25    26    27   ar
    26    27    28    1
    27     8     2    1
    28    27    22   ar
    29    16    10   ar
    30     7     9    1
@<TRIPOS>MOLECULE
*****
 28 30 0 0 0
SMALL
GASTEIGER

@<TRIPOS>ATOM
      1 O         -13.9029   -4.0744   16.4353 O.2     1  UNL1       -0.2907
      2 C         -14.5202   -4.2252   17.7940 C.2     1  UNL1        0.1819
      3 C         -15.7698   -5.0373   17.9641 C.3     1  UNL1        0.0746
      4 C         -16.3871   -5.1881   19.3228 C.3     1  UNL1        0.0383
      5 C         -15.7549   -4.5269   20.5115 C.3     1  UNL1        0.0691
      6 C         -14.5053   -3.7148   20.3414 C.2     1  UNL1        0.1201
      7 O         -13.8729   -3.0535   21.5301 O.2     1  UNL1       -0.5092
      8 C         -13.8880   -3.5639   18.9826 C.2     1  UNL1        0.0936
      9 H         -14.2585   -3.1477   22.3788 H       1  UNL1        0.2917
     10 C         -17.6368   -6.0003   19.4929 C.ar    1  UNL1       -0.0072
     11 C         -17.5437   -7.4760   19.7449 C.ar    1  UNL1        0.0537
     12 CL        -16.2009   -8.1396   19.8269 Cl      1  UNL1       -0.0826
     13 C         -18.7932   -8.2882   19.9150 C.ar    1  UNL1        0.0111
     14 C         -20.1360   -7.6246   19.8330 C.ar    1  UNL1        0.0008
     15 C         -20.2291   -6.1489   19.5810 C.ar    1  UNL1        0.0036
     16 C         -18.9795   -5.3367   19.4110 C.ar    1  UNL1        0.0683
     17 C         -19.0726   -3.8610   19.1590 C.3     1  UNL1        0.4183
     18 F         -19.1658   -2.3852   18.9069 F       1  UNL1       -0.1659
     19 F         -18.9691   -3.6027   20.6329 F       1  UNL1       -0.1659
     20 F         -19.1762   -4.1192   17.6850 F       1  UNL1       -0.1659
     21 S         -12.6383   -2.7518   18.8126 S.3     1  UNL1       -0.0806
     22 C         -11.4130   -3.3771   18.2146 C.ar    1  UNL1        0.0402
     23 C         -10.8725   -4.6573   18.7796 C.ar    1  UNL1        0.0073
     24 C          -9.6472   -5.2826   18.1816 C.ar    1  UNL1        0.0006
     25 C          -8.9625   -4.6278   17.0186 C.ar    1  UNL1        0.0009
     26 C          -9.5030   -3.3478   16.4536 C.ar    1  UNL1        0.0119
     27 C         -10.7283   -2.7224   17.0516 C.ar    1  UNL1        0.0636
     28 CL        -11.2689   -1.4423   16.4867 Cl      1  UNL1       -0.0817
@<TRIPOS>BOND
     1     1     2    2
     2     2     3    1
     3     3     4    1
     4     4    10    1
     5    10    11   ar
     6    11    12    1
     7    11    13   ar
     8    13    14   ar
     9    14    15   ar
    10    15    16   ar
    11    16    17    1
    12    17    18    1
    13    17    19    1
    14    17    20    1
    15     4     5    1
    16     5     6    1
    17     6     7    1
    18     6     8    2
    19     8    21    1
    20    21    22    1
    21    22    23   ar
    22    23    24   ar
    23    24    25   ar
    24    25    26   ar
    25    26    27   ar
    26    27    28    1
    27     8     2    1
    28    27    22   ar
    29    16    10   ar
    30     7     9    1
