@<TRIPOS>MOLECULE
*****
 30 32 0 0 0
SMALL
GASTEIGER

@<TRIPOS>ATOM
      1 C          -5.7353  -15.6124   23.7493 C.3     1  UNL1        0.1628
      2 O          -6.8633  -16.3074   23.0460 O.3     1  UNL1       -0.3318
      3 C          -8.0617  -16.2750   23.9475 C.3     1  UNL1        0.2430
      4 C          -7.6744  -15.5599   25.2079 C.3     1  UNL1        0.2390
      5 F          -8.5680  -15.3000   26.3843 F       1  UNL1       -0.2298
      6 C          -6.2365  -15.1504   25.0855 C.3     1  UNL1        0.1760
      7 O          -5.4400  -14.4092   26.1179 O.3     1  UNL1       -0.3792
      8 H          -4.5376  -14.2692   25.7908 H       1  UNL1        0.2106
      9 N          -9.4106  -16.8556   23.6421 N.ar    1  UNL1       -0.2692
     10 C         -10.1904  -17.7854   24.5239 C.ar    1  UNL1        0.1816
     11 N         -11.4783  -18.1128   23.8280 N.ar    1  UNL1       -0.2194
     12 C         -11.4944  -17.3854   22.5163 C.ar    1  UNL1        0.1481
     13 C         -12.5076  -17.3302   21.4116 C.ar    1  UNL1        0.1480
     14 N         -13.7856  -18.1072   21.5265 N.pl3   1  UNL1       -0.3413
     15 N         -12.2429  -16.4981   20.1921 N.ar    1  UNL1       -0.2078
     16 C         -10.9650  -15.7211   20.0772 C.ar    1  UNL1        0.2015
     17 N          -9.9518  -15.7763   21.1818 N.ar    1  UNL1       -0.2048
     18 C         -10.2165  -16.6084   22.4014 C.ar    1  UNL1        0.1690
     19 H         -13.9593  -18.6534   22.3270 H       1  UNL1        0.1438
     20 H         -14.4506  -18.0710   20.8015 H       1  UNL1        0.1438
     21 C          -4.3492  -15.4142   23.2110 C.3     1  UNL1        0.1050
     22 C          -2.2922  -16.3968   21.9647 C.3     1  UNL1        0.0900
     23 N          -3.5365  -16.5982   22.7778 N.3     1  UNL1       -0.2656
     24 C          -3.9681  -17.9837   23.1577 C.3     1  UNL1        0.0987
     25 C          -3.7592  -19.1223   22.2038 C.2     1  UNL1       -0.0120
     26 C          -4.9347  -19.7456   21.5111 C.2     1  UNL1       -0.0125
     27 C          -6.3190  -19.2304   21.7725 C.3     1  UNL1        0.0916
     28 N          -6.9400  -18.2391   20.8335 N.3     1  UNL1       -0.3175
     29 H          -6.4210  -17.3619   20.8732 H       1  UNL1        0.1192
     30 H          -7.9089  -18.0735   21.1059 H       1  UNL1        0.1192
@<TRIPOS>BOND
     1    22    23    1
     2    23    24    1
     3    24    25    1
     4    25    26    2
     5    26    27    1
     6    27    28    1
     7    23    21    1
     8     1    21    1
     9     1     2    1
    10     2     3    1
    11     3     9    1
    12     9    10   ar
    13    10    11   ar
    14    11    12   ar
    15    12    13   ar
    16    13    14    1
    17    13    15   ar
    18    15    16   ar
    19    16    17   ar
    20    17    18   ar
    21     3     4    1
    22     4     5    1
    23     4     6    1
    24     6     7    1
    25     6     1    1
    26    18     9   ar
    27    18    12   ar
    28    28    29    1
    29    28    30    1
    30    14    19    1
    31    14    20    1
    32     7     8    1
@<TRIPOS>MOLECULE
*****
 30 32 0 0 0
SMALL
GASTEIGER

@<TRIPOS>ATOM
      1 C         -10.2035  -18.2310   23.6229 C.3     1  UNL1        0.1628
      2 O          -9.2152  -19.2231   23.0853 O.3     1  UNL1       -0.3318
      3 C          -8.0155  -18.4653   22.5990 C.3     1  UNL1        0.2430
      4 C          -8.2624  -17.0049   22.8361 C.3     1  UNL1        0.2390
      5 F          -7.3221  -15.8858   22.4995 F       1  UNL1       -0.2298
      6 C          -9.6146  -16.8600   23.4689 C.3     1  UNL1        0.1760
      7 O         -10.2639  -15.5707   23.8762 O.3     1  UNL1       -0.3792
      8 H         -11.1354  -15.7548   24.2604 H       1  UNL1        0.2106
      9 N          -6.7850  -19.0630   21.9837 N.ar    1  UNL1       -0.2692
     10 C          -6.7529  -20.1833   20.9867 C.ar    1  UNL1        0.1816
     11 N          -5.3186  -20.4580   20.6442 N.ar    1  UNL1       -0.2194
     12 C          -4.4643  -19.5075   21.4294 C.ar    1  UNL1        0.1481
     13 C          -2.9782  -19.3156   21.4976 C.ar    1  UNL1        0.1480
     14 N          -2.0719  -20.1778   20.6698 N.pl3   1  UNL1       -0.3413
     15 N          -2.3984  -18.2616   22.3936 N.ar    1  UNL1       -0.2078
     16 C          -3.3046  -17.3995   23.2214 C.ar    1  UNL1        0.2015
     17 N          -4.7907  -17.5913   23.1533 N.ar    1  UNL1       -0.2048
     18 C          -5.3705  -18.6453   22.2573 C.ar    1  UNL1        0.1690
     19 H          -2.4525  -20.8696   20.0817 H       1  UNL1        0.1438
     20 H          -1.0965  -20.0519   20.7145 H       1  UNL1        0.1438
     21 C         -11.5452  -18.5534   24.2112 C.3     1  UNL1        0.1050
     22 C         -14.1080  -18.1285   24.2517 C.3     1  UNL1        0.0900
     23 N         -12.7959  -18.0884   23.5259 N.3     1  UNL1       -0.2656
     24 C         -12.7345  -17.5834   22.1148 C.3     1  UNL1        0.0987
     25 C         -11.9985  -18.3676   21.0690 C.2     1  UNL1       -0.0120
     26 C         -11.3073  -17.6543   19.9449 C.2     1  UNL1       -0.0125
     27 C         -11.3522  -16.1570   19.8666 C.3     1  UNL1        0.0916
     28 N         -12.3790  -15.4814   19.0068 N.3     1  UNL1       -0.3175
     29 H         -12.1977  -15.6983   18.0267 H       1  UNL1        0.1192
     30 H         -12.3288  -14.4723   19.1467 H       1  UNL1        0.1192
@<TRIPOS>BOND
     1    22    23    1
     2    23    24    1
     3    24    25    1
     4    25    26    2
     5    26    27    1
     6    27    28    1
     7    23    21    1
     8     1    21    1
     9     1     2    1
    10     2     3    1
    11     3     9    1
    12     9    10   ar
    13    10    11   ar
    14    11    12   ar
    15    12    13   ar
    16    13    14    1
    17    13    15   ar
    18    15    16   ar
    19    16    17   ar
    20    17    18   ar
    21     3     4    1
    22     4     5    1
    23     4     6    1
    24     6     7    1
    25     6     1    1
    26    18     9   ar
    27    18    12   ar
    28    28    29    1
    29    28    30    1
    30    14    19    1
    31    14    20    1
    32     7     8    1
@<TRIPOS>MOLECULE
*****
 30 32 0 0 0
SMALL
GASTEIGER

@<TRIPOS>ATOM
      1 C          -8.0949  -18.2319   22.5155 C.3     1  UNL1        0.1628
      2 O          -6.8809  -17.7978   21.7489 O.3     1  UNL1       -0.3318
      3 C          -6.0394  -19.0116   21.4871 C.3     1  UNL1        0.2430
      4 C          -6.7333  -20.1959   22.0918 C.3     1  UNL1        0.2390
      5 F          -6.2430  -21.6132   22.0656 F       1  UNL1       -0.2298
      6 C          -8.0037  -19.7141   22.7275 C.3     1  UNL1        0.1760
      7 O          -9.0067  -20.5650   23.4484 O.3     1  UNL1       -0.3792
      8 H          -9.7360  -20.0084   23.7635 H       1  UNL1        0.2106
      9 N          -4.7333  -19.0366   20.7499 N.ar    1  UNL1       -0.2692
     10 C          -4.3506  -20.0009   19.6665 C.ar    1  UNL1        0.1816
     11 N          -2.9614  -19.6620   19.2138 N.ar    1  UNL1       -0.2194
     12 C          -2.4854  -18.4882   20.0173 C.ar    1  UNL1        0.1481
     13 C          -1.1963  -17.7214   20.0071 C.ar    1  UNL1        0.1480
     14 N          -0.1012  -18.1079   19.0577 N.pl3   1  UNL1       -0.3413
     15 N          -1.0023  -16.5681   20.9463 N.ar    1  UNL1       -0.2078
     16 C          -2.0974  -16.1816   21.8957 C.ar    1  UNL1        0.2015
     17 N          -3.3865  -16.9484   21.9059 N.ar    1  UNL1       -0.2048
     18 C          -3.5805  -18.1017   20.9667 C.ar    1  UNL1        0.1690
     19 H          -0.2285  -18.8648   18.4413 H       1  UNL1        0.1438
     20 H           0.7449  -17.6046   19.0511 H       1  UNL1        0.1438
     21 C          -9.2052  -17.3404   22.9873 C.3     1  UNL1        0.1050
     22 C         -10.7796  -18.3935   24.7657 C.3     1  UNL1        0.0900
     23 N         -10.5331  -17.9298   23.3606 N.3     1  UNL1       -0.2656
     24 C         -11.6145  -18.0556   22.3287 C.3     1  UNL1        0.0987
     25 C         -11.2928  -18.5973   20.9674 C.2     1  UNL1       -0.0120
     26 C         -11.2394  -17.6740   19.7863 C.2     1  UNL1       -0.0125
     27 C         -11.5078  -16.2093   19.9666 C.3     1  UNL1        0.0916
     28 N         -12.3651  -15.4767   18.9776 N.3     1  UNL1       -0.3175
     29 H         -11.8962  -15.4541   18.0721 H       1  UNL1        0.1192
     30 H         -12.5210  -14.5228   19.3037 H       1  UNL1        0.1192
@<TRIPOS>BOND
     1    22    23    1
     2    23    24    1
     3    24    25    1
     4    25    26    2
     5    26    27    1
     6    27    28    1
     7    23    21    1
     8     1    21    1
     9     1     2    1
    10     2     3    1
    11     3     9    1
    12     9    10   ar
    13    10    11   ar
    14    11    12   ar
    15    12    13   ar
    16    13    14    1
    17    13    15   ar
    18    15    16   ar
    19    16    17   ar
    20    17    18   ar
    21     3     4    1
    22     4     5    1
    23     4     6    1
    24     6     7    1
    25     6     1    1
    26    18     9   ar
    27    18    12   ar
    28    28    29    1
    29    28    30    1
    30    14    19    1
    31    14    20    1
    32     7     8    1
@<TRIPOS>MOLECULE
*****
 30 32 0 0 0
SMALL
GASTEIGER

@<TRIPOS>ATOM
      1 C          -8.0180  -18.1822   22.6633 C.3     1  UNL1        0.1628
      2 O          -6.8009  -17.7509   21.9000 O.3     1  UNL1       -0.3318
      3 C          -6.0146  -18.9791   21.5491 C.3     1  UNL1        0.2430
      4 C          -6.7457  -20.1693   22.0954 C.3     1  UNL1        0.2390
      5 F          -6.3143  -21.6009   21.9744 F       1  UNL1       -0.2298
      6 C          -7.9839  -19.6769   22.7841 C.3     1  UNL1        0.1760
      7 O          -9.0081  -20.5295   23.4726 O.3     1  UNL1       -0.3792
      8 H          -9.7083  -19.9644   23.8350 H       1  UNL1        0.2106
      9 N          -4.7237  -19.0112   20.7857 N.ar    1  UNL1       -0.2692
     10 C          -4.3679  -19.9781   19.6955 C.ar    1  UNL1        0.1816
     11 N          -2.9864  -19.6465   19.2146 N.ar    1  UNL1       -0.2194
     12 C          -2.4883  -18.4747   20.0076 C.ar    1  UNL1        0.1481
     13 C          -1.1957  -17.7145   19.9709 C.ar    1  UNL1        0.1480
     14 N          -0.1220  -18.1071   18.9999 N.pl3   1  UNL1       -0.3413
     15 N          -0.9770  -16.5616   20.9052 N.ar    1  UNL1       -0.2078
     16 C          -2.0507  -16.1690   21.8762 C.ar    1  UNL1        0.2015
     17 N          -3.3433  -16.9292   21.9129 N.ar    1  UNL1       -0.2048
     18 C          -3.5620  -18.0820   20.9786 C.ar    1  UNL1        0.1690
     19 H          -0.2656  -18.8638   18.3867 H       1  UNL1        0.1438
     20 H           0.7264  -17.6082   18.9758 H       1  UNL1        0.1438
     21 C          -9.0825  -17.2775   23.2099 C.3     1  UNL1        0.1050
     22 C          -9.4889  -17.7988   25.7225 C.3     1  UNL1        0.0900
     23 N          -9.0403  -16.8531   24.6480 N.3     1  UNL1       -0.2656
     24 C          -8.5495  -15.4831   25.0116 C.3     1  UNL1        0.0987
     25 C          -7.5605  -15.3122   26.1264 C.2     1  UNL1       -0.0120
     26 C          -6.0963  -15.5091   25.8667 C.2     1  UNL1       -0.0125
     27 C          -5.6212  -15.8769   24.4923 C.3     1  UNL1        0.0916
     28 N          -5.3693  -14.8048   23.4740 N.3     1  UNL1       -0.3175
     29 H          -6.2502  -14.3500   23.2341 H       1  UNL1        0.1192
     30 H          -4.9620  -15.2205   22.6363 H       1  UNL1        0.1192
@<TRIPOS>BOND
     1    22    23    1
     2    23    24    1
     3    24    25    1
     4    25    26    2
     5    26    27    1
     6    27    28    1
     7    23    21    1
     8     1    21    1
     9     1     2    1
    10     2     3    1
    11     3     9    1
    12     9    10   ar
    13    10    11   ar
    14    11    12   ar
    15    12    13   ar
    16    13    14    1
    17    13    15   ar
    18    15    16   ar
    19    16    17   ar
    20    17    18   ar
    21     3     4    1
    22     4     5    1
    23     4     6    1
    24     6     7    1
    25     6     1    1
    26    18     9   ar
    27    18    12   ar
    28    28    29    1
    29    28    30    1
    30    14    19    1
    31    14    20    1
    32     7     8    1
@<TRIPOS>MOLECULE
*****
 30 32 0 0 0
SMALL
GASTEIGER

@<TRIPOS>ATOM
      1 C          -5.6650  -15.9355   23.7620 C.3     1  UNL1        0.1628
      2 O          -6.7969  -16.6676   23.1041 O.3     1  UNL1       -0.3318
      3 C          -8.0342  -16.4378   23.9204 C.3     1  UNL1        0.2430
      4 C          -7.6669  -15.5638   25.0827 C.3     1  UNL1        0.2390
      5 F          -8.6001  -15.0843   26.1548 F       1  UNL1       -0.2298
      6 C          -6.2027  -15.2532   24.9849 C.3     1  UNL1        0.1760
      7 O          -5.4145  -14.4089   25.9418 O.3     1  UNL1       -0.3792
      8 H          -4.4903  -14.3669   25.6504 H       1  UNL1        0.2106
      9 N          -9.3991  -16.9860   23.6260 N.ar    1  UNL1       -0.2692
     10 C         -10.1843  -17.9148   24.5038 C.ar    1  UNL1        0.1816
     11 N         -11.4889  -18.2044   23.8224 N.ar    1  UNL1       -0.2194
     12 C         -11.5098  -17.4544   22.5235 C.ar    1  UNL1        0.1481
     13 C         -12.5382  -17.3600   21.4356 C.ar    1  UNL1        0.1480
     14 N         -13.8298  -18.1130   21.5570 N.pl3   1  UNL1       -0.3413
     15 N         -12.2749  -16.5125   20.2263 N.ar    1  UNL1       -0.2078
     16 C         -10.9833  -15.7595   20.1049 C.ar    1  UNL1        0.2015
     17 N          -9.9550  -15.8539   21.1929 N.ar    1  UNL1       -0.2048
     18 C         -10.2183  -16.7014   22.4021 C.ar    1  UNL1        0.1690
     19 H         -14.0026  -18.6693   22.3507 H       1  UNL1        0.1438
     20 H         -14.5047  -18.0510   20.8429 H       1  UNL1        0.1438
     21 C          -4.2446  -15.8931   23.2813 C.3     1  UNL1        0.1050
     22 C          -4.2725  -18.4561   22.8567 C.3     1  UNL1        0.0900
     23 N          -3.6189  -17.1174   22.6816 N.3     1  UNL1       -0.2656
     24 C          -2.3395  -17.0030   21.9069 C.3     1  UNL1        0.0987
     25 C          -1.5807  -18.2394   21.5254 C.2     1  UNL1       -0.0120
     26 C          -1.3749  -18.5764   20.0782 C.2     1  UNL1       -0.0125
     27 C          -1.9280  -17.6771   19.0127 C.3     1  UNL1        0.0916
     28 N          -1.3293  -17.6874   17.6375 N.3     1  UNL1       -0.3175
     29 H          -0.3734  -17.3339   17.6801 H       1  UNL1        0.1192
     30 H          -1.8841  -17.0941   17.0206 H       1  UNL1        0.1192
@<TRIPOS>BOND
     1    22    23    1
     2    23    24    1
     3    24    25    1
     4    25    26    2
     5    26    27    1
     6    27    28    1
     7    23    21    1
     8     1    21    1
     9     1     2    1
    10     2     3    1
    11     3     9    1
    12     9    10   ar
    13    10    11   ar
    14    11    12   ar
    15    12    13   ar
    16    13    14    1
    17    13    15   ar
    18    15    16   ar
    19    16    17   ar
    20    17    18   ar
    21     3     4    1
    22     4     5    1
    23     4     6    1
    24     6     7    1
    25     6     1    1
    26    18     9   ar
    27    18    12   ar
    28    28    29    1
    29    28    30    1
    30    14    19    1
    31    14    20    1
    32     7     8    1
@<TRIPOS>MOLECULE
*****
 30 32 0 0 0
SMALL
GASTEIGER

@<TRIPOS>ATOM
      1 C          -7.9402  -17.5515   22.9198 C.3     1  UNL1        0.1628
      2 O          -6.5218  -17.0733   23.0169 O.3     1  UNL1       -0.3318
      3 C          -5.6379  -18.1155   22.3984 C.3     1  UNL1        0.2430
      4 C          -6.5101  -19.2378   21.9192 C.3     1  UNL1        0.2390
      5 F          -6.0415  -20.4891   21.2374 F       1  UNL1       -0.2298
      6 C          -7.9330  -18.8893   22.2414 C.3     1  UNL1        0.1760
      7 O          -9.1371  -19.7308   21.9385 O.3     1  UNL1       -0.3792
      8 H          -9.9356  -19.2767   22.2502 H       1  UNL1        0.2106
      9 N          -4.1442  -18.0473   22.2801 N.ar    1  UNL1       -0.2692
     10 C          -3.1721  -17.9673   23.4197 C.ar    1  UNL1        0.1816
     11 N          -1.7874  -17.9177   22.8452 N.ar    1  UNL1       -0.2194
     12 C          -1.9036  -17.9671   21.3505 C.ar    1  UNL1        0.1481
     13 C          -0.8713  -17.9494   20.2624 C.ar    1  UNL1        0.1480
     14 N           0.5853  -17.8693   20.6117 N.pl3   1  UNL1       -0.3413
     15 N          -1.2956  -18.0119   18.8250 N.ar    1  UNL1       -0.2078
     16 C          -2.7522  -18.0920   18.4758 C.ar    1  UNL1        0.2015
     17 N          -3.7845  -18.1096   19.5639 N.ar    1  UNL1       -0.2048
     18 C          -3.3602  -18.0472   21.0012 C.ar    1  UNL1        0.1690
     19 H           0.8637  -17.8283   21.5551 H       1  UNL1        0.1438
     20 H           1.2628  -17.8577   19.8975 H       1  UNL1        0.1438
     21 C          -9.1530  -16.8202   23.4144 C.3     1  UNL1        0.1050
     22 C         -10.7850  -16.4450   21.4280 C.3     1  UNL1        0.0900
     23 N         -10.4855  -17.0531   22.7661 N.3     1  UNL1       -0.2656
     24 C         -11.5184  -17.8942   23.4558 C.3     1  UNL1        0.0987
     25 C         -12.9484  -17.8449   23.0053 C.2     1  UNL1       -0.0120
     26 C         -14.0547  -18.0507   23.9973 C.2     1  UNL1       -0.0125
     27 C         -13.7310  -18.3057   25.4396 C.3     1  UNL1        0.0916
     28 N         -14.7802  -18.8602   26.3570 N.3     1  UNL1       -0.3175
     29 H         -15.5297  -18.1773   26.4683 H       1  UNL1        0.1192
     30 H         -14.3649  -19.0605   27.2668 H       1  UNL1        0.1192
@<TRIPOS>BOND
     1    22    23    1
     2    23    24    1
     3    24    25    1
     4    25    26    2
     5    26    27    1
     6    27    28    1
     7    23    21    1
     8     1    21    1
     9     1     2    1
    10     2     3    1
    11     3     9    1
    12     9    10   ar
    13    10    11   ar
    14    11    12   ar
    15    12    13   ar
    16    13    14    1
    17    13    15   ar
    18    15    16   ar
    19    16    17   ar
    20    17    18   ar
    21     3     4    1
    22     4     5    1
    23     4     6    1
    24     6     7    1
    25     6     1    1
    26    18     9   ar
    27    18    12   ar
    28    28    29    1
    29    28    30    1
    30    14    19    1
    31    14    20    1
    32     7     8    1
@<TRIPOS>MOLECULE
*****
 30 32 0 0 0
SMALL
GASTEIGER

@<TRIPOS>ATOM
      1 C          -4.9167  -16.6834   23.8771 C.3     1  UNL1        0.1628
      2 O          -5.9841  -17.0246   22.8800 O.3     1  UNL1       -0.3318
      3 C          -7.2540  -16.3535   23.3124 C.3     1  UNL1        0.2430
      4 C          -6.9715  -15.5977   24.5768 C.3     1  UNL1        0.2390
      5 F          -7.9600  -14.7813   25.3555 F       1  UNL1       -0.2298
      6 C          -5.5270  -15.8014   24.9259 C.3     1  UNL1        0.1760
      7 O          -4.8173  -15.2247   26.1148 O.3     1  UNL1       -0.3792
      8 H          -3.8901  -15.5095   26.1075 H       1  UNL1        0.2106
      9 N          -8.5746  -16.4258   22.6047 N.ar    1  UNL1       -0.2692
     10 C          -8.9264  -15.7327   21.3218 C.ar    1  UNL1        0.1816
     11 N         -10.3444  -16.0824   20.9799 N.ar    1  UNL1       -0.2194
     12 C         -10.8690  -16.9916   22.0514 C.ar    1  UNL1        0.1481
     13 C         -12.2013  -17.6537   22.2424 C.ar    1  UNL1        0.1480
     14 N         -13.2951  -17.4414   21.2382 N.pl3   1  UNL1       -0.3413
     15 N         -12.4398  -18.5280   23.4377 N.ar    1  UNL1       -0.2078
     16 C         -11.3459  -18.7402   24.4419 C.ar    1  UNL1        0.2015
     17 N         -10.0136  -18.0782   24.2509 N.ar    1  UNL1       -0.2048
     18 C          -9.7751  -17.2038   23.0556 C.ar    1  UNL1        0.1690
     19 H         -13.1386  -16.8676   20.4537 H       1  UNL1        0.1438
     20 H         -14.1696  -17.8760   21.3636 H       1  UNL1        0.1438
     21 C          -3.4896  -17.1433   23.8332 C.3     1  UNL1        0.1050
     22 C          -2.1613  -16.2982   21.7665 C.3     1  UNL1        0.0900
     23 N          -2.8291  -17.4141   22.5140 N.3     1  UNL1       -0.2656
     24 C          -2.8365  -18.8009   21.9421 C.3     1  UNL1        0.0987
     25 C          -2.7148  -19.0019   20.4607 C.2     1  UNL1       -0.0120
     26 C          -3.9296  -19.3372   19.6471 C.2     1  UNL1       -0.0125
     27 C          -5.2659  -19.4716   20.3150 C.3     1  UNL1        0.0916
     28 N          -6.3018  -18.4006   20.1423 N.3     1  UNL1       -0.3175
     29 H          -5.9770  -17.5394   20.5820 H       1  UNL1        0.1192
     30 H          -7.1741  -18.6975   20.5796 H       1  UNL1        0.1192
@<TRIPOS>BOND
     1    22    23    1
     2    23    24    1
     3    24    25    1
     4    25    26    2
     5    26    27    1
     6    27    28    1
     7    23    21    1
     8     1    21    1
     9     1     2    1
    10     2     3    1
    11     3     9    1
    12     9    10   ar
    13    10    11   ar
    14    11    12   ar
    15    12    13   ar
    16    13    14    1
    17    13    15   ar
    18    15    16   ar
    19    16    17   ar
    20    17    18   ar
    21     3     4    1
    22     4     5    1
    23     4     6    1
    24     6     7    1
    25     6     1    1
    26    18     9   ar
    27    18    12   ar
    28    28    29    1
    29    28    30    1
    30    14    19    1
    31    14    20    1
    32     7     8    1
@<TRIPOS>MOLECULE
*****
 30 32 0 0 0
SMALL
GASTEIGER

@<TRIPOS>ATOM
      1 C          -8.0562  -17.6910   22.8298 C.3     1  UNL1        0.1628
      2 O          -6.6626  -17.1363   22.8454 O.3     1  UNL1       -0.3318
      3 C          -5.7268  -18.2215   22.4022 C.3     1  UNL1        0.2430
      4 C          -6.5419  -19.4469   22.1127 C.3     1  UNL1        0.2390
      5 F          -6.0107  -20.7682   21.6417 F       1  UNL1       -0.2298
      6 C          -7.9817  -19.1191   22.3770 C.3     1  UNL1        0.1760
      7 O          -9.1428  -20.0550   22.2166 O.3     1  UNL1       -0.3792
      8 H          -9.9637  -19.5951   22.4522 H       1  UNL1        0.2106
      9 N          -4.2372  -18.1022   22.2715 N.ar    1  UNL1       -0.2692
     10 C          -3.2657  -17.9126   23.3985 C.ar    1  UNL1        0.1816
     11 N          -1.8858  -17.8447   22.8143 N.ar    1  UNL1       -0.2194
     12 C          -2.0045  -17.9925   21.3263 C.ar    1  UNL1        0.1481
     13 C          -0.9771  -18.0026   20.2335 C.ar    1  UNL1        0.1480
     14 N           0.4762  -17.8435   20.5690 N.pl3   1  UNL1       -0.3413
     15 N          -1.4030  -18.1719   18.8053 N.ar    1  UNL1       -0.2078
     16 C          -2.8563  -18.3310   18.4698 C.ar    1  UNL1        0.2015
     17 N          -3.8837  -18.3209   19.5626 N.ar    1  UNL1       -0.2048
     18 C          -3.4579  -18.1516   20.9908 C.ar    1  UNL1        0.1690
     19 H           0.7558  -17.7324   21.5064 H       1  UNL1        0.1438
     20 H           1.1506  -17.8502   19.8517 H       1  UNL1        0.1438
     21 C          -9.3052  -16.9481   23.2018 C.3     1  UNL1        0.1050
     22 C         -10.7758  -18.5264   24.6496 C.3     1  UNL1        0.0900
     23 N         -10.5877  -17.6963   23.4145 N.3     1  UNL1       -0.2656
     24 C         -11.6822  -17.6145   22.3919 C.3     1  UNL1        0.0987
     25 C         -11.5729  -18.3903   21.1128 C.2     1  UNL1       -0.0120
     26 C         -11.4153  -17.6669   19.8081 C.2     1  UNL1       -0.0125
     27 C         -11.3669  -16.1679   19.7828 C.3     1  UNL1        0.0916
     28 N         -12.3688  -15.3988   18.9736 N.3     1  UNL1       -0.3175
     29 H         -12.2247  -15.5910   17.9823 H       1  UNL1        0.1192
     30 H         -12.2514  -14.4005   19.1469 H       1  UNL1        0.1192
@<TRIPOS>BOND
     1    22    23    1
     2    23    24    1
     3    24    25    1
     4    25    26    2
     5    26    27    1
     6    27    28    1
     7    23    21    1
     8     1    21    1
     9     1     2    1
    10     2     3    1
    11     3     9    1
    12     9    10   ar
    13    10    11   ar
    14    11    12   ar
    15    12    13   ar
    16    13    14    1
    17    13    15   ar
    18    15    16   ar
    19    16    17   ar
    20    17    18   ar
    21     3     4    1
    22     4     5    1
    23     4     6    1
    24     6     7    1
    25     6     1    1
    26    18     9   ar
    27    18    12   ar
    28    28    29    1
    29    28    30    1
    30    14    19    1
    31    14    20    1
    32     7     8    1
@<TRIPOS>MOLECULE
*****
 30 32 0 0 0
SMALL
GASTEIGER

@<TRIPOS>ATOM
      1 C          -4.0925  -18.7753   19.5883 C.3     1  UNL1        0.1628
      2 O          -5.4923  -18.2457   19.4880 O.3     1  UNL1       -0.3318
      3 C          -6.4225  -19.2882   20.0337 C.3     1  UNL1        0.2430
      4 C          -5.5976  -20.4621   20.4712 C.3     1  UNL1        0.2390
      5 F          -6.1209  -21.7303   21.0776 F       1  UNL1       -0.2298
      6 C          -4.1575  -20.1452   20.1960 C.3     1  UNL1        0.1760
      7 O          -2.9880  -21.0407   20.4788 O.3     1  UNL1       -0.3792
      8 H          -2.1687  -20.5981   20.2070 H       1  UNL1        0.2106
      9 N          -7.9155  -19.1764   20.1257 N.ar    1  UNL1       -0.2692
     10 C          -8.9064  -19.8180   19.2002 C.ar    1  UNL1        0.1816
     11 N         -10.2830  -19.4415   19.6619 N.ar    1  UNL1       -0.2194
     12 C         -10.1429  -18.5671   20.8727 C.ar    1  UNL1        0.1481
     13 C         -11.1586  -17.8990   21.7512 C.ar    1  UNL1        0.1480
     14 N         -12.6219  -18.0628   21.4645 N.pl3   1  UNL1       -0.3413
     15 N         -10.7112  -17.0671   22.9163 N.ar    1  UNL1       -0.2078
     16 C          -9.2480  -16.9033   23.2030 C.ar    1  UNL1        0.2015
     17 N          -8.2322  -17.5714   22.3245 N.ar    1  UNL1       -0.2048
     18 C          -8.6797  -18.4033   21.1593 C.ar    1  UNL1        0.1690
     19 H         -12.9155  -18.6089   20.6998 H       1  UNL1        0.1438
     20 H         -13.2885  -17.6243   22.0412 H       1  UNL1        0.1438
     21 C          -2.8463  -18.0605   19.1566 C.3     1  UNL1        0.1050
     22 C          -0.3744  -17.8100   19.9163 C.3     1  UNL1        0.0900
     23 N          -1.8394  -17.6244   20.1794 N.3     1  UNL1       -0.2656
     24 C          -2.2976  -17.0026   21.4653 C.3     1  UNL1        0.0987
     25 C          -2.2124  -17.7791   22.7459 C.2     1  UNL1       -0.0120
     26 C          -3.4629  -18.1182   23.5019 C.2     1  UNL1       -0.0125
     27 C          -4.7984  -17.6808   22.9772 C.3     1  UNL1        0.0916
     28 N          -5.3935  -16.3811   23.4315 N.3     1  UNL1       -0.3175
     29 H          -5.6107  -16.4359   24.4266 H       1  UNL1        0.1192
     30 H          -6.2484  -16.1967   22.9066 H       1  UNL1        0.1192
@<TRIPOS>BOND
     1    22    23    1
     2    23    24    1
     3    24    25    1
     4    25    26    2
     5    26    27    1
     6    27    28    1
     7    23    21    1
     8     1    21    1
     9     1     2    1
    10     2     3    1
    11     3     9    1
    12     9    10   ar
    13    10    11   ar
    14    11    12   ar
    15    12    13   ar
    16    13    14    1
    17    13    15   ar
    18    15    16   ar
    19    16    17   ar
    20    17    18   ar
    21     3     4    1
    22     4     5    1
    23     4     6    1
    24     6     7    1
    25     6     1    1
    26    18     9   ar
    27    18    12   ar
    28    28    29    1
    29    28    30    1
    30    14    19    1
    31    14    20    1
    32     7     8    1
