@<TRIPOS>MOLECULE
*****
 38 43 0 0 0
SMALL
GASTEIGER

@<TRIPOS>ATOM
      1 N           4.3402    1.4670   37.6936 N.3     1  UNL1       -0.2723
      2 C           5.7093    2.0744   37.7753 C.3     1  UNL1        0.0729
      3 C           6.7824    1.6356   36.8236 C.3     1  UNL1        0.0301
      4 C           6.4866    0.5894   35.7902 C.3     1  UNL1        0.0917
      5 C           5.1175   -0.0181   35.7085 C.3     1  UNL1        0.0301
      6 C           4.0443    0.4207   36.6602 C.3     1  UNL1        0.0729
      7 C           7.8950    1.1038   35.7517 C.2     1  UNL1        0.2291
      8 O           8.4776    2.1475   36.6580 O.2     1  UNL1       -0.2745
      9 N           8.6187    0.3914   34.6476 N.am    1  UNL1       -0.2839
     10 C           7.6574   -0.5633   34.0038 C.ar    1  UNL1        0.0467
     11 C           7.8118   -1.5282   32.8658 C.ar    1  UNL1        0.0144
     12 C           6.6484   -2.3708   32.4340 C.ar    1  UNL1        0.0012
     13 C           5.3307   -2.2486   33.1401 C.ar    1  UNL1       -0.0002
     14 C           5.1763   -1.2836   34.2782 C.ar    1  UNL1       -0.0026
     15 C           6.3397   -0.4410   34.7100 C.ar    1  UNL1       -0.0010
     16 H           9.5594    0.5268   34.3906 H       1  UNL1        0.1549
     17 C           6.8027   -3.3358   31.2960 C.2     1  UNL1        0.0001
     18 C           6.5276   -2.8886   29.8909 C.2     1  UNL1        0.0027
     19 C           6.1047   -1.4580   29.7342 C.ar    1  UNL1       -0.0004
     20 C           6.0448   -0.7561   31.0585 C.ar    1  UNL1       -0.0002
     21 C           5.6418    0.6872   31.1247 C.ar    1  UNL1       -0.0000
     22 C           5.2987    1.4286   29.8667 C.ar    1  UNL1       -0.0002
     23 C           5.3586    0.7267   28.5424 C.ar    1  UNL1       -0.0007
     24 C           5.7616   -0.7166   28.4762 C.ar    1  UNL1        0.0212
     25 C           5.7567   -1.2227   27.0642 C.3     1  UNL1        0.2320
     26 O           6.0936   -2.5952   26.5613 O.3     1  UNL1       -0.4706
     27 C           6.5187   -3.8006   27.3465 C.ar    1  UNL1        0.1412
     28 C           6.7596   -4.9802   26.4519 C.ar    1  UNL1        0.0665
     29 C           7.1937   -6.2906   27.0391 C.ar    1  UNL1        0.1432
     30 F           7.4346   -7.4702   26.1445 F       1  UNL1       -0.2041
     31 C           7.3868   -6.4211   28.5208 C.ar    1  UNL1        0.0298
     32 C           7.1459   -5.2415   29.4154 C.ar    1  UNL1        0.0053
     33 C           6.7119   -3.9312   28.8283 C.ar    1  UNL1        0.0341
     34 C           3.2670    1.9058   38.6453 C.3     1  UNL1        0.0780
     35 C           2.0620    1.0406   38.8675 C.3     1  UNL1        0.0590
     36 O           0.7591    1.2731   41.1032 O.co2   1  UNL1       -0.5491
     37 C           0.8899    1.5709   39.6389 C.2     1  UNL1        0.0517
     38 O          -0.1513    2.3989   38.9460 O.co2   1  UNL1       -0.5491
@<TRIPOS>UNITY_ATOM_ATTR
36 1
charge -1
@<TRIPOS>BOND
     1    36    37   ar
     2    37    38   ar
     3    37    35    1
     4    35    34    1
     5    34     1    1
     6     1     2    1
     7     2     3    1
     8     3     4    1
     9     4     5    1
    10     5     6    1
    11     4     7    1
    12     7     8    2
    13     7     9   am
    14     9    10    1
    15    10    11   ar
    16    11    12   ar
    17    12    17    1
    18    17    18    2
    19    18    19    1
    20    19    20   ar
    21    20    21   ar
    22    21    22   ar
    23    22    23   ar
    24    23    24   ar
    25    24    25    1
    26    25    26    1
    27    26    27    1
    28    27    28   ar
    29    28    29   ar
    30    29    30    1
    31    29    31   ar
    32    31    32   ar
    33    32    33   ar
    34    12    13   ar
    35    13    14   ar
    36    14    15   ar
    37     6     1    1
    38    15    10   ar
    39    15     4    1
    40    33    18    1
    41    24    19   ar
    42    33    27   ar
    43     9    16    1
@<TRIPOS>MOLECULE
*****
 38 43 0 0 0
SMALL
GASTEIGER

@<TRIPOS>ATOM
      1 N           2.5670   -0.1273   18.5706 N.3     1  UNL1       -0.2723
      2 C           3.7419   -0.0593   17.6405 C.3     1  UNL1        0.0729
      3 C           5.0090   -0.7873   17.9784 C.3     1  UNL1        0.0301
      4 C           5.1014   -1.5833   19.2464 C.3     1  UNL1        0.0917
      5 C           3.9266   -1.6513   20.1766 C.3     1  UNL1        0.0301
      6 C           2.6594   -0.9232   19.8387 C.3     1  UNL1        0.0729
      7 C           6.3519   -1.6077   18.4183 C.2     1  UNL1        0.2291
      8 O           6.5546   -0.9084   17.1069 O.2     1  UNL1       -0.2745
      9 N           7.3639   -2.4543   19.1319 N.am    1  UNL1       -0.2839
     10 C           6.7390   -2.9530   20.4009 C.ar    1  UNL1        0.0467
     11 C           7.2626   -3.8278   21.5012 C.ar    1  UNL1        0.0144
     12 C           6.3877   -4.1643   22.6723 C.ar    1  UNL1        0.0012
     13 C           4.9895   -3.6261   22.7432 C.ar    1  UNL1       -0.0002
     14 C           4.4659   -2.7513   21.6429 C.ar    1  UNL1       -0.0026
     15 C           5.3406   -2.4148   20.4718 C.ar    1  UNL1       -0.0010
     16 H           8.2779   -2.6484   18.8217 H       1  UNL1        0.1549
     17 C           6.9113   -5.0391   23.7727 C.2     1  UNL1        0.0001
     18 C           7.5545   -4.4225   24.9794 C.2     1  UNL1        0.0027
     19 C           7.6236   -2.9241   24.9859 C.ar    1  UNL1       -0.0004
     20 C           7.0152   -2.3421   23.7445 C.ar    1  UNL1       -0.0002
     21 C           6.9821   -0.8549   23.5518 C.ar    1  UNL1       -0.0000
     22 C           7.5573    0.0502   24.6005 C.ar    1  UNL1       -0.0002
     23 C           8.1657   -0.5318   25.8419 C.ar    1  UNL1       -0.0007
     24 C           8.1988   -2.0190   26.0346 C.ar    1  UNL1        0.0212
     25 C           8.8470   -2.3888   27.3358 C.3     1  UNL1        0.2320
     26 O           9.0801   -3.7549   27.9097 O.3     1  UNL1       -0.4706
     27 C           8.7225   -5.0887   27.3240 C.ar    1  UNL1        0.1412
     28 C           9.1349   -6.2124   28.2280 C.ar    1  UNL1        0.0665
     29 C           8.8682   -7.6333   27.8279 C.ar    1  UNL1        0.1432
     30 F           9.2805   -8.7570   28.7320 F       1  UNL1       -0.2041
     31 C           8.1893   -7.9305   26.5239 C.ar    1  UNL1        0.0298
     32 C           7.7769   -6.8068   25.6199 C.ar    1  UNL1        0.0053
     33 C           8.0436   -5.3859   26.0199 C.ar    1  UNL1        0.0341
     34 C           1.2998    0.6008   18.2328 C.3     1  UNL1        0.0780
     35 C           0.8286    1.7292   19.1015 C.3     1  UNL1        0.0590
     36 O          -0.2141    0.1799   20.9077 O.co2   1  UNL1       -0.5491
     37 C          -0.2049    1.4801   20.1595 C.2     1  UNL1        0.0517
     38 O          -1.2294    2.5310   20.4695 O.co2   1  UNL1       -0.5491
@<TRIPOS>UNITY_ATOM_ATTR
36 1
charge -1
@<TRIPOS>BOND
     1    36    37   ar
     2    37    38   ar
     3    37    35    1
     4    35    34    1
     5    34     1    1
     6     1     2    1
     7     2     3    1
     8     3     4    1
     9     4     5    1
    10     5     6    1
    11     4     7    1
    12     7     8    2
    13     7     9   am
    14     9    10    1
    15    10    11   ar
    16    11    12   ar
    17    12    17    1
    18    17    18    2
    19    18    19    1
    20    19    20   ar
    21    20    21   ar
    22    21    22   ar
    23    22    23   ar
    24    23    24   ar
    25    24    25    1
    26    25    26    1
    27    26    27    1
    28    27    28   ar
    29    28    29   ar
    30    29    30    1
    31    29    31   ar
    32    31    32   ar
    33    32    33   ar
    34    12    13   ar
    35    13    14   ar
    36    14    15   ar
    37     6     1    1
    38    15    10   ar
    39    15     4    1
    40    33    18    1
    41    24    19   ar
    42    33    27   ar
    43     9    16    1
@<TRIPOS>MOLECULE
*****
 38 43 0 0 0
SMALL
GASTEIGER

@<TRIPOS>ATOM
      1 N          -4.0271    5.0225   26.4459 N.3     1  UNL1       -0.2723
      2 C          -3.2104    6.2553   26.1947 C.3     1  UNL1        0.0729
      3 C          -1.7779    6.1318   25.7674 C.3     1  UNL1        0.0301
      4 C          -1.1620    4.7755   25.5914 C.3     1  UNL1        0.0917
      5 C          -1.9787    3.5426   25.8426 C.3     1  UNL1        0.0301
      6 C          -3.4112    3.6661   26.2698 C.3     1  UNL1        0.0729
      7 C          -0.2262    5.9122   25.3051 C.2     1  UNL1        0.2291
      8 O          -0.5586    7.3721   25.3959 O.2     1  UNL1       -0.2745
      9 N           1.1005    5.3328   24.9122 N.am    1  UNL1       -0.2839
     10 C           0.9845    3.8380   24.9555 C.ar    1  UNL1        0.0467
     11 C           1.9715    2.7459   24.6670 C.ar    1  UNL1        0.0144
     12 C           1.5602    1.3094   24.7983 C.ar    1  UNL1        0.0012
     13 C           0.1620    0.9649   25.2181 C.ar    1  UNL1       -0.0002
     14 C          -0.8251    2.0569   25.5066 C.ar    1  UNL1       -0.0026
     15 C          -0.4138    3.4935   25.3753 C.ar    1  UNL1       -0.0010
     16 H           1.9059    5.8439   24.6685 H       1  UNL1        0.1549
     17 C           2.5472    0.2173   24.5098 C.2     1  UNL1        0.0001
     18 C           2.6687   -0.3363   23.1210 C.2     1  UNL1        0.0027
     19 C           1.7577    0.2718   22.0961 C.ar    1  UNL1       -0.0004
     20 C           0.8911    1.3384   22.6971 C.ar    1  UNL1       -0.0002
     21 C          -0.0951    2.0748   21.8398 C.ar    1  UNL1       -0.0000
     22 C          -0.2147    1.7446   20.3815 C.ar    1  UNL1       -0.0002
     23 C           0.6520    0.6780   19.7805 C.ar    1  UNL1       -0.0007
     24 C           1.6381   -0.0584   20.6378 C.ar    1  UNL1        0.0212
     25 C           2.4000   -1.0782   19.8443 C.3     1  UNL1        0.2320
     26 O           3.4695   -2.0197   20.3130 O.3     1  UNL1       -0.4706
     27 C           4.0414   -2.1739   21.6911 C.ar    1  UNL1        0.1412
     28 C           5.0992   -3.2366   21.7297 C.ar    1  UNL1        0.0665
     29 C           5.8007   -3.5503   23.0180 C.ar    1  UNL1        0.1432
     30 F           6.8585   -4.6131   23.0566 F       1  UNL1       -0.2041
     31 C           5.4443   -2.8011   24.2677 C.ar    1  UNL1        0.0298
     32 C           4.3864   -1.7383   24.2291 C.ar    1  UNL1        0.0053
     33 C           3.6850   -1.4247   22.9409 C.ar    1  UNL1        0.0341
     34 C          -5.4596    5.1460   26.8732 C.3     1  UNL1        0.0780
     35 C          -5.9199    6.3692   27.6093 C.3     1  UNL1        0.0590
     36 O          -7.7112    6.2111   29.4846 O.co2   1  UNL1       -0.5491
     37 C          -7.3476    6.4835   28.0550 C.2     1  UNL1        0.0517
     38 O          -8.4118    6.8702   27.0711 O.co2   1  UNL1       -0.5491
@<TRIPOS>UNITY_ATOM_ATTR
36 1
charge -1
@<TRIPOS>BOND
     1    36    37   ar
     2    37    38   ar
     3    37    35    1
     4    35    34    1
     5    34     1    1
     6     1     2    1
     7     2     3    1
     8     3     4    1
     9     4     5    1
    10     5     6    1
    11     4     7    1
    12     7     8    2
    13     7     9   am
    14     9    10    1
    15    10    11   ar
    16    11    12   ar
    17    12    17    1
    18    17    18    2
    19    18    19    1
    20    19    20   ar
    21    20    21   ar
    22    21    22   ar
    23    22    23   ar
    24    23    24   ar
    25    24    25    1
    26    25    26    1
    27    26    27    1
    28    27    28   ar
    29    28    29   ar
    30    29    30    1
    31    29    31   ar
    32    31    32   ar
    33    32    33   ar
    34    12    13   ar
    35    13    14   ar
    36    14    15   ar
    37     6     1    1
    38    15    10   ar
    39    15     4    1
    40    33    18    1
    41    24    19   ar
    42    33    27   ar
    43     9    16    1
@<TRIPOS>MOLECULE
*****
 38 43 0 0 0
SMALL
GASTEIGER

@<TRIPOS>ATOM
      1 N           1.0807    3.9247   30.9944 N.3     1  UNL1       -0.2723
      2 C           0.8931    2.4466   31.1682 C.3     1  UNL1        0.0729
      3 C           0.5533    1.5895   29.9852 C.3     1  UNL1        0.0301
      4 C           0.4010    2.2103   28.6282 C.3     1  UNL1        0.0917
      5 C           0.5885    3.6883   28.4542 C.3     1  UNL1        0.0301
      6 C           0.9284    4.5455   29.6374 C.3     1  UNL1        0.0729
      7 C           0.1847    0.7261   28.6478 C.2     1  UNL1        0.2291
      8 O           0.2704   -0.1615   29.8540 O.2     1  UNL1       -0.2745
      9 N          -0.1322    0.2853   27.2495 N.am    1  UNL1       -0.2839
     10 C          -0.1118    1.4970   26.3657 C.ar    1  UNL1        0.0467
     11 C          -0.3508    1.6708   24.8950 C.ar    1  UNL1        0.0144
     12 C          -0.2602    3.0343   24.2765 C.ar    1  UNL1        0.0012
     13 C           0.0693    4.2241   25.1285 C.ar    1  UNL1       -0.0002
     14 C           0.3083    4.0503   26.5992 C.ar    1  UNL1       -0.0026
     15 C           0.2177    2.6868   27.2177 C.ar    1  UNL1       -0.0010
     16 H          -0.3205   -0.6374   26.9622 H       1  UNL1        0.1549
     17 C          -0.4991    3.2082   22.8059 C.2     1  UNL1        0.0001
     18 C          -1.8719    3.5446   22.3036 C.2     1  UNL1        0.0027
     19 C          -2.9331    3.6846   23.3545 C.ar    1  UNL1       -0.0004
     20 C          -2.3782    3.4510   24.7283 C.ar    1  UNL1       -0.0002
     21 C          -3.2766    3.5439   25.9258 C.ar    1  UNL1       -0.0000
     22 C          -4.7300    3.8704   25.7495 C.ar    1  UNL1       -0.0002
     23 C          -5.2850    4.1040   24.3757 C.ar    1  UNL1       -0.0007
     24 C          -4.3865    4.0111   23.1782 C.ar    1  UNL1        0.0212
     25 C          -5.1376    4.2782   21.9075 C.3     1  UNL1        0.2320
     26 O          -4.6209    4.2847   20.4993 O.3     1  UNL1       -0.4706
     27 C          -3.2254    4.0258   20.0140 C.ar    1  UNL1        0.1412
     28 C          -3.1362    4.1312   18.5204 C.ar    1  UNL1        0.0665
     29 C          -1.8236    3.9072   17.8298 C.ar    1  UNL1        0.1432
     30 F          -1.7344    4.0126   16.3361 F       1  UNL1       -0.2041
     31 C          -0.6002    3.5778   18.6327 C.ar    1  UNL1        0.0298
     32 C          -0.6894    3.4724   20.1263 C.ar    1  UNL1        0.0053
     33 C          -2.0019    3.6964   20.8170 C.ar    1  UNL1        0.0341
     34 C           1.4205    4.7819   32.1774 C.3     1  UNL1        0.0780
     35 C           0.8670    4.4463   33.5306 C.3     1  UNL1        0.0590
     36 O           2.4850    4.9198   35.5074 O.co2   1  UNL1       -0.5491
     37 C           1.7792    3.9459   34.6110 C.2     1  UNL1        0.0517
     38 O           1.9857    2.4716   34.7952 O.co2   1  UNL1       -0.5491
@<TRIPOS>UNITY_ATOM_ATTR
36 1
charge -1
@<TRIPOS>BOND
     1    36    37   ar
     2    37    38   ar
     3    37    35    1
     4    35    34    1
     5    34     1    1
     6     1     2    1
     7     2     3    1
     8     3     4    1
     9     4     5    1
    10     5     6    1
    11     4     7    1
    12     7     8    2
    13     7     9   am
    14     9    10    1
    15    10    11   ar
    16    11    12   ar
    17    12    17    1
    18    17    18    2
    19    18    19    1
    20    19    20   ar
    21    20    21   ar
    22    21    22   ar
    23    22    23   ar
    24    23    24   ar
    25    24    25    1
    26    25    26    1
    27    26    27    1
    28    27    28   ar
    29    28    29   ar
    30    29    30    1
    31    29    31   ar
    32    31    32   ar
    33    32    33   ar
    34    12    13   ar
    35    13    14   ar
    36    14    15   ar
    37     6     1    1
    38    15    10   ar
    39    15     4    1
    40    33    18    1
    41    24    19   ar
    42    33    27   ar
    43     9    16    1
@<TRIPOS>MOLECULE
*****
 38 43 0 0 0
SMALL
GASTEIGER

@<TRIPOS>ATOM
      1 N           5.7947   -3.1219   24.2262 N.3     1  UNL1       -0.2723
      2 C           5.9082   -4.0019   23.0167 C.3     1  UNL1        0.0729
      3 C           5.0812   -3.7134   21.7990 C.3     1  UNL1        0.0301
      4 C           4.1406   -2.5450   21.7907 C.3     1  UNL1        0.0917
      5 C           4.0270   -1.6650   23.0002 C.3     1  UNL1        0.0301
      6 C           4.8541   -1.9535   24.2179 C.3     1  UNL1        0.0729
      7 C           4.1469   -3.3322   20.5139 C.2     1  UNL1        0.2291
      8 O           4.9813   -4.5461   20.2307 O.2     1  UNL1       -0.2745
      9 N           3.1723   -2.6924   19.5701 N.am    1  UNL1       -0.2839
     10 C           2.5637   -1.5098   20.2636 C.ar    1  UNL1        0.0467
     11 C           1.5418   -0.5040   19.8226 C.ar    1  UNL1        0.0144
     12 C           1.1185    0.5927   20.7542 C.ar    1  UNL1        0.0012
     13 C           1.7169    0.6839   22.1266 C.ar    1  UNL1       -0.0002
     14 C           2.7388   -0.3218   22.5676 C.ar    1  UNL1       -0.0026
     15 C           3.1621   -1.4186   21.6360 C.ar    1  UNL1       -0.0010
     16 H           2.9679   -2.9954   18.6559 H       1  UNL1        0.1549
     17 C           0.0966    1.5985   20.3133 C.2     1  UNL1        0.0001
     18 C           0.5138    2.7788   19.4870 C.2     1  UNL1        0.0027
     19 C           1.9750    2.8585   19.1572 C.ar    1  UNL1       -0.0004
     20 C           2.7327    1.7040   19.7427 C.ar    1  UNL1       -0.0002
     21 C           4.2133    1.5934   19.5296 C.ar    1  UNL1       -0.0000
     22 C           4.9362    2.6373   18.7310 C.ar    1  UNL1       -0.0002
     23 C           4.1785    3.7918   18.1456 C.ar    1  UNL1       -0.0007
     24 C           2.6979    3.9024   18.3587 C.ar    1  UNL1        0.0212
     25 C           2.1381    5.1244   17.6927 C.3     1  UNL1        0.2320
     26 O           0.7173    5.6043   17.6607 O.3     1  UNL1       -0.4706
     27 C          -0.4947    4.9807   18.2869 C.ar    1  UNL1        0.1412
     28 C          -1.7294    5.7871   18.0129 C.ar    1  UNL1        0.0665
     29 C          -3.0548    5.3361   18.5515 C.ar    1  UNL1        0.1432
     30 F          -4.2895    6.1425   18.2775 F       1  UNL1       -0.2041
     31 C          -3.1453    4.0787   19.3643 C.ar    1  UNL1        0.0298
     32 C          -1.9106    3.2722   19.6383 C.ar    1  UNL1        0.0053
     33 C          -0.5853    3.7232   19.0997 C.ar    1  UNL1        0.0341
     34 C           6.6216   -3.4104   25.4439 C.3     1  UNL1        0.0780
     35 C           7.2676   -4.7538   25.6108 C.3     1  UNL1        0.0590
     36 O           6.0988   -5.2181   27.8842 O.co2   1  UNL1       -0.5491
     37 C           6.7310   -5.7237   26.6214 C.2     1  UNL1        0.0517
     38 O           6.8267   -7.1993   26.3693 O.co2   1  UNL1       -0.5491
@<TRIPOS>UNITY_ATOM_ATTR
36 1
charge -1
@<TRIPOS>BOND
     1    36    37   ar
     2    37    38   ar
     3    37    35    1
     4    35    34    1
     5    34     1    1
     6     1     2    1
     7     2     3    1
     8     3     4    1
     9     4     5    1
    10     5     6    1
    11     4     7    1
    12     7     8    2
    13     7     9   am
    14     9    10    1
    15    10    11   ar
    16    11    12   ar
    17    12    17    1
    18    17    18    2
    19    18    19    1
    20    19    20   ar
    21    20    21   ar
    22    21    22   ar
    23    22    23   ar
    24    23    24   ar
    25    24    25    1
    26    25    26    1
    27    26    27    1
    28    27    28   ar
    29    28    29   ar
    30    29    30    1
    31    29    31   ar
    32    31    32   ar
    33    32    33   ar
    34    12    13   ar
    35    13    14   ar
    36    14    15   ar
    37     6     1    1
    38    15    10   ar
    39    15     4    1
    40    33    18    1
    41    24    19   ar
    42    33    27   ar
    43     9    16    1
@<TRIPOS>MOLECULE
*****
 38 43 0 0 0
SMALL
GASTEIGER

@<TRIPOS>ATOM
      1 N           3.7661   -0.1488   30.8162 N.3     1  UNL1       -0.2723
      2 C           4.3536    1.2117   31.0486 C.3     1  UNL1        0.0729
      3 C           3.6871    2.4251   30.4713 C.3     1  UNL1        0.0301
      4 C           2.4331    2.2781   29.6614 C.3     1  UNL1        0.0917
      5 C           1.8455    0.9176   29.4289 C.3     1  UNL1        0.0301
      6 C           2.5121   -0.2958   30.0063 C.3     1  UNL1        0.0729
      7 C           2.9014    3.6954   29.8088 C.2     1  UNL1        0.2291
      8 O           4.1185    4.1482   30.5596 O.2     1  UNL1       -0.2745
      9 N           1.9389    4.5805   29.0737 N.am    1  UNL1       -0.2839
     10 C           0.8758    3.7101   28.4720 C.ar    1  UNL1        0.0467
     11 C          -0.3310    4.0295   27.6402 C.ar    1  UNL1        0.0144
     12 C          -1.2323    2.9259   27.1717 C.ar    1  UNL1        0.0012
     13 C          -0.9270    1.5029   27.5348 C.ar    1  UNL1       -0.0002
     14 C           0.2798    1.1835   28.3666 C.ar    1  UNL1       -0.0026
     15 C           1.1812    2.2871   28.8352 C.ar    1  UNL1       -0.0010
     16 H           1.9952    5.5606   28.9993 H       1  UNL1        0.1549
     17 C          -2.4391    3.2452   26.3399 C.2     1  UNL1        0.0001
     18 C          -2.3311    3.2806   24.8442 C.2     1  UNL1        0.0027
     19 C          -0.9726    2.9821   24.2825 C.ar    1  UNL1       -0.0004
     20 C           0.0211    2.7028   25.3708 C.ar    1  UNL1       -0.0002
     21 C           1.4440    2.3804   25.0225 C.ar    1  UNL1       -0.0000
     22 C           1.8732    2.3374   23.5859 C.ar    1  UNL1       -0.0002
     23 C           0.8795    2.6168   22.4976 C.ar    1  UNL1       -0.0007
     24 C          -0.5434    2.9391   22.8459 C.ar    1  UNL1        0.0212
     25 C          -1.3667    3.1840   21.6161 C.3     1  UNL1        0.2320
     26 O          -2.8225    3.5322   21.5192 O.3     1  UNL1       -0.4706
     27 C          -3.8146    3.7217   22.6283 C.ar    1  UNL1        0.1412
     28 C          -5.1738    4.0649   22.0949 C.ar    1  UNL1        0.0665
     29 C          -6.3145    4.2962   23.0412 C.ar    1  UNL1        0.1432
     30 F          -7.6738    4.6394   22.5078 F       1  UNL1       -0.2041
     31 C          -6.0958    4.1842   24.5209 C.ar    1  UNL1        0.0298
     32 C          -4.7365    3.8410   25.0543 C.ar    1  UNL1        0.0053
     33 C          -3.5959    3.6097   24.1081 C.ar    1  UNL1        0.0341
     34 C           4.4326   -1.3621   31.3936 C.3     1  UNL1        0.0780
     35 C           5.1737   -1.2634   32.6940 C.3     1  UNL1        0.0590
     36 O           4.7490   -0.9146   35.2332 O.co2   1  UNL1       -0.5491
     37 C           4.5091   -1.6872   33.9701 C.2     1  UNL1        0.0517
     38 O           3.6045   -2.8837   33.9832 O.co2   1  UNL1       -0.5491
@<TRIPOS>UNITY_ATOM_ATTR
36 1
charge -1
@<TRIPOS>BOND
     1    36    37   ar
     2    37    38   ar
     3    37    35    1
     4    35    34    1
     5    34     1    1
     6     1     2    1
     7     2     3    1
     8     3     4    1
     9     4     5    1
    10     5     6    1
    11     4     7    1
    12     7     8    2
    13     7     9   am
    14     9    10    1
    15    10    11   ar
    16    11    12   ar
    17    12    17    1
    18    17    18    2
    19    18    19    1
    20    19    20   ar
    21    20    21   ar
    22    21    22   ar
    23    22    23   ar
    24    23    24   ar
    25    24    25    1
    26    25    26    1
    27    26    27    1
    28    27    28   ar
    29    28    29   ar
    30    29    30    1
    31    29    31   ar
    32    31    32   ar
    33    32    33   ar
    34    12    13   ar
    35    13    14   ar
    36    14    15   ar
    37     6     1    1
    38    15    10   ar
    39    15     4    1
    40    33    18    1
    41    24    19   ar
    42    33    27   ar
    43     9    16    1
@<TRIPOS>MOLECULE
*****
 38 43 0 0 0
SMALL
GASTEIGER

@<TRIPOS>ATOM
      1 N           4.9682   -1.4033   18.3575 N.3     1  UNL1       -0.2723
      2 C           5.6490   -0.1335   17.9403 C.3     1  UNL1        0.0729
      3 C           4.9318    1.1780   18.0649 C.3     1  UNL1        0.0301
      4 C           3.5337    1.2197   18.6068 C.3     1  UNL1        0.0917
      5 C           2.8528   -0.0501   19.0241 C.3     1  UNL1        0.0301
      6 C           3.5701   -1.3616   18.8994 C.3     1  UNL1        0.0729
      7 C           4.0831    2.5642   18.2321 C.2     1  UNL1        0.2291
      8 O           5.4463    2.8332   17.6669 O.2     1  UNL1       -0.2745
      9 N           3.0301    3.5924   18.5218 N.am    1  UNL1       -0.2839
     10 C           1.8299    2.8834   19.0755 C.ar    1  UNL1        0.0467
     11 C           0.4937    3.3837   19.5387 C.ar    1  UNL1        0.0144
     12 C          -0.5311    2.4174   20.0544 C.ar    1  UNL1        0.0012
     13 C          -0.2200    0.9510   20.1070 C.ar    1  UNL1       -0.0002
     14 C           1.1162    0.4508   19.6438 C.ar    1  UNL1       -0.0026
     15 C           2.1411    1.4170   19.1281 C.ar    1  UNL1       -0.0010
     16 H           3.1123    4.5624   18.3743 H       1  UNL1        0.1549
     17 C          -1.8673    2.9176   20.5176 C.2     1  UNL1        0.0001
     18 C          -2.0958    3.2110   21.9708 C.2     1  UNL1        0.0027
     19 C          -0.9236    2.9706   22.8753 C.ar    1  UNL1       -0.0004
     20 C           0.2661    2.4718   22.1099 C.ar    1  UNL1       -0.0002
     21 C           1.5470    2.1683   22.8290 C.ar    1  UNL1       -0.0000
     22 C           1.6382    2.3635   24.3134 C.ar    1  UNL1       -0.0002
     23 C           0.4486    2.8622   25.0788 C.ar    1  UNL1       -0.0007
     24 C          -0.8324    3.1658   24.3598 C.ar    1  UNL1        0.0212
     25 C          -1.8908    3.6496   25.3062 C.3     1  UNL1        0.2320
     26 O          -3.3017    4.0578   25.0021 O.3     1  UNL1       -0.4706
     27 C          -4.0028    4.0829   23.6762 C.ar    1  UNL1        0.1412
     28 C          -5.4185    4.5593   23.8139 C.ar    1  UNL1        0.0665
     29 C          -6.2974    4.6590   22.6024 C.ar    1  UNL1        0.1432
     30 F          -7.7131    5.1355   22.7400 F       1  UNL1       -0.2041
     31 C          -5.7608    4.2821   21.2534 C.ar    1  UNL1        0.0298
     32 C          -4.3451    3.8057   21.1158 C.ar    1  UNL1        0.0053
     33 C          -3.4662    3.7060   22.3271 C.ar    1  UNL1        0.0341
     34 C           5.6854   -2.7148   18.2329 C.3     1  UNL1        0.0780
     35 C           5.5098   -3.7687   19.2857 C.3     1  UNL1        0.0590
     36 O           3.0684   -4.6037   18.9821 O.co2   1  UNL1       -0.5491
     37 C           4.5381   -4.8907   19.0691 C.2     1  UNL1        0.0517
     38 O           5.0361   -6.2997   18.9395 O.co2   1  UNL1       -0.5491
@<TRIPOS>UNITY_ATOM_ATTR
36 1
charge -1
@<TRIPOS>BOND
     1    36    37   ar
     2    37    38   ar
     3    37    35    1
     4    35    34    1
     5    34     1    1
     6     1     2    1
     7     2     3    1
     8     3     4    1
     9     4     5    1
    10     5     6    1
    11     4     7    1
    12     7     8    2
    13     7     9   am
    14     9    10    1
    15    10    11   ar
    16    11    12   ar
    17    12    17    1
    18    17    18    2
    19    18    19    1
    20    19    20   ar
    21    20    21   ar
    22    21    22   ar
    23    22    23   ar
    24    23    24   ar
    25    24    25    1
    26    25    26    1
    27    26    27    1
    28    27    28   ar
    29    28    29   ar
    30    29    30    1
    31    29    31   ar
    32    31    32   ar
    33    32    33   ar
    34    12    13   ar
    35    13    14   ar
    36    14    15   ar
    37     6     1    1
    38    15    10   ar
    39    15     4    1
    40    33    18    1
    41    24    19   ar
    42    33    27   ar
    43     9    16    1
@<TRIPOS>MOLECULE
*****
 38 43 0 0 0
SMALL
GASTEIGER

@<TRIPOS>ATOM
      1 N          -2.1516    5.5860   24.6816 N.3     1  UNL1       -0.2723
      2 C          -2.9163    5.9746   23.4510 C.3     1  UNL1        0.0729
      3 C          -2.7296    5.2045   22.1775 C.3     1  UNL1        0.0301
      4 C          -1.7781    4.0456   22.1344 C.3     1  UNL1        0.0917
      5 C          -1.0134    3.6569   23.3649 C.3     1  UNL1        0.0301
      6 C          -1.2002    4.4271   24.6385 C.3     1  UNL1        0.0729
      7 C          -2.4700    4.3157   20.8312 C.2     1  UNL1        0.2291
      8 O          -3.4700    5.4035   20.5728 O.2     1  UNL1       -0.2745
      9 N          -1.9862    3.3071   19.8318 N.am    1  UNL1       -0.2839
     10 C          -0.9954    2.4137   20.5174 C.ar    1  UNL1        0.0467
     11 C          -0.1937    1.2435   20.0296 C.ar    1  UNL1        0.0144
     12 C           0.7367    0.5298   20.9651 C.ar    1  UNL1        0.0012
     13 C           0.8653    0.9861   22.3881 C.ar    1  UNL1       -0.0002
     14 C           0.0636    2.1563   22.8759 C.ar    1  UNL1       -0.0026
     15 C          -0.8668    2.8701   21.9405 C.ar    1  UNL1       -0.0010
     16 H          -2.2693    3.2429   18.8911 H       1  UNL1        0.1549
     17 C           1.5385   -0.6405   20.4774 C.2     1  UNL1        0.0001
     18 C           2.8375   -0.4139   19.7624 C.2     1  UNL1        0.0027
     19 C           3.2428    1.0197   19.5877 C.ar    1  UNL1       -0.0004
     20 C           2.2304    1.9520   20.1841 C.ar    1  UNL1       -0.0002
     21 C           2.4453    3.4350   20.1170 C.ar    1  UNL1       -0.0000
     22 C           3.6727    3.9856   19.4534 C.ar    1  UNL1       -0.0002
     23 C           4.6851    3.0534   18.8570 C.ar    1  UNL1       -0.0007
     24 C           4.4701    1.5704   18.9241 C.ar    1  UNL1        0.0212
     25 C           5.5953    0.8234   18.2714 C.3     1  UNL1        0.2320
     26 O           5.7712   -0.6586   18.1211 O.3     1  UNL1       -0.4706
     27 C           4.8651   -1.7598   18.5864 C.ar    1  UNL1        0.1412
     28 C           5.4159   -3.1093   18.2320 C.ar    1  UNL1        0.0665
     29 C           4.6612   -4.3498   18.6081 C.ar    1  UNL1        0.1432
     30 F           5.2120   -5.6993   18.2538 F       1  UNL1       -0.2041
     31 C           3.3556   -4.2409   19.3386 C.ar    1  UNL1        0.0298
     32 C           2.8048   -2.8915   19.6929 C.ar    1  UNL1        0.0053
     33 C           3.5595   -1.6509   19.3168 C.ar    1  UNL1        0.0341
     34 C          -2.3383    6.3561   25.9551 C.3     1  UNL1        0.0780
     35 C          -2.9241    5.6820   27.1603 C.3     1  UNL1        0.0590
     36 O          -4.3023    3.6176   26.3929 O.co2   1  UNL1       -0.5491
     37 C          -4.2360    4.9626   27.0537 C.2     1  UNL1        0.0517
     38 O          -5.4816    5.5881   27.6079 O.co2   1  UNL1       -0.5491
@<TRIPOS>UNITY_ATOM_ATTR
36 1
charge -1
@<TRIPOS>BOND
     1    36    37   ar
     2    37    38   ar
     3    37    35    1
     4    35    34    1
     5    34     1    1
     6     1     2    1
     7     2     3    1
     8     3     4    1
     9     4     5    1
    10     5     6    1
    11     4     7    1
    12     7     8    2
    13     7     9   am
    14     9    10    1
    15    10    11   ar
    16    11    12   ar
    17    12    17    1
    18    17    18    2
    19    18    19    1
    20    19    20   ar
    21    20    21   ar
    22    21    22   ar
    23    22    23   ar
    24    23    24   ar
    25    24    25    1
    26    25    26    1
    27    26    27    1
    28    27    28   ar
    29    28    29   ar
    30    29    30    1
    31    29    31   ar
    32    31    32   ar
    33    32    33   ar
    34    12    13   ar
    35    13    14   ar
    36    14    15   ar
    37     6     1    1
    38    15    10   ar
    39    15     4    1
    40    33    18    1
    41    24    19   ar
    42    33    27   ar
    43     9    16    1
@<TRIPOS>MOLECULE
*****
 38 43 0 0 0
SMALL
GASTEIGER

@<TRIPOS>ATOM
      1 N           4.5726   -0.8822   18.2894 N.3     1  UNL1       -0.2723
      2 C           5.3767    0.3841   18.2805 C.3     1  UNL1        0.0729
      3 C           4.7678    1.6626   18.7751 C.3     1  UNL1        0.0301
      4 C           3.3549    1.6749   19.2786 C.3     1  UNL1        0.0917
      5 C           2.5508    0.4086   19.2876 C.3     1  UNL1        0.0301
      6 C           3.1597   -0.8699   18.7929 C.3     1  UNL1        0.0729
      7 C           4.0326    3.0121   19.3300 C.2     1  UNL1        0.2291
      8 O           5.4381    3.3055   18.8958 O.2     1  UNL1       -0.2745
      9 N           3.0580    4.0044   19.8919 N.am    1  UNL1       -0.2839
     10 C           1.7781    3.2804   20.1877 C.ar    1  UNL1        0.0467
     11 C           0.4691    3.7462   20.7533 C.ar    1  UNL1        0.0144
     12 C          -0.6562    2.7721   20.9398 C.ar    1  UNL1        0.0012
     13 C          -0.4728    1.3325   20.5608 C.ar    1  UNL1       -0.0002
     14 C           0.8361    0.8667   19.9953 C.ar    1  UNL1       -0.0026
     15 C           1.9616    1.8407   19.8087 C.ar    1  UNL1       -0.0010
     16 H           3.2285    4.9625   20.0404 H       1  UNL1        0.1549
     17 C          -1.9652    3.2378   21.5054 C.2     1  UNL1        0.0001
     18 C          -2.9961    3.8506   20.6043 C.2     1  UNL1        0.0027
     19 C          -2.6177    3.9508   19.1563 C.ar    1  UNL1       -0.0004
     20 C          -1.2450    3.3992   18.9091 C.ar    1  UNL1       -0.0002
     21 C          -0.6733    3.4041   17.5223 C.ar    1  UNL1       -0.0000
     22 C          -1.4744    3.9606   16.3828 C.ar    1  UNL1       -0.0002
     23 C          -2.8471    4.5122   16.6300 C.ar    1  UNL1       -0.0007
     24 C          -3.4188    4.5073   18.0167 C.ar    1  UNL1        0.0212
     25 C          -4.7961    5.1011   18.0439 C.3     1  UNL1        0.2320
     26 O          -5.7124    5.2850   19.2171 O.3     1  UNL1       -0.4706
     27 C          -5.4777    4.9205   20.6532 C.ar    1  UNL1        0.1412
     28 C          -6.6571    5.2768   21.5087 C.ar    1  UNL1        0.0665
     29 C          -6.6276    4.9948   22.9817 C.ar    1  UNL1        0.1432
     30 F          -7.8070    5.3511   23.8373 F       1  UNL1       -0.2041
     31 C          -5.4188    4.3565   23.5991 C.ar    1  UNL1        0.0298
     32 C          -4.2394    4.0001   22.7435 C.ar    1  UNL1        0.0053
     33 C          -4.2688    4.2821   21.2706 C.ar    1  UNL1        0.0341
     34 C           5.1814   -2.1607   17.7947 C.3     1  UNL1        0.0780
     35 C           5.4813   -3.2706   18.7582 C.3     1  UNL1        0.0590
     36 O           5.0301   -5.8185   18.9926 O.co2   1  UNL1       -0.5491
     37 C           4.5187   -4.4106   18.9123 C.2     1  UNL1        0.0517
     38 O           3.0446   -4.1428   18.9861 O.co2   1  UNL1       -0.5491
@<TRIPOS>UNITY_ATOM_ATTR
36 1
charge -1
@<TRIPOS>BOND
     1    36    37   ar
     2    37    38   ar
     3    37    35    1
     4    35    34    1
     5    34     1    1
     6     1     2    1
     7     2     3    1
     8     3     4    1
     9     4     5    1
    10     5     6    1
    11     4     7    1
    12     7     8    2
    13     7     9   am
    14     9    10    1
    15    10    11   ar
    16    11    12   ar
    17    12    17    1
    18    17    18    2
    19    18    19    1
    20    19    20   ar
    21    20    21   ar
    22    21    22   ar
    23    22    23   ar
    24    23    24   ar
    25    24    25    1
    26    25    26    1
    27    26    27    1
    28    27    28   ar
    29    28    29   ar
    30    29    30    1
    31    29    31   ar
    32    31    32   ar
    33    32    33   ar
    34    12    13   ar
    35    13    14   ar
    36    14    15   ar
    37     6     1    1
    38    15    10   ar
    39    15     4    1
    40    33    18    1
    41    24    19   ar
    42    33    27   ar
    43     9    16    1
