@<TRIPOS>MOLECULE
*****
 19 20 0 0 0
SMALL
GASTEIGER

@<TRIPOS>ATOM
      1 C          -6.7720  -20.2446   22.2719 C.2     1  UNL1        0.0033
      2 C          -7.8995  -19.2653   22.4121 C.2     1  UNL1        0.0435
      3 C          -2.8928  -18.9553   20.3905 C.ar    1  UNL1        0.0140
      4 C          -3.8393  -19.8356   19.6295 C.ar    1  UNL1        0.0011
      5 C          -5.1324  -20.2654   20.2567 C.ar    1  UNL1        0.0000
      6 C          -5.4789  -19.8148   21.6448 C.ar    1  UNL1        0.0001
      7 C          -4.5324  -18.9345   22.4057 C.ar    1  UNL1        0.0000
      8 C          -3.2394  -18.5048   21.7786 C.ar    1  UNL1        0.0011
      9 O          -0.3448  -18.4864   20.5839 O.co2   1  UNL1       -0.5446
     10 C          -1.5998  -18.5255   19.7634 C.2     1  UNL1        0.0729
     11 O          -1.5617  -18.1349   18.3156 O.co2   1  UNL1       -0.5446
     12 C          -9.1926  -19.6951   23.0393 C.2     1  UNL1        0.2111
     13 O          -9.2077  -20.8206   24.0307 O.2     1  UNL1       -0.2850
     14 C         -10.4706  -18.9993   22.6749 C.ar    1  UNL1        0.0961
     15 C         -11.5055  -18.4957   23.6369 C.ar    1  UNL1        0.0218
     16 C         -12.6125  -17.8701   22.8413 C.ar    1  UNL1        0.0200
     17 C         -12.2617  -17.9870   21.3875 C.ar    1  UNL1        0.0725
     18 N         -10.9380  -18.6849   21.2847 N.ar    1  UNL1       -0.3495
     19 H         -10.4598  -18.8990   20.4512 H       1  UNL1        0.1661
@<TRIPOS>UNITY_ATOM_ATTR
9 1
charge -1
@<TRIPOS>BOND
     1     9    10   ar
     2    10    11   ar
     3    10     3    1
     4     3     4   ar
     5     4     5   ar
     6     5     6   ar
     7     6     1    1
     8     1     2    2
     9     2    12    1
    10    12    13    2
    11    12    14    1
    12    14    15   ar
    13    15    16   ar
    14    16    17   ar
    15    17    18   ar
    16     6     7   ar
    17     7     8   ar
    18     8     3   ar
    19    18    14   ar
    20    18    19    1
@<TRIPOS>MOLECULE
*****
 19 20 0 0 0
SMALL
GASTEIGER

@<TRIPOS>ATOM
      1 C          -6.8104  -20.2387   22.2886 C.2     1  UNL1        0.0033
      2 C          -7.9423  -19.2606   22.3986 C.2     1  UNL1        0.0435
      3 C          -2.9246  -18.9801   20.4001 C.ar    1  UNL1        0.0140
      4 C          -3.3034  -18.4593   21.7547 C.ar    1  UNL1        0.0011
      5 C          -4.5987  -18.8788   22.3843 C.ar    1  UNL1        0.0000
      6 C          -5.5151  -19.8192   21.6591 C.ar    1  UNL1        0.0001
      7 C          -5.1363  -20.3400   20.3044 C.ar    1  UNL1        0.0000
      8 C          -3.8410  -19.9205   19.6749 C.ar    1  UNL1        0.0011
      9 O          -1.5913  -18.1681   18.3233 O.co2   1  UNL1       -0.5446
     10 C          -1.6293  -18.5606   19.7705 C.2     1  UNL1        0.0729
     11 O          -0.3721  -18.5336   20.5882 O.co2   1  UNL1       -0.5446
     12 C          -9.2376  -19.6801   23.0281 C.2     1  UNL1        0.2111
     13 O          -9.2580  -20.7979   24.0281 O.2     1  UNL1       -0.2850
     14 C         -10.5124  -18.9818   22.6575 C.ar    1  UNL1        0.0961
     15 C         -11.5956  -18.5619   23.6064 C.ar    1  UNL1        0.0218
     16 C         -12.6805  -17.9014   22.8084 C.ar    1  UNL1        0.0200
     17 C         -12.2677  -17.9130   21.3663 C.ar    1  UNL1        0.0725
     18 N         -10.9277  -18.5807   21.2731 N.ar    1  UNL1       -0.3495
     19 H         -10.4115  -18.7296   20.4481 H       1  UNL1        0.1661
@<TRIPOS>UNITY_ATOM_ATTR
9 1
charge -1
@<TRIPOS>BOND
     1     9    10   ar
     2    10    11   ar
     3    10     3    1
     4     3     4   ar
     5     4     5   ar
     6     5     6   ar
     7     6     1    1
     8     1     2    2
     9     2    12    1
    10    12    13    2
    11    12    14    1
    12    14    15   ar
    13    15    16   ar
    14    16    17   ar
    15    17    18   ar
    16     6     7   ar
    17     7     8   ar
    18     8     3   ar
    19    18    14   ar
    20    18    19    1
@<TRIPOS>MOLECULE
*****
 19 20 0 0 0
SMALL
GASTEIGER

@<TRIPOS>ATOM
      1 C          -6.6617  -19.8294   21.3174 C.2     1  UNL1        0.0033
      2 C          -7.8198  -18.9550   20.9376 C.2     1  UNL1        0.0435
      3 C          -2.4489  -18.4293   20.5806 C.ar    1  UNL1        0.0140
      4 C          -3.3592  -18.7107   19.4221 C.ar    1  UNL1        0.0011
      5 C          -4.7634  -19.1774   19.6677 C.ar    1  UNL1        0.0000
      6 C          -5.2574  -19.3627   21.0718 C.ar    1  UNL1        0.0001
      7 C          -4.3472  -19.0813   22.2303 C.ar    1  UNL1        0.0000
      8 C          -2.9429  -18.6146   21.9847 C.ar    1  UNL1        0.0011
      9 O          -0.0021  -18.9348   19.8683 O.co2   1  UNL1       -0.5446
     10 C          -1.0447  -17.9626   20.3350 C.2     1  UNL1        0.0729
     11 O          -0.6831  -16.5238   20.5562 O.co2   1  UNL1       -0.5446
     12 C          -9.2240  -19.4217   21.1832 C.2     1  UNL1        0.2111
     13 O         -10.0917  -19.8288   20.0293 O.2     1  UNL1       -0.2850
     14 C          -9.7606  -19.4813   22.5827 C.ar    1  UNL1        0.0961
     15 C         -10.9073  -18.6788   23.1222 C.ar    1  UNL1        0.0218
     16 C         -11.1002  -19.0553   24.5613 C.ar    1  UNL1        0.0200
     17 C         -10.0726  -20.0906   24.9112 C.ar    1  UNL1        0.0725
     18 N          -9.2447  -20.3538   23.6884 N.ar    1  UNL1       -0.3495
     19 H          -8.4945  -20.9880   23.6230 H       1  UNL1        0.1661
@<TRIPOS>UNITY_ATOM_ATTR
9 1
charge -1
@<TRIPOS>BOND
     1     9    10   ar
     2    10    11   ar
     3    10     3    1
     4     3     4   ar
     5     4     5   ar
     6     5     6   ar
     7     6     1    1
     8     1     2    2
     9     2    12    1
    10    12    13    2
    11    12    14    1
    12    14    15   ar
    13    15    16   ar
    14    16    17   ar
    15    17    18   ar
    16     6     7   ar
    17     7     8   ar
    18     8     3   ar
    19    18    14   ar
    20    18    19    1
@<TRIPOS>MOLECULE
*****
 19 20 0 0 0
SMALL
GASTEIGER

@<TRIPOS>ATOM
      1 C          -6.7429  -19.7345   20.1681 C.2     1  UNL1        0.0033
      2 C          -5.5393  -18.9752   20.6420 C.2     1  UNL1        0.0435
      3 C         -10.8739  -18.2260   21.1216 C.ar    1  UNL1        0.0140
      4 C          -9.7540  -18.0124   22.0962 C.ar    1  UNL1        0.0011
      5 C          -8.3770  -18.5152   21.7784 C.ar    1  UNL1        0.0000
      6 C          -8.1199  -19.2316   20.4859 C.ar    1  UNL1        0.0001
      7 C          -9.2399  -19.4453   19.5113 C.ar    1  UNL1        0.0000
      8 C         -10.6169  -18.9424   19.8291 C.ar    1  UNL1        0.0011
      9 O         -12.9464  -16.7913   20.4919 O.co2   1  UNL1       -0.5446
     10 C         -12.2509  -17.7232   21.4394 C.2     1  UNL1        0.0729
     11 O         -12.9325  -18.1523   22.7048 O.co2   1  UNL1       -0.5446
     12 C          -4.1623  -19.4780   20.3242 C.2     1  UNL1        0.2111
     13 O          -3.9551  -20.9184   19.9608 O.2     1  UNL1       -0.2850
     14 C          -2.9923  -18.5402   20.3698 C.ar    1  UNL1        0.0961
     15 C          -1.7547  -18.6329   19.5273 C.ar    1  UNL1        0.0218
     16 C          -0.8521  -17.4952   19.9026 C.ar    1  UNL1        0.0200
     17 C          -1.5319  -16.6993   20.9771 C.ar    1  UNL1        0.0725
     18 N          -2.8546  -17.3452   21.2658 N.ar    1  UNL1       -0.3495
     19 H          -3.5162  -17.0386   21.9273 H       1  UNL1        0.1661
@<TRIPOS>UNITY_ATOM_ATTR
9 1
charge -1
@<TRIPOS>BOND
     1     9    10   ar
     2    10    11   ar
     3    10     3    1
     4     3     4   ar
     5     4     5   ar
     6     5     6   ar
     7     6     1    1
     8     1     2    2
     9     2    12    1
    10    12    13    2
    11    12    14    1
    12    14    15   ar
    13    15    16   ar
    14    16    17   ar
    15    17    18   ar
    16     6     7   ar
    17     7     8   ar
    18     8     3   ar
    19    18    14   ar
    20    18    19    1
@<TRIPOS>MOLECULE
*****
 19 20 0 0 0
SMALL
GASTEIGER

@<TRIPOS>ATOM
      1 C          -6.4415  -19.3129   21.4948 C.2     1  UNL1        0.0033
      2 C          -5.6959  -19.2002   20.1981 C.2     1  UNL1        0.0435
      3 C         -10.7723  -18.1100   21.7120 C.ar    1  UNL1        0.0140
      4 C         -10.2481  -18.8082   20.4923 C.ar    1  UNL1        0.0011
      5 C          -8.8045  -19.2091   20.4199 C.ar    1  UNL1        0.0000
      6 C          -7.8851  -18.9119   21.5672 C.ar    1  UNL1        0.0001
      7 C          -8.4093  -18.2138   22.7869 C.ar    1  UNL1        0.0000
      8 C          -9.8529  -17.8128   22.8593 C.ar    1  UNL1        0.0011
      9 O         -13.0298  -18.0527   22.9966 O.co2   1  UNL1       -0.5446
     10 C         -12.2159  -17.7091   21.7844 C.2     1  UNL1        0.0729
     11 O         -12.8456  -16.9646   20.6447 O.co2   1  UNL1       -0.5446
     12 C          -4.2523  -19.6011   20.1257 C.2     1  UNL1        0.2111
     13 O          -3.8833  -21.0348   19.8845 O.2     1  UNL1       -0.2850
     14 C          -3.1777  -18.5682   20.2946 C.ar    1  UNL1        0.0961
     15 C          -1.9628  -18.4103   19.4290 C.ar    1  UNL1        0.0218
     16 C          -1.1635  -17.2565   19.9581 C.ar    1  UNL1        0.0200
     17 C          -1.8845  -16.7013   21.1506 C.ar    1  UNL1        0.0725
     18 N          -3.1293  -17.5121   21.3586 N.ar    1  UNL1       -0.3495
     19 H          -3.7972  -17.3750   22.0687 H       1  UNL1        0.1661
@<TRIPOS>UNITY_ATOM_ATTR
9 1
charge -1
@<TRIPOS>BOND
     1     9    10   ar
     2    10    11   ar
     3    10     3    1
     4     3     4   ar
     5     4     5   ar
     6     5     6   ar
     7     6     1    1
     8     1     2    2
     9     2    12    1
    10    12    13    2
    11    12    14    1
    12    14    15   ar
    13    15    16   ar
    14    16    17   ar
    15    17    18   ar
    16     6     7   ar
    17     7     8   ar
    18     8     3   ar
    19    18    14   ar
    20    18    19    1
@<TRIPOS>MOLECULE
*****
 19 20 0 0 0
SMALL
GASTEIGER

@<TRIPOS>ATOM
      1 C          -6.0626  -18.5591   22.6507 C.2     1  UNL1        0.0033
      2 C          -7.1255  -17.5213   22.4433 C.2     1  UNL1        0.0435
      3 C          -2.2150  -18.3346   20.3279 C.ar    1  UNL1        0.0140
      4 C          -2.2746  -17.8120   21.7327 C.ar    1  UNL1        0.0011
      5 C          -3.5572  -17.8869   22.5069 C.ar    1  UNL1        0.0000
      6 C          -4.7801  -18.4843   21.8764 C.ar    1  UNL1        0.0001
      7 C          -4.7204  -19.0069   20.4717 C.ar    1  UNL1        0.0000
      8 C          -3.4379  -18.9320   19.6975 C.ar    1  UNL1        0.0011
      9 O           0.3789  -18.4612   20.2534 O.co2   1  UNL1       -0.5446
     10 C          -0.9324  -18.2598   19.5537 C.2     1  UNL1        0.0729
     11 O          -0.9612  -17.9835   18.0796 O.co2   1  UNL1       -0.5446
     12 C          -8.4081  -17.5962   23.2176 C.2     1  UNL1        0.2111
     13 O          -8.5192  -16.9201   24.5519 O.2     1  UNL1       -0.2850
     14 C          -9.5796  -18.3472   22.6574 C.ar    1  UNL1        0.0961
     15 C          -9.8175  -19.8236   22.7736 C.ar    1  UNL1        0.0218
     16 C         -11.1037  -20.1426   22.0708 C.ar    1  UNL1        0.0200
     17 C         -11.6607  -18.8632   21.5202 C.ar    1  UNL1        0.0725
     18 N         -10.7187  -17.7536   21.8828 N.ar    1  UNL1       -0.3495
     19 H         -10.8288  -16.8027   21.6528 H       1  UNL1        0.1661
@<TRIPOS>UNITY_ATOM_ATTR
9 1
charge -1
@<TRIPOS>BOND
     1     9    10   ar
     2    10    11   ar
     3    10     3    1
     4     3     4   ar
     5     4     5   ar
     6     5     6   ar
     7     6     1    1
     8     1     2    2
     9     2    12    1
    10    12    13    2
    11    12    14    1
    12    14    15   ar
    13    15    16   ar
    14    16    17   ar
    15    17    18   ar
    16     6     7   ar
    17     7     8   ar
    18     8     3   ar
    19    18    14   ar
    20    18    19    1
@<TRIPOS>MOLECULE
*****
 19 20 0 0 0
SMALL
GASTEIGER

@<TRIPOS>ATOM
      1 C         -13.0771   -5.7897   19.1458 C.2     1  UNL1        0.0033
      2 C         -11.6261   -6.0117   18.8373 C.2     1  UNL1        0.0435
      3 C         -16.0325   -9.1381   18.5951 C.ar    1  UNL1        0.0140
      4 C         -16.4210   -7.9151   19.3718 C.ar    1  UNL1        0.0011
      5 C         -15.4358   -6.7990   19.5554 C.ar    1  UNL1        0.0000
      6 C         -14.0623   -6.9058   18.9622 C.ar    1  UNL1        0.0001
      7 C         -13.6738   -8.1288   18.1855 C.ar    1  UNL1        0.0000
      8 C         -14.6590   -9.2450   18.0019 C.ar    1  UNL1        0.0011
      9 O         -16.6820  -11.6367   18.8870 O.co2   1  UNL1       -0.5446
     10 C         -17.0177  -10.2543   18.4115 C.2     1  UNL1        0.0729
     11 O         -18.3385   -9.9880   17.7525 O.co2   1  UNL1       -0.5446
     12 C         -10.6410   -4.8955   19.0209 C.2     1  UNL1        0.2111
     13 O          -9.2863   -5.1784   19.5994 O.2     1  UNL1       -0.2850
     14 C         -11.0106   -3.4964   18.6259 C.ar    1  UNL1        0.0961
     15 C         -10.7339   -2.8524   17.2997 C.ar    1  UNL1        0.0218
     16 C         -11.2741   -1.4537   17.3419 C.ar    1  UNL1        0.0200
     17 C         -11.8846   -1.2332   18.6942 C.ar    1  UNL1        0.0725
     18 N         -11.7217   -2.4957   19.4877 N.ar    1  UNL1       -0.3495
     19 H         -12.0278   -2.6418   20.4120 H       1  UNL1        0.1661
@<TRIPOS>UNITY_ATOM_ATTR
9 1
charge -1
@<TRIPOS>BOND
     1     9    10   ar
     2    10    11   ar
     3    10     3    1
     4     3     4   ar
     5     4     5   ar
     6     5     6   ar
     7     6     1    1
     8     1     2    2
     9     2    12    1
    10    12    13    2
    11    12    14    1
    12    14    15   ar
    13    15    16   ar
    14    16    17   ar
    15    17    18   ar
    16     6     7   ar
    17     7     8   ar
    18     8     3   ar
    19    18    14   ar
    20    18    19    1
@<TRIPOS>MOLECULE
*****
 19 20 0 0 0
SMALL
GASTEIGER

@<TRIPOS>ATOM
      1 C          -6.4704  -17.3558   22.9001 C.2     1  UNL1        0.0033
      2 C          -5.5880  -18.5256   22.5794 C.2     1  UNL1        0.0435
      3 C         -10.9387  -17.7401   22.5313 C.ar    1  UNL1        0.0140
      4 C         -10.2881  -16.3951   22.3984 C.ar    1  UNL1        0.0011
      5 C          -8.7987  -16.2670   22.5213 C.ar    1  UNL1        0.0000
      6 C          -7.9598  -17.4839   22.7771 C.ar    1  UNL1        0.0001
      7 C          -8.6104  -18.8289   22.9100 C.ar    1  UNL1        0.0000
      8 C         -10.0999  -18.9570   22.7871 C.ar    1  UNL1        0.0011
      9 O         -13.2575  -18.1708   23.6210 O.co2   1  UNL1       -0.5446
     10 C         -12.4282  -17.8682   22.4084 C.2     1  UNL1        0.0729
     11 O         -13.0883  -17.6938   21.0728 O.co2   1  UNL1       -0.5446
     12 C          -4.0985  -18.3975   22.7023 C.2     1  UNL1        0.2111
     13 O          -3.4472  -18.4827   24.0508 O.2     1  UNL1       -0.2850
     14 C          -3.2604  -18.1841   21.4767 C.ar    1  UNL1        0.0961
     15 C          -2.1477  -17.1886   21.3318 C.ar    1  UNL1        0.0218
     16 C          -1.5875  -17.3180   19.9464 C.ar    1  UNL1        0.0200
     17 C          -2.3539  -18.3934   19.2350 C.ar    1  UNL1        0.0725
     18 N          -3.3878  -18.9287   20.1808 N.ar    1  UNL1       -0.3495
     19 H          -4.0362  -19.6433   19.9853 H       1  UNL1        0.1661
@<TRIPOS>UNITY_ATOM_ATTR
9 1
charge -1
@<TRIPOS>BOND
     1     9    10   ar
     2    10    11   ar
     3    10     3    1
     4     3     4   ar
     5     4     5   ar
     6     5     6   ar
     7     6     1    1
     8     1     2    2
     9     2    12    1
    10    12    13    2
    11    12    14    1
    12    14    15   ar
    13    15    16   ar
    14    16    17   ar
    15    17    18   ar
    16     6     7   ar
    17     7     8   ar
    18     8     3   ar
    19    18    14   ar
    20    18    19    1
@<TRIPOS>MOLECULE
*****
 19 20 0 0 0
SMALL
GASTEIGER

@<TRIPOS>ATOM
      1 C          -6.3770  -18.5353   22.6452 C.2     1  UNL1        0.0033
      2 C          -7.5023  -17.5998   22.3161 C.2     1  UNL1        0.0435
      3 C          -2.6156  -18.4874   20.1756 C.ar    1  UNL1        0.0140
      4 C          -2.5916  -17.9844   21.5885 C.ar    1  UNL1        0.0011
      5 C          -3.8454  -18.0004   22.4117 C.ar    1  UNL1        0.0000
      6 C          -5.1232  -18.5194   21.8220 C.ar    1  UNL1        0.0001
      7 C          -5.1472  -19.0224   20.4091 C.ar    1  UNL1        0.0000
      8 C          -3.8934  -19.0064   19.5859 C.ar    1  UNL1        0.0011
      9 O          -0.0608  -18.9072   19.9588 O.co2   1  UNL1       -0.5446
     10 C          -1.3617  -18.4715   19.3524 C.2     1  UNL1        0.0729
     11 O          -1.4088  -18.0198   17.9228 O.co2   1  UNL1       -0.5446
     12 C          -8.7562  -17.6157   23.1393 C.2     1  UNL1        0.2111
     13 O         -10.0346  -18.1322   22.5487 O.2     1  UNL1       -0.2850
     14 C          -8.7315  -17.1152   24.5531 C.ar    1  UNL1        0.0961
     15 C          -8.2535  -15.7663   25.0027 C.ar    1  UNL1        0.0218
     16 C          -8.4071  -15.6930   26.4930 C.ar    1  UNL1        0.0200
     17 C          -8.9800  -16.9967   26.9645 C.ar    1  UNL1        0.0725
     18 N          -9.1805  -17.8756   25.7656 N.ar    1  UNL1       -0.3495
     19 H          -9.5431  -18.7908   25.7732 H       1  UNL1        0.1661
@<TRIPOS>UNITY_ATOM_ATTR
9 1
charge -1
@<TRIPOS>BOND
     1     9    10   ar
     2    10    11   ar
     3    10     3    1
     4     3     4   ar
     5     4     5   ar
     6     5     6   ar
     7     6     1    1
     8     1     2    2
     9     2    12    1
    10    12    13    2
    11    12    14    1
    12    14    15   ar
    13    15    16   ar
    14    16    17   ar
    15    17    18   ar
    16     6     7   ar
    17     7     8   ar
    18     8     3   ar
    19    18    14   ar
    20    18    19    1
