@<TRIPOS>MOLECULE
*****
 28 31 0 0 0
SMALL
GASTEIGER

@<TRIPOS>ATOM
      1 C          -7.4779  -17.1411   23.1089 C.2     1  UNL1        0.0020
      2 C          -8.6922  -17.3675   22.2578 C.2     1  UNL1        0.0130
      3 C         -10.0391  -16.9130   22.7367 C.3     1  UNL1        0.1542
      4 C          -9.9065  -17.5939   21.4068 C.3     1  UNL1        0.0614
      5 C         -11.1207  -17.8203   20.5558 C.3     1  UNL1        0.0725
      6 N         -12.4676  -17.3657   21.0347 N.3     1  UNL1       -0.2972
      7 C         -12.6002  -16.6848   22.3646 C.3     1  UNL1        0.0725
      8 C         -11.3859  -16.4584   23.2156 C.3     1  UNL1        0.0614
      9 O         -10.1716  -16.2320   24.0667 O.3     1  UNL1       -0.4785
     10 C          -8.9574  -16.0056   24.9177 C.ar    1  UNL1        0.1386
     11 C          -9.0900  -15.3247   26.2477 C.ar    1  UNL1        0.0369
     12 C          -7.8757  -15.0983   27.0988 C.ar    1  UNL1        0.0031
     13 C          -6.5288  -15.5528   26.6199 C.ar    1  UNL1        0.0002
     14 C          -6.3962  -16.2338   25.2900 C.ar    1  UNL1        0.0030
     15 C          -7.6105  -16.4602   24.4389 C.ar    1  UNL1        0.0338
     16 H         -13.0633  -18.1931   21.0668 H       1  UNL1        0.1233
     17 C          -3.4373  -18.5047   21.6723 C.ar    1  UNL1        0.0534
     18 C          -3.5402  -17.4141   22.6969 C.ar    1  UNL1        0.0045
     19 C          -4.8871  -16.9596   23.1758 C.ar    1  UNL1        0.0001
     20 C          -6.1310  -17.5956   22.6300 C.ar    1  UNL1       -0.0001
     21 C          -6.0282  -18.6863   21.6053 C.ar    1  UNL1        0.0001
     22 C          -4.6813  -19.1408   21.1264 C.ar    1  UNL1        0.0045
     23 N          -1.1400  -17.9733   20.5814 N.am    1  UNL1       -0.3009
     24 C          -2.0904  -18.9593   21.1934 C.2     1  UNL1        0.2458
     25 O          -1.6940  -20.3998   21.3265 O.2     1  UNL1       -0.2701
     26 H          -1.4002  -17.0279   20.4940 H       1  UNL1        0.1497
     27 C           1.3833  -17.5006   20.1820 C.3     1  UNL1        0.0230
     28 C           0.2068  -18.4279   20.1025 C.3     1  UNL1        0.0898
@<TRIPOS>BOND
     1    27    28    1
     2    28    23    1
     3    23    24   am
     4    24    25    2
     5    24    17    1
     6    17    18   ar
     7    18    19   ar
     8    19    20   ar
     9    20     1    1
    10     1     2    2
    11     2     3    1
    12     3     4    1
    13     4     5    1
    14     5     6    1
    15     6     7    1
    16     7     8    1
    17     3     9    1
    18     9    10    1
    19    10    11   ar
    20    11    12   ar
    21    12    13   ar
    22    13    14   ar
    23    14    15   ar
    24    20    21   ar
    25    21    22   ar
    26    22    17   ar
    27    15     1    1
    28     8     3    1
    29    15    10   ar
    30    23    26    1
    31     6    16    1
@<TRIPOS>MOLECULE
*****
 28 31 0 0 0
SMALL
GASTEIGER

@<TRIPOS>ATOM
      1 C           3.9116    0.7332   34.3549 C.2     1  UNL1        0.0020
      2 C           4.0000    1.0172   35.8252 C.2     1  UNL1        0.0130
      3 C           3.1596    2.1017   36.4314 C.3     1  UNL1        0.1542
      4 C           4.0884    1.3012   37.2953 C.3     1  UNL1        0.0614
      5 C           4.1768    1.5853   38.7655 C.3     1  UNL1        0.0725
      6 N           3.3363    2.6698   39.3717 N.3     1  UNL1       -0.2972
      7 C           2.4075    3.4702   38.5078 C.3     1  UNL1        0.0725
      8 C           2.3191    3.1862   37.0376 C.3     1  UNL1        0.0614
      9 O           2.2307    2.9022   35.5673 O.3     1  UNL1       -0.4785
     10 C           2.1423    2.6182   34.0971 C.ar    1  UNL1        0.1386
     11 C           1.2135    3.4186   33.2331 C.ar    1  UNL1        0.0369
     12 C           1.1251    3.1346   31.7629 C.ar    1  UNL1        0.0031
     13 C           1.9656    2.0501   31.1567 C.ar    1  UNL1        0.0002
     14 C           2.8944    1.2496   32.0207 C.ar    1  UNL1        0.0030
     15 C           2.9828    1.5337   33.4909 C.ar    1  UNL1        0.0338
     16 H           3.9789    3.3323   39.8059 H       1  UNL1        0.1233
     17 C           6.4330   -2.5203   32.5363 C.ar    1  UNL1        0.0534
     18 C           5.0435   -2.8255   33.0117 C.ar    1  UNL1        0.0045
     19 C           4.2031   -1.7410   33.6179 C.ar    1  UNL1        0.0001
     20 C           4.7521   -0.3513   33.7487 C.ar    1  UNL1       -0.0001
     21 C           6.1416   -0.0460   33.2732 C.ar    1  UNL1        0.0001
     22 C           6.9821   -1.1305   32.6670 C.ar    1  UNL1        0.0045
     23 N           6.6178   -4.7768   31.2619 N.am    1  UNL1       -0.3009
     24 C           7.2735   -3.6048   31.9300 C.2     1  UNL1        0.2458
     25 O           8.7697   -3.5172   31.9920 O.2     1  UNL1       -0.2701
     26 H           5.6358   -4.8342   31.2212 H       1  UNL1        0.1497
     27 C           7.4959   -6.0370   29.1664 C.3     1  UNL1        0.0230
     28 C           7.4583   -5.8613   30.6557 C.3     1  UNL1        0.0898
@<TRIPOS>BOND
     1    27    28    1
     2    28    23    1
     3    23    24   am
     4    24    25    2
     5    24    17    1
     6    17    18   ar
     7    18    19   ar
     8    19    20   ar
     9    20     1    1
    10     1     2    2
    11     2     3    1
    12     3     4    1
    13     4     5    1
    14     5     6    1
    15     6     7    1
    16     7     8    1
    17     3     9    1
    18     9    10    1
    19    10    11   ar
    20    11    12   ar
    21    12    13   ar
    22    13    14   ar
    23    14    15   ar
    24    20    21   ar
    25    21    22   ar
    26    22    17   ar
    27    15     1    1
    28     8     3    1
    29    15    10   ar
    30    23    26    1
    31     6    16    1
@<TRIPOS>MOLECULE
*****
 28 31 0 0 0
SMALL
GASTEIGER

@<TRIPOS>ATOM
      1 C           3.8929    0.0927   19.9285 C.2     1  UNL1        0.0020
      2 C           4.5196    1.1733   19.0980 C.2     1  UNL1        0.0130
      3 C           5.4231    0.8129   17.9562 C.3     1  UNL1        0.1542
      4 C           5.1462    2.2538   18.2674 C.3     1  UNL1        0.0614
      5 C           5.7728    3.3344   17.4369 C.3     1  UNL1        0.0725
      6 N           6.6763    2.9739   16.2951 N.3     1  UNL1       -0.2972
      7 C           6.9533    1.5330   15.9839 C.3     1  UNL1        0.0725
      8 C           6.3266    0.4525   16.8144 C.3     1  UNL1        0.0614
      9 O           5.7000   -0.6281   17.6449 O.3     1  UNL1       -0.4785
     10 C           5.0734   -1.7086   18.4754 C.ar    1  UNL1        0.1386
     11 C           5.3503   -3.1497   18.1641 C.ar    1  UNL1        0.0369
     12 C           4.7237   -4.2302   18.9946 C.ar    1  UNL1        0.0031
     13 C           3.8201   -3.8698   20.1364 C.ar    1  UNL1        0.0002
     14 C           3.5432   -2.4288   20.4477 C.ar    1  UNL1        0.0030
     15 C           4.1698   -1.3482   19.6172 C.ar    1  UNL1        0.0338
     16 H           7.5776    3.4131   16.4829 H       1  UNL1        0.1233
     17 C           1.1823    1.1740   23.3539 C.ar    1  UNL1        0.0534
     18 C           2.6591    1.0402   23.5795 C.ar    1  UNL1        0.0045
     19 C           3.5627    0.6797   22.4377 C.ar    1  UNL1        0.0001
     20 C           2.9894    0.4532   21.0703 C.ar    1  UNL1       -0.0001
     21 C           1.5125    0.5870   20.8446 C.ar    1  UNL1        0.0001
     22 C           0.6089    0.9474   21.9864 C.ar    1  UNL1        0.0045
     23 N           0.4084    0.8210   25.8087 N.am    1  UNL1       -0.3009
     24 C           0.2788    1.5344   24.4957 C.2     1  UNL1        0.2458
     25 O          -0.7545    2.6084   24.3243 O.2     1  UNL1       -0.2701
     26 H           1.0865    0.1162   25.9212 H       1  UNL1        0.1497
     27 C          -0.5968    0.2752   28.1415 C.3     1  UNL1        0.0230
     28 C          -0.4952    1.1815   26.9505 C.3     1  UNL1        0.0898
@<TRIPOS>BOND
     1    27    28    1
     2    28    23    1
     3    23    24   am
     4    24    25    2
     5    24    17    1
     6    17    18   ar
     7    18    19   ar
     8    19    20   ar
     9    20     1    1
    10     1     2    2
    11     2     3    1
    12     3     4    1
    13     4     5    1
    14     5     6    1
    15     6     7    1
    16     7     8    1
    17     3     9    1
    18     9    10    1
    19    10    11   ar
    20    11    12   ar
    21    12    13   ar
    22    13    14   ar
    23    14    15   ar
    24    20    21   ar
    25    21    22   ar
    26    22    17   ar
    27    15     1    1
    28     8     3    1
    29    15    10   ar
    30    23    26    1
    31     6    16    1
@<TRIPOS>MOLECULE
*****
 28 31 0 0 0
SMALL
GASTEIGER

@<TRIPOS>ATOM
      1 C           6.7989   -4.1024   24.8448 C.2     1  UNL1        0.0020
      2 C           6.3767   -3.2298   25.9896 C.2     1  UNL1        0.0130
      3 C           6.6900   -3.6375   27.3987 C.3     1  UNL1        0.1542
      4 C           5.9546   -2.3572   27.1343 C.3     1  UNL1        0.0614
      5 C           5.5324   -1.4847   28.2790 C.3     1  UNL1        0.0725
      6 N           5.8457   -1.8924   29.6881 N.3     1  UNL1       -0.2972
      7 C           6.5811   -3.1727   29.9525 C.3     1  UNL1        0.0725
      8 C           7.0033   -4.0453   28.8078 C.3     1  UNL1        0.0614
      9 O           7.4255   -4.9179   27.6631 O.3     1  UNL1       -0.4785
     10 C           7.8476   -5.7904   26.5184 C.ar    1  UNL1        0.1386
     11 C           8.5831   -7.0708   26.7827 C.ar    1  UNL1        0.0369
     12 C           9.0053   -7.9433   25.6380 C.ar    1  UNL1        0.0031
     13 C           8.6920   -7.5356   24.2289 C.ar    1  UNL1        0.0002
     14 C           7.9566   -6.2553   23.9645 C.ar    1  UNL1        0.0030
     15 C           7.5344   -5.3827   25.1092 C.ar    1  UNL1        0.0338
     16 H           4.9549   -1.9574   30.1808 H       1  UNL1        0.1233
     17 C           5.8591   -2.8792   20.6175 C.ar    1  UNL1        0.0534
     18 C           7.2553   -2.7362   21.1468 C.ar    1  UNL1        0.0045
     19 C           7.5685   -3.1440   22.5559 C.ar    1  UNL1        0.0001
     20 C           6.4857   -3.6947   23.4357 C.ar    1  UNL1       -0.0001
     21 C           5.0894   -3.8377   22.9064 C.ar    1  UNL1        0.0001
     22 C           4.7761   -3.4299   21.4973 C.ar    1  UNL1        0.0045
     23 N           5.4457   -1.0177   18.8529 N.am    1  UNL1       -0.3009
     24 C           5.5458   -2.4715   19.2084 C.2     1  UNL1        0.2458
     25 O           5.3326   -3.5176   18.1547 O.2     1  UNL1       -0.2701
     26 H           5.5857   -0.3311   19.5445 H       1  UNL1        0.1497
     27 C           3.7215   -0.6789   16.9392 C.3     1  UNL1        0.0230
     28 C           5.1325   -0.6099   17.4438 C.3     1  UNL1        0.0898
@<TRIPOS>BOND
     1    27    28    1
     2    28    23    1
     3    23    24   am
     4    24    25    2
     5    24    17    1
     6    17    18   ar
     7    18    19   ar
     8    19    20   ar
     9    20     1    1
    10     1     2    2
    11     2     3    1
    12     3     4    1
    13     4     5    1
    14     5     6    1
    15     6     7    1
    16     7     8    1
    17     3     9    1
    18     9    10    1
    19    10    11   ar
    20    11    12   ar
    21    12    13   ar
    22    13    14   ar
    23    14    15   ar
    24    20    21   ar
    25    21    22   ar
    26    22    17   ar
    27    15     1    1
    28     8     3    1
    29    15    10   ar
    30    23    26    1
    31     6    16    1
@<TRIPOS>MOLECULE
*****
 28 31 0 0 0
SMALL
GASTEIGER

@<TRIPOS>ATOM
      1 C           3.6815    1.0385   34.0965 C.2     1  UNL1        0.0020
      2 C           2.8542    1.8142   33.1147 C.2     1  UNL1        0.0130
      3 C           1.9827    2.9382   33.5913 C.3     1  UNL1        0.1542
      4 C           2.0269    2.5899   32.1329 C.3     1  UNL1        0.0614
      5 C           1.1996    3.3656   31.1512 C.3     1  UNL1        0.0725
      6 N           0.3281    4.4896   31.6278 N.3     1  UNL1       -0.2972
      7 C           0.2839    4.8379   33.0861 C.3     1  UNL1        0.0725
      8 C           1.1111    4.0621   34.0678 C.3     1  UNL1        0.0614
      9 O           1.9385    3.2864   35.0497 O.3     1  UNL1       -0.4785
     10 C           2.7657    2.5107   36.0314 C.ar    1  UNL1        0.1386
     11 C           2.7215    2.8589   37.4898 C.ar    1  UNL1        0.0369
     12 C           3.5488    2.0832   38.4715 C.ar    1  UNL1        0.0031
     13 C           4.4203    0.9592   37.9949 C.ar    1  UNL1        0.0002
     14 C           4.4646    0.6110   36.5366 C.ar    1  UNL1        0.0030
     15 C           3.6372    1.3867   35.5548 C.ar    1  UNL1        0.0338
     16 H          -0.6263    4.2599   31.3509 H       1  UNL1        0.1233
     17 C           6.2960   -2.3335   32.6667 C.ar    1  UNL1        0.0534
     18 C           6.8410   -0.9375   32.7316 C.ar    1  UNL1        0.0045
     19 C           5.9695    0.1864   33.2082 C.ar    1  UNL1        0.0001
     20 C           4.5530   -0.0855   33.6199 C.ar    1  UNL1       -0.0001
     21 C           4.0079   -1.4815   33.5550 C.ar    1  UNL1        0.0001
     22 C           4.8794   -2.6055   33.0784 C.ar    1  UNL1        0.0045
     23 N           6.5781   -4.8172   31.9586 N.am    1  UNL1       -0.3009
     24 C           7.1675   -3.4575   32.1901 C.2     1  UNL1        0.2458
     25 O           8.6285   -3.2216   31.9450 O.2     1  UNL1       -0.2701
     26 H           5.6193   -4.9720   32.1195 H       1  UNL1        0.1497
     27 C           7.7568   -6.0843   30.0208 C.3     1  UNL1        0.0230
     28 C           7.4496   -5.9412   31.4821 C.3     1  UNL1        0.0898
@<TRIPOS>BOND
     1    27    28    1
     2    28    23    1
     3    23    24   am
     4    24    25    2
     5    24    17    1
     6    17    18   ar
     7    18    19   ar
     8    19    20   ar
     9    20     1    1
    10     1     2    2
    11     2     3    1
    12     3     4    1
    13     4     5    1
    14     5     6    1
    15     6     7    1
    16     7     8    1
    17     3     9    1
    18     9    10    1
    19    10    11   ar
    20    11    12   ar
    21    12    13   ar
    22    13    14   ar
    23    14    15   ar
    24    20    21   ar
    25    21    22   ar
    26    22    17   ar
    27    15     1    1
    28     8     3    1
    29    15    10   ar
    30    23    26    1
    31     6    16    1
@<TRIPOS>MOLECULE
*****
 28 31 0 0 0
SMALL
GASTEIGER

@<TRIPOS>ATOM
      1 C           3.3924   -1.1487   21.8863 C.2     1  UNL1        0.0020
      2 C           3.7777   -1.2999   23.3281 C.2     1  UNL1        0.0130
      3 C           4.8326   -2.2907   23.7226 C.3     1  UNL1        0.1542
      4 C           4.1631   -1.4511   24.7699 C.3     1  UNL1        0.0614
      5 C           4.5484   -1.6022   26.2116 C.3     1  UNL1        0.0725
      6 N           5.6032   -2.5930   26.6061 N.3     1  UNL1       -0.2972
      7 C           6.2728   -3.4327   25.5588 C.3     1  UNL1        0.0725
      8 C           5.8874   -3.2815   24.1171 C.3     1  UNL1        0.0614
      9 O           5.5021   -3.1303   22.6753 O.3     1  UNL1       -0.4785
     10 C           5.1167   -2.9791   21.2336 C.ar    1  UNL1        0.1386
     11 C           5.7863   -3.8188   20.1862 C.ar    1  UNL1        0.0369
     12 C           5.4009   -3.6676   18.7445 C.ar    1  UNL1        0.0031
     13 C           4.3461   -2.6768   18.3500 C.ar    1  UNL1        0.0002
     14 C           3.6766   -1.8372   19.3973 C.ar    1  UNL1        0.0030
     15 C           4.0619   -1.9884   20.8391 C.ar    1  UNL1        0.0338
     16 H           5.1695   -3.2374   27.2671 H       1  UNL1        0.1233
     17 C           0.2278    1.8236   20.7029 C.ar    1  UNL1        0.0534
     18 C           0.1340    0.4018   20.2345 C.ar    1  UNL1        0.0045
     19 C           1.1888   -0.5890   20.6290 C.ar    1  UNL1        0.0001
     20 C           2.3375   -0.1579   21.4918 C.ar    1  UNL1       -0.0001
     21 C           2.4314    1.2640   21.9603 C.ar    1  UNL1        0.0001
     22 C           1.3766    2.2548   21.5658 C.ar    1  UNL1        0.0045
     23 N          -2.1777    2.7710   20.9592 N.am    1  UNL1       -0.3009
     24 C          -0.8270    2.8144   20.3084 C.2     1  UNL1        0.2458
     25 O          -0.5311    3.8487   19.2630 O.2     1  UNL1       -0.2701
     26 H          -2.3720    2.0921   21.6453 H       1  UNL1        0.1497
     27 C          -4.6717    3.3423   20.5077 C.3     1  UNL1        0.0230
     28 C          -3.2326    3.7617   20.5647 C.3     1  UNL1        0.0898
@<TRIPOS>BOND
     1    27    28    1
     2    28    23    1
     3    23    24   am
     4    24    25    2
     5    24    17    1
     6    17    18   ar
     7    18    19   ar
     8    19    20   ar
     9    20     1    1
    10     1     2    2
    11     2     3    1
    12     3     4    1
    13     4     5    1
    14     5     6    1
    15     6     7    1
    16     7     8    1
    17     3     9    1
    18     9    10    1
    19    10    11   ar
    20    11    12   ar
    21    12    13   ar
    22    13    14   ar
    23    14    15   ar
    24    20    21   ar
    25    21    22   ar
    26    22    17   ar
    27    15     1    1
    28     8     3    1
    29    15    10   ar
    30    23    26    1
    31     6    16    1
@<TRIPOS>MOLECULE
*****
 28 31 0 0 0
SMALL
GASTEIGER

@<TRIPOS>ATOM
      1 C           2.8451    1.0043   19.0511 C.2     1  UNL1        0.0020
      2 C           3.0910   -0.4691   19.1883 C.2     1  UNL1        0.0130
      3 C           4.3589   -1.0704   18.6583 C.3     1  UNL1        0.1542
      4 C           3.3370   -1.9424   19.3255 C.3     1  UNL1        0.0614
      5 C           3.5830   -3.4157   19.4627 C.3     1  UNL1        0.0725
      6 N           4.8509   -4.0169   18.9326 N.3     1  UNL1       -0.2972
      7 C           5.8727   -3.1449   18.2654 C.3     1  UNL1        0.0725
      8 C           5.6268   -1.6716   18.1282 C.3     1  UNL1        0.0614
      9 O           5.3808   -0.1983   17.9910 O.3     1  UNL1       -0.4785
     10 C           5.1348    1.2750   17.8538 C.ar    1  UNL1        0.1386
     11 C           6.1567    2.1471   17.1865 C.ar    1  UNL1        0.0369
     12 C           5.9108    3.6204   17.0493 C.ar    1  UNL1        0.0031
     13 C           4.6429    4.2217   17.5794 C.ar    1  UNL1        0.0002
     14 C           3.6210    3.3497   18.2466 C.ar    1  UNL1        0.0030
     15 C           3.8669    1.8763   18.3838 C.ar    1  UNL1        0.0338
     16 H           4.5784   -4.7254   18.2513 H       1  UNL1        0.1233
     17 C          -0.9586    2.8081   20.6413 C.ar    1  UNL1        0.0534
     18 C           0.0615    2.2518   21.5899 C.ar    1  UNL1        0.0045
     19 C           1.3294    1.6505   21.0598 C.ar    1  UNL1        0.0001
     20 C           1.5772    1.6055   19.5812 C.ar    1  UNL1       -0.0001
     21 C           0.5570    2.1618   18.6325 C.ar    1  UNL1        0.0001
     22 C          -0.7108    2.7631   19.1625 C.ar    1  UNL1        0.0045
     23 N          -3.5489    2.7838   20.8401 N.am    1  UNL1       -0.3009
     24 C          -2.2264    3.4093   21.1714 C.2     1  UNL1        0.2458
     25 O          -2.1718    4.6362   22.0328 O.2     1  UNL1       -0.2701
     26 H          -3.5847    1.9786   20.2747 H       1  UNL1        0.1497
     27 C          -5.1941    3.1920   22.8091 C.3     1  UNL1        0.0230
     28 C          -4.8168    3.3851   21.3701 C.3     1  UNL1        0.0898
@<TRIPOS>BOND
     1    27    28    1
     2    28    23    1
     3    23    24   am
     4    24    25    2
     5    24    17    1
     6    17    18   ar
     7    18    19   ar
     8    19    20   ar
     9    20     1    1
    10     1     2    2
    11     2     3    1
    12     3     4    1
    13     4     5    1
    14     5     6    1
    15     6     7    1
    16     7     8    1
    17     3     9    1
    18     9    10    1
    19    10    11   ar
    20    11    12   ar
    21    12    13   ar
    22    13    14   ar
    23    14    15   ar
    24    20    21   ar
    25    21    22   ar
    26    22    17   ar
    27    15     1    1
    28     8     3    1
    29    15    10   ar
    30    23    26    1
    31     6    16    1
@<TRIPOS>MOLECULE
*****
 28 31 0 0 0
SMALL
GASTEIGER

@<TRIPOS>ATOM
      1 C          -1.4856    3.0023   26.1347 C.2     1  UNL1        0.0020
      2 C          -2.7628    3.7342   26.4232 C.2     1  UNL1        0.0130
      3 C          -3.5740    4.3003   25.2955 C.3     1  UNL1        0.1542
      4 C          -4.0399    4.4662   26.7116 C.3     1  UNL1        0.0614
      5 C          -5.3170    5.1981   27.0000 C.3     1  UNL1        0.0725
      6 N          -6.1282    5.7641   25.8724 N.3     1  UNL1       -0.2972
      7 C          -5.6623    5.5982   24.4563 C.3     1  UNL1        0.0725
      8 C          -4.3852    4.8663   24.1678 C.3     1  UNL1        0.0614
      9 O          -3.1080    4.1343   23.8794 O.3     1  UNL1       -0.4785
     10 C          -1.8309    3.4024   23.5909 C.ar    1  UNL1        0.1386
     11 C          -1.3649    3.2364   22.1748 C.ar    1  UNL1        0.0369
     12 C          -0.0878    2.5045   21.8863 C.ar    1  UNL1        0.0031
     13 C           0.7233    1.9384   23.0140 C.ar    1  UNL1        0.0002
     14 C           0.2574    2.1044   24.4301 C.ar    1  UNL1        0.0030
     15 C          -1.0197    2.8363   24.7186 C.ar    1  UNL1        0.0338
     16 H          -6.2070    6.7670   26.0408 H       1  UNL1        0.1233
     17 C           0.9479    1.3042   29.5176 C.ar    1  UNL1        0.0534
     18 C           1.2506    2.6755   28.9906 C.ar    1  UNL1        0.0045
     19 C           0.4394    3.2416   27.8629 C.ar    1  UNL1        0.0001
     20 C          -0.6745    2.4362   27.2623 C.ar    1  UNL1       -0.0001
     21 C          -0.9772    1.0648   27.7893 C.ar    1  UNL1        0.0001
     22 C          -0.1660    0.4988   28.9170 C.ar    1  UNL1        0.0045
     23 N           2.6905   -0.4108   30.3962 N.am    1  UNL1       -0.3009
     24 C           1.7591    0.7382   30.6453 C.2     1  UNL1        0.2458
     25 O           1.6388    1.3213   32.0221 O.2     1  UNL1       -0.2701
     26 H           2.7695   -0.7935   29.4925 H       1  UNL1        0.1497
     27 C           4.9691   -0.6794   31.6152 C.3     1  UNL1        0.0230
     28 C           3.5017   -0.9769   31.5238 C.3     1  UNL1        0.0898
@<TRIPOS>BOND
     1    27    28    1
     2    28    23    1
     3    23    24   am
     4    24    25    2
     5    24    17    1
     6    17    18   ar
     7    18    19   ar
     8    19    20   ar
     9    20     1    1
    10     1     2    2
    11     2     3    1
    12     3     4    1
    13     4     5    1
    14     5     6    1
    15     6     7    1
    16     7     8    1
    17     3     9    1
    18     9    10    1
    19    10    11   ar
    20    11    12   ar
    21    12    13   ar
    22    13    14   ar
    23    14    15   ar
    24    20    21   ar
    25    21    22   ar
    26    22    17   ar
    27    15     1    1
    28     8     3    1
    29    15    10   ar
    30    23    26    1
    31     6    16    1
@<TRIPOS>MOLECULE
*****
 28 31 0 0 0
SMALL
GASTEIGER

@<TRIPOS>ATOM
      1 C          -0.3619    2.2846   21.3637 C.2     1  UNL1        0.0020
      2 C          -1.5330    2.9003   20.6569 C.2     1  UNL1        0.0130
      3 C          -2.5314    3.7127   21.4271 C.3     1  UNL1        0.1542
      4 C          -2.7040    3.5161   19.9502 C.3     1  UNL1        0.0614
      5 C          -3.8750    4.1318   19.2434 C.3     1  UNL1        0.0725
      6 N          -4.8734    4.9441   20.0137 N.3     1  UNL1       -0.2972
      7 C          -4.7008    5.1408   21.4906 C.3     1  UNL1        0.0725
      8 C          -3.5298    4.5251   22.1974 C.3     1  UNL1        0.0614
      9 O          -2.3587    3.9093   22.9042 O.3     1  UNL1       -0.4785
     10 C          -1.1876    3.2936   23.6109 C.ar    1  UNL1        0.1386
     11 C          -1.0150    3.4903   25.0880 C.ar    1  UNL1        0.0369
     12 C           0.1561    2.8746   25.7947 C.ar    1  UNL1        0.0031
     13 C           1.1545    2.0622   25.0245 C.ar    1  UNL1        0.0002
     14 C           0.9819    1.8655   23.5475 C.ar    1  UNL1        0.0030
     15 C          -0.1892    2.4813   22.8407 C.ar    1  UNL1        0.0338
     16 H          -5.7813    4.4987   19.8800 H       1  UNL1        0.1233
     17 C           2.6333   -0.1525   19.0530 C.ar    1  UNL1        0.0534
     18 C           1.5527   -0.8378   19.8357 C.ar    1  UNL1        0.0045
     19 C           0.5543   -0.0254   20.6059 C.ar    1  UNL1        0.0001
     20 C           0.6365    1.4723   20.5935 C.ar    1  UNL1       -0.0001
     21 C           1.7172    2.1576   19.8108 C.ar    1  UNL1        0.0001
     22 C           2.7156    1.3453   19.0406 C.ar    1  UNL1        0.0045
     23 N           4.4661   -1.9928   18.9879 N.am    1  UNL1       -0.3009
     24 C           3.6317   -0.9648   18.2828 C.2     1  UNL1        0.2458
     25 O           3.7958   -0.7492   16.8074 O.2     1  UNL1       -0.2701
     26 H           4.3584   -2.1343   19.9562 H       1  UNL1        0.1497
     27 C           6.8650   -2.2986   18.0382 C.3     1  UNL1        0.0230
     28 C           5.4645   -2.8051   18.2176 C.3     1  UNL1        0.0898
@<TRIPOS>BOND
     1    27    28    1
     2    28    23    1
     3    23    24   am
     4    24    25    2
     5    24    17    1
     6    17    18   ar
     7    18    19   ar
     8    19    20   ar
     9    20     1    1
    10     1     2    2
    11     2     3    1
    12     3     4    1
    13     4     5    1
    14     5     6    1
    15     6     7    1
    16     7     8    1
    17     3     9    1
    18     9    10    1
    19    10    11   ar
    20    11    12   ar
    21    12    13   ar
    22    13    14   ar
    23    14    15   ar
    24    20    21   ar
    25    21    22   ar
    26    22    17   ar
    27    15     1    1
    28     8     3    1
    29    15    10   ar
    30    23    26    1
    31     6    16    1
