@<TRIPOS>MOLECULE
*****
 32 34 0 0 0
SMALL
GASTEIGER

@<TRIPOS>ATOM
      1 C           6.9841   -0.1802   36.1088 C.3     1  UNL1        0.0317
      2 C           6.3519   -0.2533   34.7506 C.ar    1  UNL1       -0.0133
      3 C           7.0831   -0.9095   33.6172 C.ar    1  UNL1        0.0112
      4 C           6.4509   -0.9826   32.2589 C.ar    1  UNL1        0.0537
      5 C           5.0872   -0.3994   32.0340 C.ar    1  UNL1        0.0112
      6 C           4.3560    0.2569   33.1674 C.ar    1  UNL1       -0.0133
      7 C           2.9925    0.8400   32.9425 C.3     1  UNL1        0.0317
      8 C           4.9882    0.3299   34.5257 C.ar    1  UNL1        0.0338
      9 N           7.1821   -1.6388   31.1256 N.am    1  UNL1       -0.2511
     10 C           7.8583   -0.7090   30.1621 C.3     1  UNL1        0.1458
     11 C           8.6599   -1.0488   28.9406 C.3     1  UNL1        0.2289
     12 O           8.9833   -2.4024   28.3810 O.3     1  UNL1       -0.4581
     13 C           8.5850   -3.7505   28.9045 C.ar    1  UNL1        0.2335
     14 N           9.1203   -4.8539   28.0408 N.ar    1  UNL1       -0.1891
     15 C           8.8354   -6.2847   28.3896 C.ar    1  UNL1        0.2027
     16 N           8.0153   -6.6121   29.6021 N.ar    1  UNL1       -0.2091
     17 C           7.4801   -5.5087   30.4659 C.ar    1  UNL1        0.1361
     18 N           6.6600   -5.8361   31.6784 N.pl3   1  UNL1       -0.3423
     19 C           7.7650   -4.0779   30.1171 C.ar    1  UNL1        0.1380
     20 C           7.1406   -3.1381   31.1055 C.2     1  UNL1        0.2601
     21 O           6.3733   -3.7829   32.2215 O.2     1  UNL1       -0.2693
     22 H           6.4731   -6.7752   31.9074 H       1  UNL1        0.1437
     23 H           6.3087   -5.1119   32.2453 H       1  UNL1        0.1437
     24 C           4.2570    0.9862   35.6590 C.1     1  UNL1       -0.0651
     25 C           3.5256    1.6425   36.7924 C.1     1  UNL1       -0.0880
     26 C           2.7944    2.2987   37.9257 C.3     1  UNL1        0.0595
     27 C           2.2723    3.3432   36.9841 C.3     1  UNL1        0.0134
     28 C           3.3163    1.2543   38.8673 C.3     1  UNL1        0.0134
     29 C           2.0630    2.9550   39.0591 C.3     1  UNL1        0.0537
     30 C           0.8901    2.2675   39.6929 C.2     1  UNL1        0.0513
     31 O           0.6724    2.3676   41.1736 O.co2   1  UNL1       -0.5491
     32 O          -0.0650    1.4799   38.8459 O.co2   1  UNL1       -0.5491
@<TRIPOS>UNITY_ATOM_ATTR
31 1
charge -1
@<TRIPOS>BOND
     1     1     2    1
     2     2     3   ar
     3     3     4   ar
     4     4     9    1
     5     9    10    1
     6    10    11    1
     7    11    12    1
     8    12    13    1
     9    13    14   ar
    10    14    15   ar
    11    15    16   ar
    12    16    17   ar
    13    17    18    1
    14    17    19   ar
    15    19    20    1
    16    20    21    2
    17     4     5   ar
    18     5     6   ar
    19     6     7    1
    20     6     8   ar
    21     8    24    1
    22    24    25    3
    23    25    26    1
    24    26    27    1
    25    26    28    1
    26    26    29    1
    27    29    30    1
    28    30    31   ar
    29    30    32   ar
    30     8     2   ar
    31    20     9   am
    32    19    13   ar
    33    18    22    1
    34    18    23    1
@<TRIPOS>MOLECULE
*****
 32 34 0 0 0
SMALL
GASTEIGER

@<TRIPOS>ATOM
      1 C          -5.1287    4.0463   25.4815 C.3     1  UNL1        0.0317
      2 C          -3.6490    3.8839   25.2963 C.ar    1  UNL1       -0.0133
      3 C          -2.7455    3.8246   26.4922 C.ar    1  UNL1        0.0112
      4 C          -1.2659    3.6621   26.3070 C.ar    1  UNL1        0.0537
      5 C          -0.6897    3.5590   24.9259 C.ar    1  UNL1        0.0112
      6 C          -1.5932    3.6183   23.7300 C.ar    1  UNL1       -0.0133
      7 C          -1.0171    3.5152   22.3490 C.3     1  UNL1        0.0317
      8 C          -3.0728    3.7808   23.9152 C.ar    1  UNL1        0.0338
      9 N          -0.3624    3.6028   27.5029 N.am    1  UNL1       -0.2511
     10 C           0.0782    4.9274   28.0520 C.3     1  UNL1        0.1458
     11 C           0.9711    5.2031   29.2254 C.3     1  UNL1        0.2289
     12 O           1.6438    4.2223   30.1395 O.3     1  UNL1       -0.4581
     13 C           1.5898    2.7236   30.1060 C.ar    1  UNL1        0.2335
     14 N           2.4111    2.1209   31.2069 N.ar    1  UNL1       -0.1891
     15 C           2.4924    0.6302   31.3520 C.ar    1  UNL1        0.2027
     16 N           1.7524   -0.2579   30.3961 N.ar    1  UNL1       -0.2091
     17 C           0.9311    0.3448   29.2951 C.ar    1  UNL1        0.1361
     18 N           0.1911   -0.5432   28.3392 N.pl3   1  UNL1       -0.3423
     19 C           0.8498    1.8356   29.1501 C.ar    1  UNL1        0.1380
     20 C          -0.0190    2.2269   27.9916 C.2     1  UNL1        0.2601
     21 O          -0.6245    1.0922   27.2197 O.2     1  UNL1       -0.2693
     22 H           0.2445   -1.5216   28.4344 H       1  UNL1        0.1437
     23 H          -0.3479   -0.1476   27.6166 H       1  UNL1        0.1437
     24 C          -3.9763    3.8401   22.7193 C.1     1  UNL1       -0.0651
     25 C          -4.8798    3.8994   21.5233 C.1     1  UNL1       -0.0880
     26 C          -5.7833    3.9587   20.3275 C.3     1  UNL1        0.0595
     27 C          -4.6589    3.4853   19.4545 C.3     1  UNL1        0.0134
     28 C          -6.9075    4.4319   21.2003 C.3     1  UNL1        0.0134
     29 C          -6.6867    4.0180   19.1315 C.3     1  UNL1        0.0537
     30 C          -7.2037    5.3401   18.6470 C.2     1  UNL1        0.0513
     31 O          -8.6573    5.5003   18.3132 O.co2   1  UNL1       -0.5491
     32 O          -6.2670    6.5020   18.4962 O.co2   1  UNL1       -0.5491
@<TRIPOS>UNITY_ATOM_ATTR
31 1
charge -1
@<TRIPOS>BOND
     1     1     2    1
     2     2     3   ar
     3     3     4   ar
     4     4     9    1
     5     9    10    1
     6    10    11    1
     7    11    12    1
     8    12    13    1
     9    13    14   ar
    10    14    15   ar
    11    15    16   ar
    12    16    17   ar
    13    17    18    1
    14    17    19   ar
    15    19    20    1
    16    20    21    2
    17     4     5   ar
    18     5     6   ar
    19     6     7    1
    20     6     8   ar
    21     8    24    1
    22    24    25    3
    23    25    26    1
    24    26    27    1
    25    26    28    1
    26    26    29    1
    27    29    30    1
    28    30    31   ar
    29    30    32   ar
    30     8     2   ar
    31    20     9   am
    32    19    13   ar
    33    18    22    1
    34    18    23    1
@<TRIPOS>MOLECULE
*****
 32 34 0 0 0
SMALL
GASTEIGER

@<TRIPOS>ATOM
      1 C           1.8291    4.0220   27.6486 C.3     1  UNL1        0.0317
      2 C           1.4986    2.7578   28.3851 C.ar    1  UNL1       -0.0133
      3 C           2.4824    2.1770   29.3572 C.ar    1  UNL1        0.0112
      4 C           2.1519    0.9128   30.0937 C.ar    1  UNL1        0.0537
      5 C           0.8375    0.2292   29.8582 C.ar    1  UNL1        0.0112
      6 C          -0.1462    0.8101   28.8861 C.ar    1  UNL1       -0.0133
      7 C          -1.4605    0.1266   28.6507 C.3     1  UNL1        0.0317
      8 C           0.1843    2.0743   28.1496 C.ar    1  UNL1        0.0338
      9 N           3.1357    0.3320   31.0657 N.am    1  UNL1       -0.2511
     10 C           4.1008   -0.6656   30.4972 C.3     1  UNL1        0.1458
     11 C           5.1929   -1.4160   31.2002 C.3     1  UNL1        0.2289
     12 O           5.5895   -1.3540   32.6455 O.3     1  UNL1       -0.4581
     13 C           4.9921   -0.5264   33.7447 C.ar    1  UNL1        0.2335
     14 N           5.6896   -0.7647   35.0511 N.ar    1  UNL1       -0.1891
     15 C           5.2455   -0.0329   36.2828 C.ar    1  UNL1        0.2027
     16 N           4.1038    0.9372   36.2081 N.ar    1  UNL1       -0.2091
     17 C           3.4063    1.1754   34.9018 C.ar    1  UNL1        0.1361
     18 N           2.2646    2.1455   34.8271 N.pl3   1  UNL1       -0.3423
     19 C           3.8505    0.4436   33.6701 C.ar    1  UNL1        0.1380
     20 C           3.0243    0.8256   32.4778 C.2     1  UNL1        0.2601
     21 O           1.9438    1.8348   32.7311 O.2     1  UNL1       -0.2693
     22 H           1.9731    2.6258   35.6355 H       1  UNL1        0.1437
     23 H           1.8068    2.3019   33.9697 H       1  UNL1        0.1437
     24 C          -0.7995    2.6550   27.1776 C.1     1  UNL1       -0.0651
     25 C          -1.7833    3.2358   26.2055 C.1     1  UNL1       -0.0880
     26 C          -2.7671    3.8165   25.2335 C.3     1  UNL1        0.0595
     27 C          -1.7693    3.6524   24.1255 C.3     1  UNL1        0.0134
     28 C          -3.7648    3.9807   26.3414 C.3     1  UNL1        0.0134
     29 C          -3.7509    4.3973   24.2614 C.3     1  UNL1        0.0537
     30 C          -4.9596    3.6072   23.8553 C.2     1  UNL1        0.0513
     31 O          -4.8018    2.3714   23.0198 O.co2   1  UNL1       -0.5491
     32 O          -6.3259    4.0528   24.2848 O.co2   1  UNL1       -0.5491
@<TRIPOS>UNITY_ATOM_ATTR
31 1
charge -1
@<TRIPOS>BOND
     1     1     2    1
     2     2     3   ar
     3     3     4   ar
     4     4     9    1
     5     9    10    1
     6    10    11    1
     7    11    12    1
     8    12    13    1
     9    13    14   ar
    10    14    15   ar
    11    15    16   ar
    12    16    17   ar
    13    17    18    1
    14    17    19   ar
    15    19    20    1
    16    20    21    2
    17     4     5   ar
    18     5     6   ar
    19     6     7    1
    20     6     8   ar
    21     8    24    1
    22    24    25    3
    23    25    26    1
    24    26    27    1
    25    26    28    1
    26    26    29    1
    27    29    30    1
    28    30    31   ar
    29    30    32   ar
    30     8     2   ar
    31    20     9   am
    32    19    13   ar
    33    18    22    1
    34    18    23    1
@<TRIPOS>MOLECULE
*****
 32 34 0 0 0
SMALL
GASTEIGER

@<TRIPOS>ATOM
      1 C           8.8491   -0.2729   32.8433 C.3     1  UNL1        0.0317
      2 C           7.9402   -1.4386   32.5884 C.ar    1  UNL1       -0.0133
      3 C           8.4173   -2.5946   31.7601 C.ar    1  UNL1        0.0112
      4 C           7.5084   -3.7603   31.5052 C.ar    1  UNL1        0.0537
      5 C           6.1223   -3.7701   32.0786 C.ar    1  UNL1        0.0112
      6 C           5.6452   -2.6140   32.9069 C.ar    1  UNL1       -0.0133
      7 C           4.2592   -2.6238   33.4803 C.3     1  UNL1        0.0317
      8 C           6.5541   -1.4483   33.1618 C.ar    1  UNL1        0.0338
      9 N           7.9855   -4.9162   30.6770 N.am    1  UNL1       -0.2511
     10 C           8.8968   -5.8833   31.3729 C.3     1  UNL1        0.1458
     11 C           9.5360   -7.1253   30.8260 C.3     1  UNL1        0.2289
     12 O           9.4216   -7.7069   29.4481 O.3     1  UNL1       -0.4581
     13 C           8.6398   -7.1903   28.2768 C.ar    1  UNL1        0.2335
     14 N           8.7984   -8.0776   27.0778 N.ar    1  UNL1       -0.1891
     15 C           8.0965   -7.7391   25.7962 C.ar    1  UNL1        0.2027
     16 N           7.2361   -6.5132   25.7135 N.ar    1  UNL1       -0.2091
     17 C           7.0775   -5.6259   26.9124 C.ar    1  UNL1        0.1361
     18 N           6.2171   -4.4000   26.8297 N.pl3   1  UNL1       -0.3423
     19 C           7.7794   -5.9644   28.1940 C.ar    1  UNL1        0.1380
     20 C           7.4882   -4.9524   29.2622 C.2     1  UNL1        0.2601
     21 O           6.5795   -3.8278   28.8629 O.2     1  UNL1       -0.2693
     22 H           5.7564   -4.1778   25.9884 H       1  UNL1        0.1437
     23 H           6.1130   -3.8176   27.6166 H       1  UNL1        0.1437
     24 C           6.0770   -0.2924   33.9901 C.1     1  UNL1       -0.0651
     25 C           5.5998    0.8636   34.8184 C.1     1  UNL1       -0.0880
     26 C           5.1227    2.0196   35.6467 C.3     1  UNL1        0.0595
     27 C           5.0908    2.8844   34.4214 C.3     1  UNL1        0.0134
     28 C           5.1547    1.1549   36.8719 C.3     1  UNL1        0.0134
     29 C           4.6456    3.1756   36.4749 C.3     1  UNL1        0.0537
     30 C           3.2921    3.1279   37.1199 C.2     1  UNL1        0.0513
     31 O           3.1487    3.4180   38.5846 O.co2   1  UNL1       -0.5491
     32 O           2.0822    2.7902   36.3002 O.co2   1  UNL1       -0.5491
@<TRIPOS>UNITY_ATOM_ATTR
31 1
charge -1
@<TRIPOS>BOND
     1     1     2    1
     2     2     3   ar
     3     3     4   ar
     4     4     9    1
     5     9    10    1
     6    10    11    1
     7    11    12    1
     8    12    13    1
     9    13    14   ar
    10    14    15   ar
    11    15    16   ar
    12    16    17   ar
    13    17    18    1
    14    17    19   ar
    15    19    20    1
    16    20    21    2
    17     4     5   ar
    18     5     6   ar
    19     6     7    1
    20     6     8   ar
    21     8    24    1
    22    24    25    3
    23    25    26    1
    24    26    27    1
    25    26    28    1
    26    26    29    1
    27    29    30    1
    28    30    31   ar
    29    30    32   ar
    30     8     2   ar
    31    20     9   am
    32    19    13   ar
    33    18    22    1
    34    18    23    1
@<TRIPOS>MOLECULE
*****
 32 34 0 0 0
SMALL
GASTEIGER

@<TRIPOS>ATOM
      1 C           1.8511    3.9555   27.8572 C.3     1  UNL1        0.0317
      2 C           1.5761    2.6086   28.4574 C.ar    1  UNL1       -0.0133
      3 C           2.6087    1.9475   29.3215 C.ar    1  UNL1        0.0112
      4 C           2.3337    0.6007   29.9217 C.ar    1  UNL1        0.0537
      5 C           1.0260   -0.0852   29.6579 C.ar    1  UNL1        0.0112
      6 C          -0.0066    0.5758   28.7938 C.ar    1  UNL1       -0.0133
      7 C          -1.3142   -0.1100   28.5300 C.3     1  UNL1        0.0317
      8 C           0.2684    1.9227   28.1936 C.ar    1  UNL1        0.0338
      9 N           3.3664   -0.0603   30.7858 N.am    1  UNL1       -0.2511
     10 C           3.2526    0.2084   32.2572 C.3     1  UNL1        0.1458
     11 C           4.1207   -0.2989   33.3704 C.3     1  UNL1        0.2289
     12 O           5.3168   -1.2001   33.2872 O.3     1  UNL1       -0.4581
     13 C           5.9404   -1.8168   32.0703 C.ar    1  UNL1        0.2335
     14 N           7.1295   -2.6574   32.4300 N.ar    1  UNL1       -0.1891
     15 C           7.9000   -3.3656   31.3555 C.ar    1  UNL1        0.2027
     16 N           7.4814   -3.2332   29.9211 N.ar    1  UNL1       -0.2091
     17 C           6.2923   -2.3926   29.5614 C.ar    1  UNL1        0.1361
     18 N           5.8737   -2.2603   28.1271 N.pl3   1  UNL1       -0.3423
     19 C           5.5218   -1.6844   30.6359 C.ar    1  UNL1        0.1380
     20 C           4.3763   -0.9027   30.0644 C.2     1  UNL1        0.2601
     21 O           4.2199   -0.9727   28.5742 O.2     1  UNL1       -0.2693
     22 H           6.3795   -2.7251   27.4218 H       1  UNL1        0.1437
     23 H           5.0933   -1.7086   27.8909 H       1  UNL1        0.1437
     24 C          -0.7643    2.5837   27.3295 C.1     1  UNL1       -0.0651
     25 C          -1.7970    3.2448   26.4654 C.1     1  UNL1       -0.0880
     26 C          -2.8296    3.9058   25.6013 C.3     1  UNL1        0.0595
     27 C          -1.8761    3.8820   24.4435 C.3     1  UNL1        0.0134
     28 C          -3.7830    3.9296   26.7590 C.3     1  UNL1        0.0134
     29 C          -3.8622    4.5668   24.7372 C.3     1  UNL1        0.0537
     30 C          -5.0510    3.7867   24.2592 C.2     1  UNL1        0.0513
     31 O          -4.8534    2.5383   23.4515 O.co2   1  UNL1       -0.5491
     32 O          -6.4373    4.2551   24.5890 O.co2   1  UNL1       -0.5491
@<TRIPOS>UNITY_ATOM_ATTR
31 1
charge -1
@<TRIPOS>BOND
     1     1     2    1
     2     2     3   ar
     3     3     4   ar
     4     4     9    1
     5     9    10    1
     6    10    11    1
     7    11    12    1
     8    12    13    1
     9    13    14   ar
    10    14    15   ar
    11    15    16   ar
    12    16    17   ar
    13    17    18    1
    14    17    19   ar
    15    19    20    1
    16    20    21    2
    17     4     5   ar
    18     5     6   ar
    19     6     7    1
    20     6     8   ar
    21     8    24    1
    22    24    25    3
    23    25    26    1
    24    26    27    1
    25    26    28    1
    26    26    29    1
    27    29    30    1
    28    30    31   ar
    29    30    32   ar
    30     8     2   ar
    31    20     9   am
    32    19    13   ar
    33    18    22    1
    34    18    23    1
@<TRIPOS>MOLECULE
*****
 32 34 0 0 0
SMALL
GASTEIGER

@<TRIPOS>ATOM
      1 C          -1.2755   -0.1463   28.4391 C.3     1  UNL1        0.0317
      2 C           0.0085    0.5614   28.7561 C.ar    1  UNL1       -0.0133
      3 C           1.0386   -0.1047   29.6194 C.ar    1  UNL1        0.0112
      4 C           2.3226    0.6030   29.9365 C.ar    1  UNL1        0.0537
      5 C           2.5766    1.9768   29.3902 C.ar    1  UNL1        0.0112
      6 C           1.5464    2.6428   28.5270 C.ar    1  UNL1       -0.0133
      7 C           1.8004    4.0165   27.9808 C.3     1  UNL1        0.0317
      8 C           0.2624    1.9352   28.2099 C.ar    1  UNL1        0.0338
      9 N           3.3527   -0.0631   30.7997 N.am    1  UNL1       -0.2511
     10 C           3.2230    0.1814   32.2740 C.3     1  UNL1        0.1458
     11 C           4.0849   -0.3362   33.3872 C.3     1  UNL1        0.2289
     12 O           5.2893   -1.2262   33.3011 O.3     1  UNL1       -0.4581
     13 C           5.9293   -1.8183   32.0805 C.ar    1  UNL1        0.2335
     14 N           7.1220   -2.6547   32.4382 N.ar    1  UNL1       -0.1891
     15 C           7.9084   -3.3394   31.3599 C.ar    1  UNL1        0.2027
     16 N           7.5021   -3.1878   29.9240 N.ar    1  UNL1       -0.2091
     17 C           6.3094   -2.3515   29.5663 C.ar    1  UNL1        0.1361
     18 N           5.9030   -2.1999   28.1304 N.pl3   1  UNL1       -0.3423
     19 C           5.5230   -1.6667   30.6446 C.ar    1  UNL1        0.1380
     20 C           4.3763   -0.8856   30.0746 C.2     1  UNL1        0.2601
     21 O           4.2344   -0.9332   28.5821 O.2     1  UNL1       -0.2693
     22 H           6.4192   -2.6493   27.4227 H       1  UNL1        0.1437
     23 H           5.1202   -1.6510   27.8956 H       1  UNL1        0.1437
     24 C          -0.7677    2.6012   27.3467 C.1     1  UNL1       -0.0651
     25 C          -1.7978    3.2673   26.4834 C.1     1  UNL1       -0.0880
     26 C          -2.8279    3.9334   25.6202 C.3     1  UNL1        0.0595
     27 C          -3.7906    3.9354   26.7705 C.3     1  UNL1        0.0134
     28 C          -1.8652    3.9314   24.4699 C.3     1  UNL1        0.0134
     29 C          -3.8580    4.5995   24.7569 C.3     1  UNL1        0.0537
     30 C          -5.0437    3.8213   24.2682 C.2     1  UNL1        0.0513
     31 O          -4.8416    2.5958   23.4273 O.co2   1  UNL1       -0.5491
     32 O          -6.4314    4.2688   24.6205 O.co2   1  UNL1       -0.5491
@<TRIPOS>UNITY_ATOM_ATTR
31 1
charge -1
@<TRIPOS>BOND
     1     1     2    1
     2     2     3   ar
     3     3     4   ar
     4     4     9    1
     5     9    10    1
     6    10    11    1
     7    11    12    1
     8    12    13    1
     9    13    14   ar
    10    14    15   ar
    11    15    16   ar
    12    16    17   ar
    13    17    18    1
    14    17    19   ar
    15    19    20    1
    16    20    21    2
    17     4     5   ar
    18     5     6   ar
    19     6     7    1
    20     6     8   ar
    21     8    24    1
    22    24    25    3
    23    25    26    1
    24    26    27    1
    25    26    28    1
    26    26    29    1
    27    29    30    1
    28    30    31   ar
    29    30    32   ar
    30     8     2   ar
    31    20     9   am
    32    19    13   ar
    33    18    22    1
    34    18    23    1
@<TRIPOS>MOLECULE
*****
 32 34 0 0 0
SMALL
GASTEIGER

@<TRIPOS>ATOM
      1 C          -0.5921    3.3192   21.9664 C.3     1  UNL1        0.0317
      2 C          -1.1053    3.2043   23.3711 C.ar    1  UNL1       -0.0133
      3 C          -2.2966    4.0072   23.8026 C.ar    1  UNL1        0.0112
      4 C          -2.8098    3.8923   25.2073 C.ar    1  UNL1        0.0537
      5 C          -2.1316    2.9743   26.1808 C.ar    1  UNL1        0.0112
      6 C          -0.9403    2.1714   25.7494 C.ar    1  UNL1       -0.0133
      7 C          -0.2622    1.2535   26.7229 C.3     1  UNL1        0.0317
      8 C          -0.4271    2.2864   24.3446 C.ar    1  UNL1        0.0338
      9 N          -4.0010    4.6952   25.6387 N.am    1  UNL1       -0.2511
     10 C          -3.7941    5.5751   26.8358 C.3     1  UNL1        0.1458
     11 C          -4.7767    6.4892   27.5058 C.3     1  UNL1        0.2289
     12 O          -6.2090    6.7491   27.1440 O.3     1  UNL1       -0.4581
     13 C          -7.0125    6.1593   26.0231 C.ar    1  UNL1        0.2335
     14 N          -8.4150    6.6912   26.0151 N.ar    1  UNL1       -0.1891
     15 C          -9.3870    6.2276   24.9710 C.ar    1  UNL1        0.2027
     16 N          -8.9565    5.2321   23.9349 N.ar    1  UNL1       -0.2091
     17 C          -7.5541    4.7001   23.9429 C.ar    1  UNL1        0.1361
     18 N          -7.1236    3.7046   22.9067 N.pl3   1  UNL1       -0.3423
     19 C          -6.5821    5.1637   24.9870 C.ar    1  UNL1        0.1380
     20 C          -5.2418    4.5122   24.8159 C.2     1  UNL1        0.2601
     21 O          -5.1272    3.5504   23.6706 O.2     1  UNL1       -0.2693
     22 H          -7.7616    3.4003   22.2214 H       1  UNL1        0.1437
     23 H          -6.2031    3.3554   22.9120 H       1  UNL1        0.1437
     24 C           0.7641    1.4834   23.9133 C.1     1  UNL1       -0.0651
     25 C           1.9555    0.6804   23.4819 C.1     1  UNL1       -0.0880
     26 C           3.1467   -0.1225   23.0506 C.3     1  UNL1        0.0595
     27 C           3.0302    0.4474   21.6679 C.3     1  UNL1        0.0134
     28 C           3.2632   -0.6924   24.4332 C.3     1  UNL1        0.0134
     29 C           4.3381   -0.9254   22.6192 C.3     1  UNL1        0.0537
     30 C           4.1522   -2.3139   22.0827 C.2     1  UNL1        0.0513
     31 O           3.7559   -2.5177   20.6505 O.co2   1  UNL1       -0.5491
     32 O           4.3628   -3.4984   22.9785 O.co2   1  UNL1       -0.5491
@<TRIPOS>UNITY_ATOM_ATTR
31 1
charge -1
@<TRIPOS>BOND
     1     1     2    1
     2     2     3   ar
     3     3     4   ar
     4     4     9    1
     5     9    10    1
     6    10    11    1
     7    11    12    1
     8    12    13    1
     9    13    14   ar
    10    14    15   ar
    11    15    16   ar
    12    16    17   ar
    13    17    18    1
    14    17    19   ar
    15    19    20    1
    16    20    21    2
    17     4     5   ar
    18     5     6   ar
    19     6     7    1
    20     6     8   ar
    21     8    24    1
    22    24    25    3
    23    25    26    1
    24    26    27    1
    25    26    28    1
    26    26    29    1
    27    29    30    1
    28    30    31   ar
    29    30    32   ar
    30     8     2   ar
    31    20     9   am
    32    19    13   ar
    33    18    22    1
    34    18    23    1
@<TRIPOS>MOLECULE
*****
 32 34 0 0 0
SMALL
GASTEIGER

@<TRIPOS>ATOM
      1 C          -1.3352   -0.1245   28.6007 C.3     1  UNL1        0.0317
      2 C          -0.1075    0.6777   28.9157 C.ar    1  UNL1       -0.0133
      3 C           0.9183    0.1366   29.8670 C.ar    1  UNL1        0.0112
      4 C           2.1461    0.9388   30.1820 C.ar    1  UNL1        0.0537
      5 C           2.3480    2.2821   29.5457 C.ar    1  UNL1        0.0112
      6 C           1.3222    2.8231   28.5944 C.ar    1  UNL1       -0.0133
      7 C           1.5241    4.1664   27.9581 C.3     1  UNL1        0.0317
      8 C           0.0945    2.0210   28.2794 C.ar    1  UNL1        0.0338
      9 N           3.1718    0.3977   31.1332 N.am    1  UNL1       -0.2511
     10 C           4.1794   -0.5413   30.5390 C.3     1  UNL1        0.1458
     11 C           5.3184   -1.2428   31.2177 C.3     1  UNL1        0.2289
     12 O           5.7311   -1.1784   32.6583 O.3     1  UNL1       -0.4581
     13 C           5.1069   -0.3968   33.7761 C.ar    1  UNL1        0.2335
     14 N           5.8337   -0.6149   35.0700 N.ar    1  UNL1       -0.1891
     15 C           5.3693    0.0773   36.3170 C.ar    1  UNL1        0.2027
     16 N           4.1780    0.9877   36.2701 N.ar    1  UNL1       -0.2091
     17 C           3.4512    1.2058   34.9763 C.ar    1  UNL1        0.1361
     18 N           2.2600    2.1162   34.9294 N.pl3   1  UNL1       -0.3423
     19 C           3.9157    0.5136   33.7293 C.ar    1  UNL1        0.1380
     20 C           3.0545    0.8671   32.5531 C.2     1  UNL1        0.2601
     21 O           1.9269    1.8156   32.8338 O.2     1  UNL1       -0.2693
     22 H           1.9552    2.5705   35.7479 H       1  UNL1        0.1437
     23 H           1.7830    2.2593   34.0802 H       1  UNL1        0.1437
     24 C          -0.9313    2.5620   27.3281 C.1     1  UNL1       -0.0651
     25 C          -1.9571    3.1032   26.3768 C.1     1  UNL1       -0.0880
     26 C          -2.9829    3.6442   25.4255 C.3     1  UNL1        0.0595
     27 C          -3.9163    3.8927   26.5733 C.3     1  UNL1        0.0134
     28 C          -2.0496    3.3958   24.2778 C.3     1  UNL1        0.0134
     29 C          -4.0088    4.1853   24.4742 C.3     1  UNL1        0.0537
     30 C          -4.3886    5.6356   24.5262 C.2     1  UNL1        0.0513
     31 O          -3.3226    6.6909   24.5167 O.co2   1  UNL1       -0.5491
     32 O          -5.8344    6.0304   24.5876 O.co2   1  UNL1       -0.5491
@<TRIPOS>UNITY_ATOM_ATTR
31 1
charge -1
@<TRIPOS>BOND
     1     1     2    1
     2     2     3   ar
     3     3     4   ar
     4     4     9    1
     5     9    10    1
     6    10    11    1
     7    11    12    1
     8    12    13    1
     9    13    14   ar
    10    14    15   ar
    11    15    16   ar
    12    16    17   ar
    13    17    18    1
    14    17    19   ar
    15    19    20    1
    16    20    21    2
    17     4     5   ar
    18     5     6   ar
    19     6     7    1
    20     6     8   ar
    21     8    24    1
    22    24    25    3
    23    25    26    1
    24    26    27    1
    25    26    28    1
    26    26    29    1
    27    29    30    1
    28    30    31   ar
    29    30    32   ar
    30     8     2   ar
    31    20     9   am
    32    19    13   ar
    33    18    22    1
    34    18    23    1
@<TRIPOS>MOLECULE
*****
 32 34 0 0 0
SMALL
GASTEIGER

@<TRIPOS>ATOM
      1 C          -0.1645   -0.3307   28.9156 C.3     1  UNL1        0.0317
      2 C          -0.2277    1.1092   28.4999 C.ar    1  UNL1       -0.0133
      3 C          -1.2401    1.5535   27.4862 C.ar    1  UNL1        0.0112
      4 C          -1.3033    2.9933   27.0705 C.ar    1  UNL1        0.0537
      5 C          -0.3540    3.9890   27.6685 C.ar    1  UNL1        0.0112
      6 C           0.6584    3.5447   28.6822 C.ar    1  UNL1       -0.0133
      7 C           1.6077    4.5404   29.2802 C.3     1  UNL1        0.0317
      8 C           0.7216    2.1049   29.0979 C.ar    1  UNL1        0.0338
      9 N          -2.3157    3.4375   26.0569 N.am    1  UNL1       -0.2511
     10 C          -3.6316    3.8985   26.6101 C.3     1  UNL1        0.1458
     11 C          -4.8353    4.3979   25.8671 C.3     1  UNL1        0.2289
     12 O          -5.0202    4.5595   24.3873 O.3     1  UNL1       -0.4581
     13 C          -4.0473    4.2619   23.2851 C.ar    1  UNL1        0.2335
     14 N          -4.6343    4.5666   21.9388 N.ar    1  UNL1       -0.1891
     15 C          -3.8232    4.3385   20.6979 C.ar    1  UNL1        0.2027
     16 N          -2.4250    3.8056   20.8032 N.ar    1  UNL1       -0.2091
     17 C          -1.8380    3.5008   22.1495 C.ar    1  UNL1        0.1361
     18 N          -0.4398    2.9679   22.2548 N.pl3   1  UNL1       -0.3423
     19 C          -2.6491    3.7290   23.3904 C.ar    1  UNL1        0.1380
     20 C          -1.8786    3.3621   24.6240 C.2     1  UNL1        0.2601
     21 O          -0.4866    2.8524   24.3943 O.2     1  UNL1       -0.2693
     22 H           0.0926    2.8182   21.4403 H       1  UNL1        0.1437
     23 H          -0.0545    2.7679   23.1384 H       1  UNL1        0.1437
     24 C           1.7341    1.6607   30.1116 C.1     1  UNL1       -0.0651
     25 C           2.7466    1.2164   31.1253 C.1     1  UNL1       -0.0880
     26 C           3.7590    0.7722   32.1390 C.3     1  UNL1        0.0595
     27 C           4.5920    0.1733   31.0446 C.3     1  UNL1        0.0134
     28 C           2.9261    1.3710   33.2333 C.3     1  UNL1        0.0134
     29 C           4.7715    0.3280   33.1527 C.3     1  UNL1        0.0537
     30 C           4.4401   -0.7802   34.1078 C.2     1  UNL1        0.0513
     31 O           4.7376   -0.6244   35.5697 O.co2   1  UNL1       -0.5491
     32 O           3.8112   -2.0442   33.6009 O.co2   1  UNL1       -0.5491
@<TRIPOS>UNITY_ATOM_ATTR
31 1
charge -1
@<TRIPOS>BOND
     1     1     2    1
     2     2     3   ar
     3     3     4   ar
     4     4     9    1
     5     9    10    1
     6    10    11    1
     7    11    12    1
     8    12    13    1
     9    13    14   ar
    10    14    15   ar
    11    15    16   ar
    12    16    17   ar
    13    17    18    1
    14    17    19   ar
    15    19    20    1
    16    20    21    2
    17     4     5   ar
    18     5     6   ar
    19     6     7    1
    20     6     8   ar
    21     8    24    1
    22    24    25    3
    23    25    26    1
    24    26    27    1
    25    26    28    1
    26    26    29    1
    27    29    30    1
    28    30    31   ar
    29    30    32   ar
    30     8     2   ar
    31    20     9   am
    32    19    13   ar
    33    18    22    1
    34    18    23    1
