@<TRIPOS>MOLECULE
*****
 28 31 0 0 0
SMALL
GASTEIGER

@<TRIPOS>ATOM
      1 C          -7.6729  -18.0746   21.5579 C.2     1  UNL1        0.3239
      2 N          -7.8590  -17.2832   22.8184 N.2     1  UNL1       -0.0423
      3 C          -6.6928  -17.0389   23.7296 C.2     1  UNL1        0.1926
      4 C          -5.3406  -17.5861   23.3803 C.2     1  UNL1        0.0445
      5 C          -5.1545  -18.3775   22.1198 C.2     1  UNL1        0.0124
      6 C          -3.9495  -19.0370   21.5173 C.2     1  UNL1       -0.0101
      7 C          -2.5659  -19.0436   22.0968 C.3     1  UNL1        0.0320
      8 C          -4.3709  -19.6889   20.2338 C.2     1  UNL1        0.0509
      9 C          -3.4827  -20.4618   19.3043 C.3     1  UNL1        0.0513
     10 N          -5.8364  -19.4323   20.0429 N.2     1  UNL1       -0.2603
     11 C          -6.3207  -18.6217   21.2086 C.3     1  UNL1        0.2295
     12 C          -6.8789  -16.2475   24.9903 C.ar    1  UNL1        0.0430
     13 C          -5.7066  -15.5577   25.6226 C.ar    1  UNL1        0.0037
     14 C          -5.8925  -14.7663   26.8831 C.ar    1  UNL1        0.0001
     15 C          -7.2509  -14.6647   27.5114 C.ar    1  UNL1        0.0000
     16 C          -8.4232  -15.3545   26.8791 C.ar    1  UNL1        0.0001
     17 C          -8.2371  -16.1459   25.6185 C.ar    1  UNL1        0.0037
     18 N          -8.8391  -18.3189   20.6466 N.pl3   1  UNL1       -0.2167
     19 H          -8.9042  -17.8372   19.7904 H       1  UNL1        0.2923
     20 C          -9.9062  -19.2970   21.0398 C.3     1  UNL1        0.2258
     21 C          -9.4001  -20.4805   23.7497 C.3     1  UNL1        0.0308
     22 C         -10.5757  -19.5741   23.5348 C.ar    1  UNL1       -0.0223
     23 C         -11.4984  -19.2594   24.6749 C.ar    1  UNL1       -0.0045
     24 C         -12.6741  -18.3530   24.4600 C.ar    1  UNL1       -0.0007
     25 C         -12.9271  -17.7613   23.1051 C.ar    1  UNL1       -0.0045
     26 C         -12.0045  -18.0759   21.9651 C.ar    1  UNL1       -0.0223
     27 C         -12.2576  -17.4841   20.6102 C.3     1  UNL1        0.0308
     28 C         -10.8288  -18.9824   22.1799 C.ar    1  UNL1        0.0162
@<TRIPOS>BOND
     1    21    22    1
     2    22    23   ar
     3    23    24   ar
     4    24    25   ar
     5    25    26   ar
     6    26    27    1
     7    26    28   ar
     8    28    20    1
     9    20    18    1
    10    18     1    1
    11     1     2    2
    12     2     3    1
    13     3    12    1
    14    12    13   ar
    15    13    14   ar
    16    14    15   ar
    17    15    16   ar
    18    16    17   ar
    19     3     4    2
    20     4     5    1
    21     5     6    2
    22     6     7    1
    23     6     8    1
    24     8     9    1
    25     8    10    2
    26    10    11    1
    27    28    22   ar
    28    11     1    1
    29    17    12   ar
    30    11     5    1
    31    18    19    1
@<TRIPOS>MOLECULE
*****
 28 31 0 0 0
SMALL
GASTEIGER

@<TRIPOS>ATOM
      1 C          -7.6766  -18.0737   21.5552 C.2     1  UNL1        0.3239
      2 N          -7.8649  -17.2841   22.8166 N.2     1  UNL1       -0.0423
      3 C          -6.7000  -17.0401   23.7295 C.2     1  UNL1        0.1926
      4 C          -5.3469  -17.5858   23.3811 C.2     1  UNL1        0.0445
      5 C          -5.1586  -18.3754   22.1198 C.2     1  UNL1        0.0124
      6 C          -3.9523  -19.0332   21.5180 C.2     1  UNL1       -0.0101
      7 C          -2.5695  -19.0393   22.0992 C.3     1  UNL1        0.0320
      8 C          -4.3717  -19.6837   20.2331 C.2     1  UNL1        0.0509
      9 C          -3.4817  -20.4546   19.3037 C.3     1  UNL1        0.0513
     10 N          -5.8371  -19.4280   20.0408 N.2     1  UNL1       -0.2603
     11 C          -6.3235  -18.6194   21.2069 C.3     1  UNL1        0.2295
     12 C          -6.8883  -16.2505   24.9909 C.ar    1  UNL1        0.0430
     13 C          -5.7177  -15.5587   25.6244 C.ar    1  UNL1        0.0037
     14 C          -5.9059  -14.7691   26.8857 C.ar    1  UNL1        0.0001
     15 C          -7.2647  -14.6712   27.5137 C.ar    1  UNL1        0.0000
     16 C          -8.4352  -15.3630   26.8802 C.ar    1  UNL1        0.0001
     17 C          -8.2470  -16.1526   25.6188 C.ar    1  UNL1        0.0037
     18 N          -8.8415  -18.3178   20.6422 N.pl3   1  UNL1       -0.2167
     19 H          -8.9046  -17.8370   19.7854 H       1  UNL1        0.2923
     20 C          -9.9102  -19.2944   21.0346 C.3     1  UNL1        0.2258
     21 C         -12.2536  -17.4723   20.6005 C.3     1  UNL1        0.0308
     22 C         -12.0064  -18.0664   21.9554 C.ar    1  UNL1       -0.0223
     23 C         -12.9309  -17.7495   23.0934 C.ar    1  UNL1       -0.0045
     24 C         -12.6837  -18.3436   24.4483 C.ar    1  UNL1       -0.0007
     25 C         -11.5121  -19.2547   24.6653 C.ar    1  UNL1       -0.0045
     26 C         -10.5876  -19.5716   23.5275 C.ar    1  UNL1       -0.0223
     27 C          -9.4159  -20.4827   23.7445 C.3     1  UNL1        0.0308
     28 C         -10.8347  -18.9775   22.1724 C.ar    1  UNL1        0.0162
@<TRIPOS>BOND
     1    21    22    1
     2    22    23   ar
     3    23    24   ar
     4    24    25   ar
     5    25    26   ar
     6    26    27    1
     7    26    28   ar
     8    28    20    1
     9    20    18    1
    10    18     1    1
    11     1     2    2
    12     2     3    1
    13     3    12    1
    14    12    13   ar
    15    13    14   ar
    16    14    15   ar
    17    15    16   ar
    18    16    17   ar
    19     3     4    2
    20     4     5    1
    21     5     6    2
    22     6     7    1
    23     6     8    1
    24     8     9    1
    25     8    10    2
    26    10    11    1
    27    28    22   ar
    28    11     1    1
    29    17    12   ar
    30    11     5    1
    31    18    19    1
@<TRIPOS>MOLECULE
*****
 28 31 0 0 0
SMALL
GASTEIGER

@<TRIPOS>ATOM
      1 C          -7.1476  -17.8712   22.0259 C.2     1  UNL1        0.3239
      2 N          -5.8130  -18.1847   21.4172 N.2     1  UNL1       -0.0423
      3 C          -4.5554  -17.7056   22.0796 C.2     1  UNL1        0.1926
      4 C          -4.6324  -16.9131   23.3508 C.2     1  UNL1        0.0445
      5 C          -5.9669  -16.5996   23.9596 C.2     1  UNL1        0.0124
      6 C          -6.3534  -15.8442   25.1965 C.2     1  UNL1       -0.0101
      7 C          -5.4092  -15.1913   26.1619 C.3     1  UNL1        0.0320
      8 C          -7.8499  -15.8565   25.2986 C.2     1  UNL1        0.0509
      9 C          -8.6649  -15.2179   26.3840 C.3     1  UNL1        0.0513
     10 N          -8.3883  -16.6194   24.1247 N.2     1  UNL1       -0.2603
     11 C          -7.2245  -17.0786   23.2971 C.3     1  UNL1        0.2295
     12 C          -3.2207  -18.0191   21.4709 C.ar    1  UNL1        0.0430
     13 C          -2.8353  -19.4435   21.2015 C.ar    1  UNL1        0.0037
     14 C          -1.5007  -19.7570   20.5928 C.ar    1  UNL1        0.0001
     15 C          -0.5515  -18.6461   20.2535 C.ar    1  UNL1        0.0000
     16 C          -0.9370  -17.2217   20.5229 C.ar    1  UNL1        0.0001
     17 C          -2.2716  -16.9082   21.1316 C.ar    1  UNL1        0.0037
     18 N          -8.4052  -18.3502   21.3634 N.pl3   1  UNL1       -0.2167
     19 H          -8.6365  -18.0351   20.4599 H       1  UNL1        0.2923
     20 C          -9.3106  -19.3095   22.0778 C.3     1  UNL1        0.2258
     21 C         -11.2238  -18.0490   20.1410 C.3     1  UNL1        0.0308
     22 C         -11.6191  -18.2280   21.5768 C.ar    1  UNL1       -0.0223
     23 C         -12.9711  -17.7766   22.0444 C.ar    1  UNL1       -0.0045
     24 C         -13.3665  -17.9556   23.4802 C.ar    1  UNL1       -0.0007
     25 C         -12.4099  -18.5858   24.4486 C.ar    1  UNL1       -0.0045
     26 C         -11.0579  -19.0371   23.9811 C.ar    1  UNL1       -0.0223
     27 C         -10.1013  -19.6673   24.9495 C.3     1  UNL1        0.0308
     28 C         -10.6625  -18.8582   22.5452 C.ar    1  UNL1        0.0162
@<TRIPOS>BOND
     1    21    22    1
     2    22    23   ar
     3    23    24   ar
     4    24    25   ar
     5    25    26   ar
     6    26    27    1
     7    26    28   ar
     8    28    20    1
     9    20    18    1
    10    18     1    1
    11     1     2    2
    12     2     3    1
    13     3    12    1
    14    12    13   ar
    15    13    14   ar
    16    14    15   ar
    17    15    16   ar
    18    16    17   ar
    19     3     4    2
    20     4     5    1
    21     5     6    2
    22     6     7    1
    23     6     8    1
    24     8     9    1
    25     8    10    2
    26    10    11    1
    27    28    22   ar
    28    11     1    1
    29    17    12   ar
    30    11     5    1
    31    18    19    1
@<TRIPOS>MOLECULE
*****
 28 31 0 0 0
SMALL
GASTEIGER

@<TRIPOS>ATOM
      1 C          -7.1412  -17.8828   22.0201 C.2     1  UNL1        0.3239
      2 N          -5.8056  -18.1948   21.4130 N.2     1  UNL1       -0.0423
      3 C          -4.5497  -17.7075   22.0727 C.2     1  UNL1        0.1926
      4 C          -4.6294  -16.9083   23.3395 C.2     1  UNL1        0.0445
      5 C          -5.9651  -16.5964   23.9466 C.2     1  UNL1        0.0124
      6 C          -6.3543  -15.8357   25.1795 C.2     1  UNL1       -0.0101
      7 C          -5.4123  -15.1740   26.1412 C.3     1  UNL1        0.0320
      8 C          -7.8507  -15.8528   25.2817 C.2     1  UNL1        0.0509
      9 C          -8.6679  -15.2112   26.3637 C.3     1  UNL1        0.0513
     10 N          -8.3864  -16.6241   24.1120 N.2     1  UNL1       -0.2603
     11 C          -7.2210  -17.0836   23.2869 C.3     1  UNL1        0.2295
     12 C          -3.2139  -18.0195   21.4655 C.ar    1  UNL1        0.0430
     13 C          -2.2598  -16.9085   21.1409 C.ar    1  UNL1        0.0037
     14 C          -0.9241  -17.2204   20.5338 C.ar    1  UNL1        0.0001
     15 C          -0.5425  -18.6433   20.2513 C.ar    1  UNL1        0.0000
     16 C          -1.4966  -19.7543   20.5760 C.ar    1  UNL1        0.0001
     17 C          -2.8323  -19.4423   21.1831 C.ar    1  UNL1        0.0037
     18 N          -8.3972  -18.3701   21.3604 N.pl3   1  UNL1       -0.2167
     19 H          -8.6273  -18.0643   20.4533 H       1  UNL1        0.2923
     20 C          -9.3026  -19.3232   22.0827 C.3     1  UNL1        0.2258
     21 C         -10.1022  -19.6713   24.9532 C.3     1  UNL1        0.0308
     22 C         -11.0549  -19.0425   23.9802 C.ar    1  UNL1       -0.0223
     23 C         -12.4076  -18.5877   24.4424 C.ar    1  UNL1       -0.0045
     24 C         -13.3604  -17.9589   23.4694 C.ar    1  UNL1       -0.0007
     25 C         -12.9606  -17.7848   22.0342 C.ar    1  UNL1       -0.0045
     26 C         -11.6080  -18.2396   21.5719 C.ar    1  UNL1       -0.0223
     27 C         -11.2082  -18.0656   20.1367 C.3     1  UNL1        0.0308
     28 C         -10.6551  -18.8685   22.5450 C.ar    1  UNL1        0.0162
@<TRIPOS>BOND
     1    21    22    1
     2    22    23   ar
     3    23    24   ar
     4    24    25   ar
     5    25    26   ar
     6    26    27    1
     7    26    28   ar
     8    28    20    1
     9    20    18    1
    10    18     1    1
    11     1     2    2
    12     2     3    1
    13     3    12    1
    14    12    13   ar
    15    13    14   ar
    16    14    15   ar
    17    15    16   ar
    18    16    17   ar
    19     3     4    2
    20     4     5    1
    21     5     6    2
    22     6     7    1
    23     6     8    1
    24     8     9    1
    25     8    10    2
    26    10    11    1
    27    28    22   ar
    28    11     1    1
    29    17    12   ar
    30    11     5    1
    31    18    19    1
@<TRIPOS>MOLECULE
*****
 28 31 0 0 0
SMALL
GASTEIGER

@<TRIPOS>ATOM
      1 C          -7.0024  -18.2197   21.8883 C.2     1  UNL1        0.3239
      2 N          -6.7156  -17.4910   23.1676 N.2     1  UNL1       -0.0423
      3 C          -7.8265  -16.8034   23.9044 C.2     1  UNL1        0.1926
      4 C          -9.2244  -16.8444   23.3618 C.2     1  UNL1        0.0445
      5 C          -9.5113  -17.5731   22.0825 C.2     1  UNL1        0.0124
      6 C         -10.7796  -17.7833   21.3098 C.2     1  UNL1       -0.0101
      7 C         -12.1368  -17.2667   21.6855 C.3     1  UNL1        0.0320
      8 C         -10.4525  -18.6009   20.0955 C.2     1  UNL1        0.0509
      9 C         -11.4253  -19.0453   19.0436 C.3     1  UNL1        0.0513
     10 N          -8.9820  -18.8960   20.1177 N.2     1  UNL1       -0.2603
     11 C          -8.4003  -18.2608   21.3458 C.3     1  UNL1        0.2295
     12 C          -7.5397  -16.0746   25.1838 C.ar    1  UNL1        0.0430
     13 C          -6.1727  -15.5107   25.4354 C.ar    1  UNL1        0.0037
     14 C          -5.8858  -14.7820   26.7147 C.ar    1  UNL1        0.0001
     15 C          -6.9659  -14.6172   27.7424 C.ar    1  UNL1        0.0000
     16 C          -8.3330  -15.1811   27.4908 C.ar    1  UNL1        0.0001
     17 C          -8.6198  -15.9098   26.2114 C.ar    1  UNL1        0.0037
     18 N          -5.8915  -18.9074   21.1515 N.pl3   1  UNL1       -0.2167
     19 H          -6.0370  -19.2330   20.2339 H       1  UNL1        0.2923
     20 C          -4.5588  -19.0989   21.8128 C.3     1  UNL1        0.2258
     21 C          -3.2988  -20.1413   19.2977 C.3     1  UNL1        0.0308
     22 C          -2.7098  -18.9503   19.9937 C.ar    1  UNL1       -0.0223
     23 C          -1.4906  -18.2805   19.4322 C.ar    1  UNL1       -0.0045
     24 C          -0.9016  -17.0895   20.1283 C.ar    1  UNL1       -0.0007
     25 C          -1.5316  -16.5683   21.3858 C.ar    1  UNL1       -0.0045
     26 C          -2.7506  -17.2380   21.9473 C.ar    1  UNL1       -0.0223
     27 C          -3.3806  -16.7168   23.2049 C.3     1  UNL1        0.0308
     28 C          -3.3397  -18.4291   21.2513 C.ar    1  UNL1        0.0162
@<TRIPOS>BOND
     1    21    22    1
     2    22    23   ar
     3    23    24   ar
     4    24    25   ar
     5    25    26   ar
     6    26    27    1
     7    26    28   ar
     8    28    20    1
     9    20    18    1
    10    18     1    1
    11     1     2    2
    12     2     3    1
    13     3    12    1
    14    12    13   ar
    15    13    14   ar
    16    14    15   ar
    17    15    16   ar
    18    16    17   ar
    19     3     4    2
    20     4     5    1
    21     5     6    2
    22     6     7    1
    23     6     8    1
    24     8     9    1
    25     8    10    2
    26    10    11    1
    27    28    22   ar
    28    11     1    1
    29    17    12   ar
    30    11     5    1
    31    18    19    1
@<TRIPOS>MOLECULE
*****
 28 31 0 0 0
SMALL
GASTEIGER

@<TRIPOS>ATOM
      1 C          -6.9977  -18.2271   21.8901 C.2     1  UNL1        0.3239
      2 N          -6.7142  -17.4970   23.1693 N.2     1  UNL1       -0.0423
      3 C          -7.8280  -16.8124   23.9047 C.2     1  UNL1        0.1926
      4 C          -9.2252  -16.8581   23.3609 C.2     1  UNL1        0.0445
      5 C          -9.5086  -17.5883   22.0817 C.2     1  UNL1        0.0124
      6 C         -10.7756  -17.8028   21.3079 C.2     1  UNL1       -0.0101
      7 C         -12.1347  -17.2901   21.6821 C.3     1  UNL1        0.0320
      8 C         -10.4449  -18.6199   20.0942 C.2     1  UNL1        0.0509
      9 C         -11.4152  -19.0679   19.0417 C.3     1  UNL1        0.0513
     10 N          -8.9735  -18.9104   20.1179 N.2     1  UNL1       -0.2603
     11 C          -8.3949  -18.2728   21.3463 C.3     1  UNL1        0.2295
     12 C          -7.5446  -16.0822   25.1840 C.ar    1  UNL1        0.0430
     13 C          -8.6247  -15.9252   26.2130 C.ar    1  UNL1        0.0037
     14 C          -8.3413  -15.1950   27.4923 C.ar    1  UNL1        0.0001
     15 C          -6.9779  -14.6217   27.7425 C.ar    1  UNL1        0.0000
     16 C          -5.8979  -14.7787   26.7135 C.ar    1  UNL1        0.0001
     17 C          -6.1813  -15.5089   25.4342 C.ar    1  UNL1        0.0037
     18 N          -5.8838  -18.9117   21.1546 N.pl3   1  UNL1       -0.2167
     19 H          -6.0289  -19.2423   20.2387 H       1  UNL1        0.2923
     20 C          -4.5491  -19.0926   21.8147 C.3     1  UNL1        0.2258
     21 C          -3.3730  -16.7063   23.2012 C.3     1  UNL1        0.0308
     22 C          -2.7466  -17.2258   21.9412 C.ar    1  UNL1       -0.0223
     23 C          -1.5321  -16.5522   21.3743 C.ar    1  UNL1       -0.0045
     24 C          -0.9057  -17.0717   20.1143 C.ar    1  UNL1       -0.0007
     25 C          -1.4938  -18.2648   19.4211 C.ar    1  UNL1       -0.0045
     26 C          -2.7082  -18.9385   19.9879 C.ar    1  UNL1       -0.0223
     27 C          -3.2963  -20.1316   19.2946 C.3     1  UNL1        0.0308
     28 C          -3.3347  -18.4190   21.2480 C.ar    1  UNL1        0.0162
@<TRIPOS>BOND
     1    21    22    1
     2    22    23   ar
     3    23    24   ar
     4    24    25   ar
     5    25    26   ar
     6    26    27    1
     7    26    28   ar
     8    28    20    1
     9    20    18    1
    10    18     1    1
    11     1     2    2
    12     2     3    1
    13     3    12    1
    14    12    13   ar
    15    13    14   ar
    16    14    15   ar
    17    15    16   ar
    18    16    17   ar
    19     3     4    2
    20     4     5    1
    21     5     6    2
    22     6     7    1
    23     6     8    1
    24     8     9    1
    25     8    10    2
    26    10    11    1
    27    28    22   ar
    28    11     1    1
    29    17    12   ar
    30    11     5    1
    31    18    19    1
@<TRIPOS>MOLECULE
*****
 28 31 0 0 0
SMALL
GASTEIGER

@<TRIPOS>ATOM
      1 C          -8.7422  -19.2942   23.1325 C.2     1  UNL1        0.3239
      2 N          -7.6828  -19.7987   22.1981 N.2     1  UNL1       -0.0423
      3 C          -6.4167  -19.0172   22.0078 C.2     1  UNL1        0.1926
      4 C          -6.2101  -17.7312   22.7518 C.2     1  UNL1        0.0445
      5 C          -7.2695  -17.2267   23.6862 C.2     1  UNL1        0.0124
      6 C          -7.3465  -16.0022   24.5490 C.2     1  UNL1       -0.0101
      7 C          -6.2946  -14.9395   24.6674 C.3     1  UNL1        0.0320
      8 C          -8.6603  -16.0268   25.2726 C.2     1  UNL1        0.0509
      9 C          -9.1526  -14.9931   26.2417 C.3     1  UNL1        0.0513
     10 N          -9.3951  -17.2666   24.8570 N.2     1  UNL1       -0.2603
     11 C          -8.5356  -18.0082   23.8765 C.3     1  UNL1        0.2295
     12 C          -5.3572  -19.5216   21.0734 C.ar    1  UNL1        0.0430
     13 C          -4.1540  -18.6762   20.7773 C.ar    1  UNL1        0.0037
     14 C          -3.0945  -19.1806   19.8430 C.ar    1  UNL1        0.0001
     15 C          -3.2382  -20.5304   19.2046 C.ar    1  UNL1        0.0000
     16 C          -4.4414  -21.3758   19.5007 C.ar    1  UNL1        0.0001
     17 C          -5.5009  -20.8714   20.4351 C.ar    1  UNL1        0.0037
     18 N         -10.0084  -20.0757   23.3229 N.pl3   1  UNL1       -0.2167
     19 H         -10.1376  -20.6126   24.1379 H       1  UNL1        0.2923
     20 C         -11.0775  -20.0391   22.2714 C.3     1  UNL1        0.2258
     21 C         -10.0199  -19.4638   19.5236 C.3     1  UNL1        0.0308
     22 C         -10.8890  -18.4580   20.2186 C.ar    1  UNL1       -0.0223
     23 C         -11.2293  -17.1644   19.5396 C.ar    1  UNL1       -0.0045
     24 C         -12.0984  -16.1585   20.2346 C.ar    1  UNL1       -0.0007
     25 C         -12.6272  -16.4462   21.6085 C.ar    1  UNL1       -0.0045
     26 C         -12.2869  -17.7397   22.2874 C.ar    1  UNL1       -0.0223
     27 C         -12.8157  -18.0274   23.6613 C.3     1  UNL1        0.0308
     28 C         -11.4178  -18.7456   21.5925 C.ar    1  UNL1        0.0162
@<TRIPOS>BOND
     1    21    22    1
     2    22    23   ar
     3    23    24   ar
     4    24    25   ar
     5    25    26   ar
     6    26    27    1
     7    26    28   ar
     8    28    20    1
     9    20    18    1
    10    18     1    1
    11     1     2    2
    12     2     3    1
    13     3    12    1
    14    12    13   ar
    15    13    14   ar
    16    14    15   ar
    17    15    16   ar
    18    16    17   ar
    19     3     4    2
    20     4     5    1
    21     5     6    2
    22     6     7    1
    23     6     8    1
    24     8     9    1
    25     8    10    2
    26    10    11    1
    27    28    22   ar
    28    11     1    1
    29    17    12   ar
    30    11     5    1
    31    18    19    1
@<TRIPOS>MOLECULE
*****
 28 31 0 0 0
SMALL
GASTEIGER

@<TRIPOS>ATOM
      1 C          -8.7298  -19.3111   23.1367 C.2     1  UNL1        0.3239
      2 N          -7.6626  -19.8164   22.2117 N.2     1  UNL1       -0.0423
      3 C          -6.4017  -19.0272   22.0193 C.2     1  UNL1        0.1926
      4 C          -6.2079  -17.7327   22.7519 C.2     1  UNL1        0.0445
      5 C          -7.2751  -17.2273   23.6769 C.2     1  UNL1        0.0124
      6 C          -7.3652  -15.9952   24.5275 C.2     1  UNL1       -0.0101
      7 C          -6.3217  -14.9235   24.6402 C.3     1  UNL1        0.0320
      8 C          -8.6818  -16.0229   25.2457 C.2     1  UNL1        0.0509
      9 C          -9.1861  -14.9837   26.2028 C.3     1  UNL1        0.0513
     10 N          -9.4055  -17.2722   24.8389 N.2     1  UNL1       -0.2603
     11 C          -8.5361  -18.0166   23.8693 C.3     1  UNL1        0.2295
     12 C          -5.3343  -19.5325   21.0943 C.ar    1  UNL1        0.0430
     13 C          -5.5228  -20.8330   20.3710 C.ar    1  UNL1        0.0037
     14 C          -4.4556  -21.3383   19.4461 C.ar    1  UNL1        0.0001
     15 C          -3.1998  -20.5431   19.2443 C.ar    1  UNL1        0.0000
     16 C          -3.0113  -19.2426   19.9675 C.ar    1  UNL1        0.0001
     17 C          -4.0786  -18.7373   20.8926 C.ar    1  UNL1        0.0037
     18 N          -9.9909  -20.1003   23.3292 N.pl3   1  UNL1       -0.2167
     19 H         -10.1123  -20.6439   24.1410 H       1  UNL1        0.2923
     20 C         -11.0669  -20.0612   22.2848 C.3     1  UNL1        0.2258
     21 C         -12.8040  -18.0457   23.6704 C.3     1  UNL1        0.0308
     22 C         -12.2732  -17.7603   22.2969 C.ar    1  UNL1       -0.0223
     23 C         -12.6110  -16.4670   21.6160 C.ar    1  UNL1       -0.0045
     24 C         -12.0803  -16.1816   20.2425 C.ar    1  UNL1       -0.0007
     25 C         -11.2117  -17.1893   19.5496 C.ar    1  UNL1       -0.0045
     26 C         -10.8739  -18.4825   20.2304 C.ar    1  UNL1       -0.0223
     27 C         -10.0053  -19.4903   19.5376 C.3     1  UNL1        0.0308
     28 C         -11.4047  -18.7680   21.6040 C.ar    1  UNL1        0.0162
@<TRIPOS>BOND
     1    21    22    1
     2    22    23   ar
     3    23    24   ar
     4    24    25   ar
     5    25    26   ar
     6    26    27    1
     7    26    28   ar
     8    28    20    1
     9    20    18    1
    10    18     1    1
    11     1     2    2
    12     2     3    1
    13     3    12    1
    14    12    13   ar
    15    13    14   ar
    16    14    15   ar
    17    15    16   ar
    18    16    17   ar
    19     3     4    2
    20     4     5    1
    21     5     6    2
    22     6     7    1
    23     6     8    1
    24     8     9    1
    25     8    10    2
    26    10    11    1
    27    28    22   ar
    28    11     1    1
    29    17    12   ar
    30    11     5    1
    31    18    19    1
@<TRIPOS>MOLECULE
*****
 28 31 0 0 0
SMALL
GASTEIGER

@<TRIPOS>ATOM
      1 C          -5.9743  -16.3415   23.6543 C.2     1  UNL1        0.3239
      2 N          -6.9818  -17.0976   22.8400 N.2     1  UNL1       -0.0423
      3 C          -8.3921  -17.2358   23.3317 C.2     1  UNL1        0.1926
      4 C          -8.7949  -16.6179   24.6378 C.2     1  UNL1        0.0445
      5 C          -7.7874  -15.8618   25.4522 C.2     1  UNL1        0.0124
      6 C          -7.8912  -15.1501   26.7685 C.2     1  UNL1       -0.0101
      7 C          -9.1247  -15.0364   27.6145 C.3     1  UNL1        0.0320
      8 C          -6.5450  -14.5720   27.0903 C.2     1  UNL1        0.0509
      9 C          -6.1959  -13.7787   28.3146 C.3     1  UNL1        0.0513
     10 N          -5.6092  -14.9264   25.9729 N.2     1  UNL1       -0.2603
     11 C          -6.3771  -15.7236   24.9605 C.3     1  UNL1        0.2295
     12 C          -9.3997  -17.9919   22.5173 C.ar    1  UNL1        0.0430
     13 C          -9.7290  -19.4138   22.8635 C.ar    1  UNL1        0.0037
     14 C         -10.7365  -20.1699   22.0491 C.ar    1  UNL1        0.0001
     15 C         -11.4147  -19.5042   20.8886 C.ar    1  UNL1        0.0000
     16 C         -11.0854  -18.0823   20.5424 C.ar    1  UNL1        0.0001
     17 C         -10.0779  -17.3262   21.3568 C.ar    1  UNL1        0.0037
     18 N          -4.5639  -16.2032   23.1626 N.pl3   1  UNL1       -0.2167
     19 H          -4.2212  -15.3209   22.8918 H       1  UNL1        0.2923
     20 C          -3.6756  -17.4094   23.0835 C.3     1  UNL1        0.2258
     21 C          -1.5248  -16.2669   21.3317 C.3     1  UNL1        0.0308
     22 C          -2.3040  -17.4656   20.8778 C.ar    1  UNL1       -0.0223
     23 C          -2.0078  -18.0930   19.5478 C.ar    1  UNL1       -0.0045
     24 C          -2.7870  -19.2917   19.0939 C.ar    1  UNL1       -0.0007
     25 C          -3.8624  -19.8629   19.9698 C.ar    1  UNL1       -0.0045
     26 C          -4.1586  -19.2354   21.2997 C.ar    1  UNL1       -0.0223
     27 C          -5.2340  -19.8067   22.1756 C.3     1  UNL1        0.0308
     28 C          -3.3794  -18.0368   21.7537 C.ar    1  UNL1        0.0162
@<TRIPOS>BOND
     1    21    22    1
     2    22    23   ar
     3    23    24   ar
     4    24    25   ar
     5    25    26   ar
     6    26    27    1
     7    26    28   ar
     8    28    20    1
     9    20    18    1
    10    18     1    1
    11     1     2    2
    12     2     3    1
    13     3    12    1
    14    12    13   ar
    15    13    14   ar
    16    14    15   ar
    17    15    16   ar
    18    16    17   ar
    19     3     4    2
    20     4     5    1
    21     5     6    2
    22     6     7    1
    23     6     8    1
    24     8     9    1
    25     8    10    2
    26    10    11    1
    27    28    22   ar
    28    11     1    1
    29    17    12   ar
    30    11     5    1
    31    18    19    1
