@<TRIPOS>MOLECULE
*****
 34 35 0 0 0
SMALL
GASTEIGER

@<TRIPOS>ATOM
      1 N           0.9240    1.5966   18.1998 N.am    1  UNL1       -0.3046
      2 C           1.2099    3.0071   18.6225 C.2     1  UNL1        0.2425
      3 O           2.4640    3.3229   19.3824 O.2     1  UNL1       -0.2733
      4 H           0.1009    1.3894   17.7011 H       1  UNL1        0.1494
      5 C           1.6492   -0.3731   19.7310 C.3     1  UNL1        0.0218
      6 C           2.6175   -1.4679   20.0682 C.3     1  UNL1        0.0177
      7 C           3.8289   -1.6879   19.2115 C.3     1  UNL1        0.0576
      8 C           4.0721   -0.8131   18.0175 C.3     1  UNL1        0.0176
      9 C           3.1038    0.2817   17.6803 C.3     1  UNL1        0.0209
     10 C           1.8923    0.5017   18.5371 C.3     1  UNL1        0.0717
     11 N           4.7972   -2.7828   19.5487 N.3     1  UNL1       -0.2741
     12 C           6.2141   -2.7070   19.0623 C.3     1  UNL1        0.0896
     13 C           4.3486   -3.9534   20.3724 C.3     1  UNL1        0.0576
     14 C           4.6131   -3.9770   21.8487 C.3     1  UNL1        0.0173
     15 C           3.6355   -5.1003   19.7197 C.3     1  UNL1        0.0173
     16 C           0.4378   -0.1530   20.5878 C.3     1  UNL1        0.0338
     17 C           0.4023    0.9913   21.5569 C.3     1  UNL1        0.1423
     18 C          -0.5869    3.2768   22.2971 C.3     1  UNL1        0.1741
     19 O          -0.6246    2.0737   21.4021 O.3     1  UNL1       -0.3511
     20 C           0.2416    4.1020   18.2852 C.3     1  UNL1        0.1759
     21 N          -1.1284    4.1061   18.8960 N.am    1  UNL1       -0.2931
     22 C          -2.3371    3.9180   18.0278 C.2     1  UNL1        0.2462
     23 O          -2.1757    3.7258   16.5489 O.2     1  UNL1       -0.2701
     24 H          -1.2343    4.2322   19.8666 H       1  UNL1        0.1502
     25 C          -3.7072    3.9220   18.6385 C.ar    1  UNL1        0.0533
     26 C          -4.9150    4.1120   17.7697 C.ar    1  UNL1        0.0045
     27 C          -6.2850    4.1161   18.3804 C.ar    1  UNL1        0.0001
     28 C          -6.4472    3.9300   19.8600 C.ar    1  UNL1        0.0039
     29 C          -5.2393    3.7399   20.7288 C.ar    1  UNL1        0.0716
     30 C          -3.8693    3.7359   20.1181 C.ar    1  UNL1        0.0084
     31 C          -5.4015    3.5539   22.2084 C.3     1  UNL1        0.4186
     32 F          -5.5636    3.3678   23.6879 F       1  UNL1       -0.1659
     33 F          -3.9660    3.1313   22.3125 F       1  UNL1       -0.1659
     34 F          -6.8370    3.9765   22.1042 F       1  UNL1       -0.1659
@<TRIPOS>BOND
     1    18    19    1
     2    19    17    1
     3    17    16    1
     4     5    16    1
     5     5     6    1
     6     6     7    1
     7     7    11    1
     8    11    12    1
     9    11    13    1
    10    13    14    1
    11    13    15    1
    12     7     8    1
    13     8     9    1
    14     9    10    1
    15    10     1    1
    16     1     2   am
    17     2     3    2
    18     2    20    1
    19    20    21    1
    20    21    22   am
    21    22    23    2
    22    22    25    1
    23    25    26   ar
    24    26    27   ar
    25    27    28   ar
    26    28    29   ar
    27    29    31    1
    28    31    32    1
    29    31    33    1
    30    31    34    1
    31    29    30   ar
    32    10     5    1
    33    30    25   ar
    34     1     4    1
    35    21    24    1
@<TRIPOS>MOLECULE
*****
 34 35 0 0 0
SMALL
GASTEIGER

@<TRIPOS>ATOM
      1 N          -6.4570  -17.1200   23.6056 N.am    1  UNL1       -0.3046
      2 C          -6.6883  -15.6514   23.8041 C.2     1  UNL1        0.2425
      3 O          -5.7273  -14.6558   23.2252 O.2     1  UNL1       -0.2733
      4 H          -7.0878  -17.7735   23.9855 H       1  UNL1        0.1494
      5 C          -5.4175  -18.6842   21.8103 C.3     1  UNL1        0.0218
      6 C          -4.2250  -19.1572   21.0330 C.3     1  UNL1        0.0177
      7 C          -2.8796  -18.5393   21.2736 C.3     1  UNL1        0.0576
      8 C          -2.7266  -17.4483   22.2915 C.3     1  UNL1        0.0176
      9 C          -3.9191  -16.9752   23.0688 C.3     1  UNL1        0.0209
     10 C          -5.2645  -17.5932   22.8282 C.3     1  UNL1        0.0717
     11 N          -1.6871  -19.0124   20.4962 N.3     1  UNL1       -0.2741
     12 C          -1.2422  -20.4410   20.6010 C.3     1  UNL1        0.0896
     13 C          -0.9396  -18.0568   19.6141 C.3     1  UNL1        0.0576
     14 C           0.3694  -17.4831   20.0695 C.3     1  UNL1        0.0173
     15 C          -1.5011  -17.6750   18.2766 C.3     1  UNL1        0.0173
     16 C          -6.7629  -19.3021   21.5696 C.3     1  UNL1        0.0338
     17 C          -7.3394  -19.3285   20.1851 C.3     1  UNL1        0.1423
     18 C          -9.8113  -19.7175   19.4863 C.3     1  UNL1        0.1741
     19 O          -8.7186  -18.7937   19.9366 O.3     1  UNL1       -0.3511
     20 C          -7.8808  -15.1783   24.5814 C.3     1  UNL1        0.1759
     21 N          -9.2342  -15.7653   24.3098 N.am    1  UNL1       -0.2931
     22 C          -9.5885  -16.2246   22.9266 C.2     1  UNL1        0.2462
     23 O          -8.5895  -16.0970   21.8150 O.2     1  UNL1       -0.2701
     24 H          -9.8899  -15.8490   25.0394 H       1  UNL1        0.1502
     25 C         -10.9420  -16.8117   22.6549 C.ar    1  UNL1        0.0533
     26 C         -11.4630  -16.8766   21.2499 C.ar    1  UNL1        0.0045
     27 C         -12.8164  -17.4636   20.9783 C.ar    1  UNL1        0.0001
     28 C         -13.6487  -17.9857   22.1117 C.ar    1  UNL1        0.0039
     29 C         -13.1276  -17.9208   23.5168 C.ar    1  UNL1        0.0716
     30 C         -11.7743  -17.3338   23.7884 C.ar    1  UNL1        0.0084
     31 C         -13.9599  -18.4429   24.6502 C.3     1  UNL1        0.4186
     32 F         -14.7922  -18.9650   25.7837 F       1  UNL1       -0.1659
     33 F         -15.1907  -18.3245   23.8010 F       1  UNL1       -0.1659
     34 F         -12.7291  -18.5612   25.4995 F       1  UNL1       -0.1659
@<TRIPOS>BOND
     1    18    19    1
     2    19    17    1
     3    17    16    1
     4     5    16    1
     5     5     6    1
     6     6     7    1
     7     7    11    1
     8    11    12    1
     9    11    13    1
    10    13    14    1
    11    13    15    1
    12     7     8    1
    13     8     9    1
    14     9    10    1
    15    10     1    1
    16     1     2   am
    17     2     3    2
    18     2    20    1
    19    20    21    1
    20    21    22   am
    21    22    23    2
    22    22    25    1
    23    25    26   ar
    24    26    27   ar
    25    27    28   ar
    26    28    29   ar
    27    29    31    1
    28    31    32    1
    29    31    33    1
    30    31    34    1
    31    29    30   ar
    32    10     5    1
    33    30    25   ar
    34     1     4    1
    35    21    24    1
@<TRIPOS>MOLECULE
*****
 34 35 0 0 0
SMALL
GASTEIGER

@<TRIPOS>ATOM
      1 N           1.5792    1.0755   23.4472 N.am    1  UNL1       -0.3046
      2 C           2.0612    2.4940   23.5223 C.2     1  UNL1        0.2425
      3 O           3.0626    2.9995   22.5265 O.2     1  UNL1       -0.2733
      4 H           0.9220    0.7437   24.1008 H       1  UNL1        0.1494
      5 C           1.4277    0.1214   21.0354 C.3     1  UNL1        0.0218
      6 C           1.9471   -0.7915   19.9646 C.3     1  UNL1        0.0177
      7 C           3.1375   -1.6633   20.2347 C.3     1  UNL1        0.0576
      8 C           3.8084   -1.6222   21.5756 C.3     1  UNL1        0.0176
      9 C           3.2890   -0.7092   22.6464 C.3     1  UNL1        0.0209
     10 C           2.0986    0.1626   22.3763 C.3     1  UNL1        0.0717
     11 N           3.6569   -2.5763   19.1638 N.3     1  UNL1       -0.2741
     12 C           3.2528   -4.0207   19.1487 C.3     1  UNL1        0.0896
     13 C           4.5804   -2.0448   18.1080 C.3     1  UNL1        0.0576
     14 C           4.0735   -1.0632   17.0933 C.3     1  UNL1        0.0173
     15 C           6.0107   -2.4948   18.0670 C.3     1  UNL1        0.0173
     16 C           0.2373    0.9932   20.7653 C.3     1  UNL1        0.0338
     17 C           0.4053    2.2800   20.0130 C.3     1  UNL1        0.1423
     18 C          -0.2341    3.4941   17.8068 C.3     1  UNL1        0.1741
     19 O           0.3134    2.2909   18.5159 O.3     1  UNL1       -0.3511
     20 C           1.5418    3.4069   24.5932 C.3     1  UNL1        0.1759
     21 N           0.0961    3.8069   24.6016 N.am    1  UNL1       -0.2931
     22 C          -0.9247    2.9163   25.2455 C.2     1  UNL1        0.2462
     23 O          -0.4999    1.6257   25.8810 O.2     1  UNL1       -0.2701
     24 H          -0.1827    4.6540   24.1845 H       1  UNL1        0.1502
     25 C          -2.3704    3.3163   25.2539 C.ar    1  UNL1        0.0533
     26 C          -3.0136    3.7774   26.5281 C.ar    1  UNL1        0.0045
     27 C          -4.4593    4.1773   26.5364 C.ar    1  UNL1        0.0001
     28 C          -5.2617    4.1161   25.2706 C.ar    1  UNL1        0.0039
     29 C          -4.6185    3.6550   23.9964 C.ar    1  UNL1        0.0716
     30 C          -3.1729    3.2551   23.9880 C.ar    1  UNL1        0.0084
     31 C          -5.4209    3.5939   22.7305 C.3     1  UNL1        0.4186
     32 F          -6.2234    3.5327   21.4647 F       1  UNL1       -0.1659
     33 F          -4.3081    2.8431   22.0614 F       1  UNL1       -0.1659
     34 F          -6.5338    4.3447   23.3997 F       1  UNL1       -0.1659
@<TRIPOS>BOND
     1    18    19    1
     2    19    17    1
     3    17    16    1
     4     5    16    1
     5     5     6    1
     6     6     7    1
     7     7    11    1
     8    11    12    1
     9    11    13    1
    10    13    14    1
    11    13    15    1
    12     7     8    1
    13     8     9    1
    14     9    10    1
    15    10     1    1
    16     1     2   am
    17     2     3    2
    18     2    20    1
    19    20    21    1
    20    21    22   am
    21    22    23    2
    22    22    25    1
    23    25    26   ar
    24    26    27   ar
    25    27    28   ar
    26    28    29   ar
    27    29    31    1
    28    31    32    1
    29    31    33    1
    30    31    34    1
    31    29    30   ar
    32    10     5    1
    33    30    25   ar
    34     1     4    1
    35    21    24    1
@<TRIPOS>MOLECULE
*****
 34 35 0 0 0
SMALL
GASTEIGER

@<TRIPOS>ATOM
      1 N          -0.9937    2.3431   20.6853 N.am    1  UNL1       -0.3046
      2 C           0.1615    2.9104   19.9148 C.2     1  UNL1        0.2425
      3 O           0.6039    4.3228   20.1580 O.2     1  UNL1       -0.2733
      4 H          -1.2841    1.4160   20.5257 H       1  UNL1        0.1494
      5 C          -3.0475    3.7771   21.3750 C.3     1  UNL1        0.0218
      6 C          -3.7602    4.6223   22.3888 C.3     1  UNL1        0.0177
      7 C          -3.1320    4.8786   23.7265 C.3     1  UNL1        0.0576
      8 C          -1.7910    4.2898   24.0506 C.3     1  UNL1        0.0176
      9 C          -1.0783    3.4447   23.0368 C.3     1  UNL1        0.0209
     10 C          -1.7065    3.1883   21.6991 C.3     1  UNL1        0.0717
     11 N          -3.8448    5.7239   24.7403 N.3     1  UNL1       -0.2741
     12 C          -3.5436    7.1900   24.8394 C.3     1  UNL1        0.0896
     13 C          -4.8587    5.1029   25.6548 C.3     1  UNL1        0.0576
     14 C          -6.3136    5.1306   25.2907 C.3     1  UNL1        0.0173
     15 C          -4.4177    4.4544   26.9335 C.3     1  UNL1        0.0173
     16 C          -3.6757    3.5208   20.0373 C.3     1  UNL1        0.0338
     17 C          -5.1665    3.4045   19.9187 C.3     1  UNL1        0.1423
     18 C          -7.1546    4.5107   18.6641 C.3     1  UNL1        0.1741
     19 O          -5.8479    3.7746   18.6347 O.3     1  UNL1       -0.3511
     20 C           0.8743    2.0651   18.9011 C.3     1  UNL1        0.1759
     21 N           1.8872    1.0529   19.3475 N.am    1  UNL1       -0.2931
     22 C           1.4586   -0.1223   20.1752 C.2     1  UNL1        0.2462
     23 O           0.0171   -0.2853   20.5565 O.2     1  UNL1       -0.2701
     24 H           2.8333    1.1599   19.0973 H       1  UNL1        0.1502
     25 C           2.4716   -1.1346   20.6216 C.ar    1  UNL1        0.0533
     26 C           3.0430   -1.0633   22.0067 C.ar    1  UNL1        0.0045
     27 C           4.0559   -2.0756   22.4530 C.ar    1  UNL1        0.0001
     28 C           4.4974   -3.1591   21.5144 C.ar    1  UNL1        0.0039
     29 C           3.9259   -3.2304   20.1294 C.ar    1  UNL1        0.0716
     30 C           2.9130   -2.2181   19.6830 C.ar    1  UNL1        0.0084
     31 C           4.3674   -4.3139   19.1907 C.3     1  UNL1        0.4186
     32 F           4.8089   -5.3974   18.2521 F       1  UNL1       -0.1659
     33 F           2.9557   -4.8132   19.1031 F       1  UNL1       -0.1659
     34 F           5.7792   -3.8146   19.2784 F       1  UNL1       -0.1659
@<TRIPOS>BOND
     1    18    19    1
     2    19    17    1
     3    17    16    1
     4     5    16    1
     5     5     6    1
     6     6     7    1
     7     7    11    1
     8    11    12    1
     9    11    13    1
    10    13    14    1
    11    13    15    1
    12     7     8    1
    13     8     9    1
    14     9    10    1
    15    10     1    1
    16     1     2   am
    17     2     3    2
    18     2    20    1
    19    20    21    1
    20    21    22   am
    21    22    23    2
    22    22    25    1
    23    25    26   ar
    24    26    27   ar
    25    27    28   ar
    26    28    29   ar
    27    29    31    1
    28    31    32    1
    29    31    33    1
    30    31    34    1
    31    29    30   ar
    32    10     5    1
    33    30    25   ar
    34     1     4    1
    35    21    24    1
@<TRIPOS>MOLECULE
*****
 34 35 0 0 0
SMALL
GASTEIGER

@<TRIPOS>ATOM
      1 N         -15.8953   -2.0529   20.0614 N.am    1  UNL1       -0.3046
      2 C         -16.8972   -2.8593   19.2894 C.2     1  UNL1        0.2425
      3 O         -17.8932   -2.1700   18.4047 O.2     1  UNL1       -0.2733
      4 H         -15.2416   -2.5054   20.6421 H       1  UNL1        0.1494
      5 C         -14.9043    0.1229   19.0448 C.3     1  UNL1        0.0218
      6 C         -14.8984    1.6187   18.9321 C.3     1  UNL1        0.0177
      7 C         -15.8777    2.4343   19.7231 C.3     1  UNL1        0.0576
      8 C         -16.8628    1.7542   20.6270 C.3     1  UNL1        0.0176
      9 C         -16.8687    0.2585   20.7397 C.3     1  UNL1        0.0209
     10 C         -15.8894   -0.5571   19.9486 C.3     1  UNL1        0.0717
     11 N         -15.8717    3.9301   19.6104 N.3     1  UNL1       -0.2741
     12 C         -15.7609    4.5802   18.2631 C.3     1  UNL1        0.0896
     13 C         -15.9766    4.7757   20.8448 C.3     1  UNL1        0.0576
     14 C         -14.8822    4.7451   21.8701 C.3     1  UNL1        0.0173
     15 C         -17.1760    5.6519   21.0540 C.3     1  UNL1        0.0173
     16 C         -13.9250   -0.6927   18.2537 C.3     1  UNL1        0.0338
     17 C         -12.4637   -0.3568   18.2942 C.3     1  UNL1        0.1423
     18 C         -11.5892   -2.7702   18.6952 C.3     1  UNL1        0.1741
     19 O         -11.4964   -1.2953   18.9526 O.3     1  UNL1       -0.3511
     20 C         -16.9031   -4.3551   19.4022 C.3     1  UNL1        0.1759
     21 N         -15.9138   -5.1699   18.6229 N.am    1  UNL1       -0.2931
     22 C         -14.5119   -5.3339   19.1306 C.2     1  UNL1        0.2462
     23 O         -14.0993   -4.6831   20.4175 O.2     1  UNL1       -0.2701
     24 H         -16.1846   -5.5970   17.7782 H       1  UNL1        0.1502
     25 C         -13.5225   -6.1487   18.3513 C.ar    1  UNL1        0.0533
     26 C         -13.8921   -6.6865   17.0007 C.ar    1  UNL1        0.0045
     27 C         -12.9027   -7.5012   16.2215 C.ar    1  UNL1        0.0001
     28 C         -11.5438   -7.7783   16.7929 C.ar    1  UNL1        0.0039
     29 C         -11.1742   -7.2405   18.1435 C.ar    1  UNL1        0.0716
     30 C         -12.1636   -6.4258   18.9227 C.ar    1  UNL1        0.0084
     31 C          -9.8152   -7.5176   18.7149 C.3     1  UNL1        0.4186
     32 F          -8.4563   -7.7946   19.2863 F       1  UNL1       -0.1659
     33 F          -9.7855   -8.8381   18.0039 F       1  UNL1       -0.1659
     34 F          -9.8450   -6.1971   19.4258 F       1  UNL1       -0.1659
@<TRIPOS>BOND
     1    18    19    1
     2    19    17    1
     3    17    16    1
     4     5    16    1
     5     5     6    1
     6     6     7    1
     7     7    11    1
     8    11    12    1
     9    11    13    1
    10    13    14    1
    11    13    15    1
    12     7     8    1
    13     8     9    1
    14     9    10    1
    15    10     1    1
    16     1     2   am
    17     2     3    2
    18     2    20    1
    19    20    21    1
    20    21    22   am
    21    22    23    2
    22    22    25    1
    23    25    26   ar
    24    26    27   ar
    25    27    28   ar
    26    28    29   ar
    27    29    31    1
    28    31    32    1
    29    31    33    1
    30    31    34    1
    31    29    30   ar
    32    10     5    1
    33    30    25   ar
    34     1     4    1
    35    21    24    1
@<TRIPOS>MOLECULE
*****
 34 35 0 0 0
SMALL
GASTEIGER

@<TRIPOS>ATOM
      1 N           6.7456   -4.5066   23.3877 N.am    1  UNL1       -0.3046
      2 C           7.9317   -4.1024   22.5633 C.2     1  UNL1        0.2425
      3 O           9.1909   -3.6420   23.2360 O.2     1  UNL1       -0.2733
      4 H           5.9192   -4.8088   22.9462 H       1  UNL1        0.1494
      5 C           6.4211   -3.1983   25.6088 C.3     1  UNL1        0.0218
      6 C           6.4941   -3.1422   27.1059 C.3     1  UNL1        0.0177
      7 C           6.9647   -4.3382   27.8792 C.3     1  UNL1        0.0576
      8 C           7.3622   -5.5904   27.1554 C.3     1  UNL1        0.0176
      9 C           7.2892   -5.6465   25.6583 C.3     1  UNL1        0.0209
     10 C           6.8186   -4.4505   24.8849 C.3     1  UNL1        0.0717
     11 N           7.0377   -4.2821   29.3764 N.3     1  UNL1       -0.2741
     12 C           6.9054   -5.5408   30.1815 C.3     1  UNL1        0.0896
     13 C           7.2429   -2.9672   30.0685 C.3     1  UNL1        0.0576
     14 C           6.0879   -2.2842   30.7390 C.3     1  UNL1        0.0173
     15 C           8.6031   -2.3353   30.0901 C.3     1  UNL1        0.0173
     16 C           5.9505   -2.0023   24.8354 C.3     1  UNL1        0.0338
     17 C           4.4820   -1.7599   24.6491 C.3     1  UNL1        0.1423
     18 C           3.9787   -0.0444   26.5342 C.3     1  UNL1        0.1741
     19 O           3.6423   -1.3137   25.8092 O.3     1  UNL1       -0.3511
     20 C           7.8587   -4.1586   21.0661 C.3     1  UNL1        0.1759
     21 N           7.0634   -3.1323   20.3149 N.am    1  UNL1       -0.2931
     22 C           5.5766   -3.2828   20.1858 C.2     1  UNL1        0.2462
     23 O           4.8851   -4.4597   20.8078 O.2     1  UNL1       -0.2701
     24 H           7.5173   -2.3599   19.9067 H       1  UNL1        0.1502
     25 C           4.7813   -2.2565   19.4347 C.ar    1  UNL1        0.0533
     26 C           5.3174   -1.6790   18.1584 C.ar    1  UNL1        0.0045
     27 C           4.5221   -0.6527   17.4073 C.ar    1  UNL1        0.0001
     28 C           3.1906   -0.2040   17.9325 C.ar    1  UNL1        0.0039
     29 C           2.6544   -0.7816   19.2087 C.ar    1  UNL1        0.0716
     30 C           3.4498   -1.8079   19.9598 C.ar    1  UNL1        0.0084
     31 C           1.3229   -0.3329   19.7339 C.3     1  UNL1        0.4186
     32 F          -0.0085    0.1157   20.2591 F       1  UNL1       -0.1659
     33 F           1.0058    0.2831   18.4035 F       1  UNL1       -0.1659
     34 F           1.6401   -0.9490   21.0643 F       1  UNL1       -0.1659
@<TRIPOS>BOND
     1    18    19    1
     2    19    17    1
     3    17    16    1
     4     5    16    1
     5     5     6    1
     6     6     7    1
     7     7    11    1
     8    11    12    1
     9    11    13    1
    10    13    14    1
    11    13    15    1
    12     7     8    1
    13     8     9    1
    14     9    10    1
    15    10     1    1
    16     1     2   am
    17     2     3    2
    18     2    20    1
    19    20    21    1
    20    21    22   am
    21    22    23    2
    22    22    25    1
    23    25    26   ar
    24    26    27   ar
    25    27    28   ar
    26    28    29   ar
    27    29    31    1
    28    31    32    1
    29    31    33    1
    30    31    34    1
    31    29    30   ar
    32    10     5    1
    33    30    25   ar
    34     1     4    1
    35    21    24    1
@<TRIPOS>MOLECULE
*****
 34 35 0 0 0
SMALL
GASTEIGER

@<TRIPOS>ATOM
      1 N           1.5349    2.5918   19.8442 N.am    1  UNL1       -0.3046
      2 C           0.1051    2.5255   20.2926 C.2     1  UNL1        0.2425
      3 O          -0.5331    1.1966   20.5698 O.2     1  UNL1       -0.2733
      4 H           1.9538    3.4640   19.6622 H       1  UNL1        0.1494
      5 C           2.9772    0.6851   20.8612 C.3     1  UNL1        0.0218
      6 C           3.7689   -0.5774   20.6900 C.3     1  UNL1        0.0177
      7 C           3.9101   -1.1956   19.3307 C.3     1  UNL1        0.0576
      8 C           3.2596   -0.5514   18.1425 C.3     1  UNL1        0.0176
      9 C           2.4679    0.7111   18.3137 C.3     1  UNL1        0.0209
     10 C           2.3267    1.3293   19.6730 C.3     1  UNL1        0.0717
     11 N           4.7019   -2.4582   19.1596 N.3     1  UNL1       -0.2741
     12 C           5.8960   -2.4773   18.2520 C.3     1  UNL1        0.0896
     13 C           4.2995   -3.7014   19.8960 C.3     1  UNL1        0.0576
     14 C           3.4011   -4.7058   19.2371 C.3     1  UNL1        0.0173
     15 C           4.7954   -3.9403   21.2913 C.3     1  UNL1        0.0173
     16 C           2.8359    1.3033   22.2206 C.3     1  UNL1        0.0338
     17 C           1.8992    0.7004   23.2251 C.3     1  UNL1        0.1423
     18 C           0.8552    2.8849   24.1676 C.3     1  UNL1        0.1741
     19 O           1.4246    1.5153   24.3916 O.3     1  UNL1       -0.3511
     20 C          -0.6867    3.7880   20.4637 C.3     1  UNL1        0.1759
     21 N          -1.4742    4.0149   21.7200 N.am    1  UNL1       -0.2931
     22 C          -2.8906    3.5304   21.8149 C.2     1  UNL1        0.2462
     23 O          -3.5194    2.8190   20.6537 O.2     1  UNL1       -0.2701
     24 H          -1.0615    4.4818   22.4821 H       1  UNL1        0.1502
     25 C          -3.6783    3.7573   23.0712 C.ar    1  UNL1        0.0533
     26 C          -3.0083    3.6396   24.4081 C.ar    1  UNL1        0.0045
     27 C          -3.7959    3.8665   25.6643 C.ar    1  UNL1        0.0001
     28 C          -5.2536    4.2111   25.5836 C.ar    1  UNL1        0.0039
     29 C          -5.9236    4.3287   24.2468 C.ar    1  UNL1        0.0716
     30 C          -5.1359    4.1018   22.9906 C.ar    1  UNL1        0.0084
     31 C          -7.3813    4.6732   24.1661 C.3     1  UNL1        0.4186
     32 F          -8.8389    5.0178   24.0855 F       1  UNL1       -0.1659
     33 F          -7.2548    5.4998   25.4115 F       1  UNL1       -0.1659
     34 F          -7.5077    3.8467   22.9208 F       1  UNL1       -0.1659
@<TRIPOS>BOND
     1    18    19    1
     2    19    17    1
     3    17    16    1
     4     5    16    1
     5     5     6    1
     6     6     7    1
     7     7    11    1
     8    11    12    1
     9    11    13    1
    10    13    14    1
    11    13    15    1
    12     7     8    1
    13     8     9    1
    14     9    10    1
    15    10     1    1
    16     1     2   am
    17     2     3    2
    18     2    20    1
    19    20    21    1
    20    21    22   am
    21    22    23    2
    22    22    25    1
    23    25    26   ar
    24    26    27   ar
    25    27    28   ar
    26    28    29   ar
    27    29    31    1
    28    31    32    1
    29    31    33    1
    30    31    34    1
    31    29    30   ar
    32    10     5    1
    33    30    25   ar
    34     1     4    1
    35    21    24    1
@<TRIPOS>MOLECULE
*****
 34 35 0 0 0
SMALL
GASTEIGER

@<TRIPOS>ATOM
      1 N         -15.7039   -1.2839   20.1541 N.am    1  UNL1       -0.3046
      2 C         -16.4874   -2.4149   19.5566 C.2     1  UNL1        0.2425
      3 O         -17.7670   -2.1366   18.8250 O.2     1  UNL1       -0.2733
      4 H         -14.8641   -1.4666   20.6343 H       1  UNL1        0.1494
      5 C         -15.7123    0.9880   18.8938 C.3     1  UNL1        0.0218
      6 C         -16.2083    2.3972   18.7596 C.3     1  UNL1        0.0177
      7 C         -17.1919    2.9438   19.7515 C.3     1  UNL1        0.0576
      8 C         -17.6794    2.0811   20.8776 C.3     1  UNL1        0.0176
      9 C         -17.1834    0.6719   21.0118 C.3     1  UNL1        0.0209
     10 C         -16.1999    0.1254   20.0199 C.3     1  UNL1        0.0717
     11 N         -17.6879    4.3531   19.6173 N.3     1  UNL1       -0.2741
     12 C         -19.1608    4.6354   19.6434 C.3     1  UNL1        0.0896
     13 C         -16.7109    5.4800   19.4571 C.3     1  UNL1        0.0576
     14 C         -15.8034    5.8529   20.5918 C.3     1  UNL1        0.0173
     15 C         -16.6414    6.2339   18.1622 C.3     1  UNL1        0.0173
     16 C         -14.7288    0.4414   17.9018 C.3     1  UNL1        0.0338
     17 C         -13.2564    0.6011   18.1396 C.3     1  UNL1        0.1423
     18 C         -12.7685    2.5321   16.4714 C.3     1  UNL1        0.1741
     19 O         -12.5818    1.9021   17.8198 O.3     1  UNL1       -0.3511
     20 C         -15.9914   -3.8242   19.6908 C.3     1  UNL1        0.1759
     21 N         -14.6977   -4.2284   19.0482 N.am    1  UNL1       -0.2931
     22 C         -13.3937   -3.8625   19.6928 C.2     1  UNL1        0.2462
     23 O         -13.3833   -3.0924   20.9800 O.2     1  UNL1       -0.2701
     24 H         -14.7046   -4.7338   18.2034 H       1  UNL1        0.1502
     25 C         -12.0999   -4.2667   19.0501 C.ar    1  UNL1        0.0533
     26 C         -11.1684   -3.2193   18.5161 C.ar    1  UNL1        0.0045
     27 C          -9.8747   -3.6235   17.8735 C.ar    1  UNL1        0.0001
     28 C          -9.5126   -5.0751   17.7650 C.ar    1  UNL1        0.0039
     29 C         -10.4441   -6.1225   18.2990 C.ar    1  UNL1        0.0716
     30 C         -11.7378   -5.7183   18.9416 C.ar    1  UNL1        0.0084
     31 C         -10.0819   -7.5740   18.1905 C.3     1  UNL1        0.4186
     32 F          -9.7198   -9.0256   18.0820 F       1  UNL1       -0.1659
     33 F         -11.0009   -7.7153   17.0134 F       1  UNL1       -0.1659
     34 F          -9.1630   -7.4328   19.3676 F       1  UNL1       -0.1659
@<TRIPOS>BOND
     1    18    19    1
     2    19    17    1
     3    17    16    1
     4     5    16    1
     5     5     6    1
     6     6     7    1
     7     7    11    1
     8    11    12    1
     9    11    13    1
    10    13    14    1
    11    13    15    1
    12     7     8    1
    13     8     9    1
    14     9    10    1
    15    10     1    1
    16     1     2   am
    17     2     3    2
    18     2    20    1
    19    20    21    1
    20    21    22   am
    21    22    23    2
    22    22    25    1
    23    25    26   ar
    24    26    27   ar
    25    27    28   ar
    26    28    29   ar
    27    29    31    1
    28    31    32    1
    29    31    33    1
    30    31    34    1
    31    29    30   ar
    32    10     5    1
    33    30    25   ar
    34     1     4    1
    35    21    24    1
@<TRIPOS>MOLECULE
*****
 34 35 0 0 0
SMALL
GASTEIGER

@<TRIPOS>ATOM
      1 N          -0.3864    2.5412   20.9696 N.am    1  UNL1       -0.3046
      2 C           0.8517    3.0783   20.3150 C.2     1  UNL1        0.2425
      3 O           1.3628    4.4404   20.6804 O.2     1  UNL1       -0.2733
      4 H          -0.7218    1.6472   20.7298 H       1  UNL1        0.1494
      5 C          -0.8545    3.1507   23.4515 C.3     1  UNL1        0.0218
      6 C          -1.5815    3.9757   24.4716 C.3     1  UNL1        0.0177
      7 C          -2.5676    5.0162   24.0301 C.3     1  UNL1        0.0576
      8 C          -2.8266    5.2318   22.5685 C.3     1  UNL1        0.0176
      9 C          -2.0995    4.4068   21.5483 C.3     1  UNL1        0.0209
     10 C          -1.1135    3.3662   21.9899 C.3     1  UNL1        0.0717
     11 N          -3.2947    5.8412   25.0503 N.3     1  UNL1       -0.2741
     12 C          -3.9339    7.1376   24.6492 C.3     1  UNL1        0.0896
     13 C          -3.3826    5.3699   26.4716 C.3     1  UNL1        0.0576
     14 C          -4.3227    4.2595   26.8368 C.3     1  UNL1        0.0173
     15 C          -2.5304    6.0089   27.5277 C.3     1  UNL1        0.0173
     16 C           0.1316    2.1102   23.8930 C.3     1  UNL1        0.0338
     17 C           0.4438    1.9433   25.3506 C.3     1  UNL1        0.1423
     18 C          -0.6988    1.3846   27.6161 C.3     1  UNL1        0.1741
     19 O          -0.3860    1.0218   26.1946 O.3     1  UNL1       -0.3511
     20 C           1.5788    2.2533   19.2947 C.3     1  UNL1        0.1759
     21 N           2.4801    1.1384   19.7359 N.am    1  UNL1       -0.2931
     22 C           1.8926   -0.1336   20.2714 C.2     1  UNL1        0.2462
     23 O           0.4039   -0.2907   20.3658 O.2     1  UNL1       -0.2701
     24 H           3.4572    1.2415   19.6740 H       1  UNL1        0.1502
     25 C           2.7939   -1.2486   20.7126 C.ar    1  UNL1        0.0533
     26 C           3.3211   -1.2759   22.1166 C.ar    1  UNL1        0.0045
     27 C           4.2223   -2.3908   22.5578 C.ar    1  UNL1        0.0001
     28 C           4.5964   -3.4785   21.5949 C.ar    1  UNL1        0.0039
     29 C           4.0692   -3.4512   20.1909 C.ar    1  UNL1        0.0716
     30 C           3.1680   -2.3362   19.7497 C.ar    1  UNL1        0.0084
     31 C           4.4433   -4.5388   19.2280 C.3     1  UNL1        0.4186
     32 F           4.8173   -5.6264   18.2651 F       1  UNL1       -0.1659
     33 F           2.9955   -4.7370   18.8895 F       1  UNL1       -0.1659
     34 F           5.8911   -4.3406   19.5665 F       1  UNL1       -0.1659
@<TRIPOS>BOND
     1    18    19    1
     2    19    17    1
     3    17    16    1
     4     5    16    1
     5     5     6    1
     6     6     7    1
     7     7    11    1
     8    11    12    1
     9    11    13    1
    10    13    14    1
    11    13    15    1
    12     7     8    1
    13     8     9    1
    14     9    10    1
    15    10     1    1
    16     1     2   am
    17     2     3    2
    18     2    20    1
    19    20    21    1
    20    21    22   am
    21    22    23    2
    22    22    25    1
    23    25    26   ar
    24    26    27   ar
    25    27    28   ar
    26    28    29   ar
    27    29    31    1
    28    31    32    1
    29    31    33    1
    30    31    34    1
    31    29    30   ar
    32    10     5    1
    33    30    25   ar
    34     1     4    1
    35    21    24    1
