@<TRIPOS>MOLECULE
*****
 29 31 0 0 0
SMALL
GASTEIGER

@<TRIPOS>ATOM
      1 C          -7.0267  -18.5506   21.0678 C.2     1  UNL1        0.2420
      2 O          -8.4404  -18.7010   20.5894 O.2     1  UNL1       -0.2734
      3 N          -6.7410  -17.8163   22.3442 N.am    1  UNL1       -0.2760
      4 C          -5.3273  -17.6660   22.8226 C.3     1  UNL1        0.0983
      5 C          -5.0415  -16.9317   24.0990 C.3     1  UNL1        0.0476
      6 C          -6.1695  -16.3478   24.8971 C.ar    1  UNL1       -0.0229
      7 C          -5.8837  -15.6136   26.1734 C.ar    1  UNL1       -0.0045
      8 C          -7.0116  -15.0297   26.9714 C.ar    1  UNL1       -0.0003
      9 C          -8.4253  -15.1801   26.4931 C.ar    1  UNL1       -0.0003
     10 C          -8.7111  -15.9143   25.2167 C.ar    1  UNL1       -0.0030
     11 C          -7.5832  -16.4982   24.4187 C.ar    1  UNL1       -0.0082
     12 C          -7.8689  -17.2324   23.1422 C.3     1  UNL1        0.0975
     13 C          -9.2826  -17.3828   22.6638 C.3     1  UNL1        0.0224
     14 C         -10.0907  -18.5776   23.0756 C.3     1  UNL1        0.0020
     15 C         -11.5044  -18.7280   22.5973 C.3     1  UNL1        0.0001
     16 C         -12.1100  -17.6835   21.7071 C.3     1  UNL1        0.0000
     17 C         -11.3020  -16.4888   21.2954 C.3     1  UNL1        0.0001
     18 C          -9.8883  -16.3384   21.7737 C.3     1  UNL1        0.0020
     19 C          -5.8988  -19.1345   20.2698 C.3     1  UNL1        0.1552
     20 N          -4.7214  -18.2818   19.9005 N.3     1  UNL1       -0.2889
     21 H          -4.7338  -18.1864   18.8850 H       1  UNL1        0.1237
     22 CA         -3.3351  -18.7131   20.2780 C.3     1  UNL1        0.0839
     23 C          -2.0136  -18.2035   18.6989 C.3     1  UNL1        0.0014
     24 C          -2.1853  -17.7625   20.1222 C.3     1  UNL1        0.0156
     25 C          -2.3570  -17.3215   21.5456 C.3     1  UNL1        0.0014
     26 C          -1.0355  -16.8120   19.9664 C.3     1  UNL1        0.0014
     27 C          -3.0988  -20.0950   20.8113 C.3     1  UNL1        0.1527
     28 O          -1.8026  -20.4256   21.4899 O.3     1  UNL1       -0.3806
     29 H          -1.0785  -20.3739   20.8466 H       1  UNL1        0.2105
@<TRIPOS>BOND
     1    23    24    1
     2    24    25    1
     3    24    26    1
     4    24    22    1
     5    22    27    1
     6    27    28    1
     7    22    20    1
     8    20    19    1
     9    19     1    1
    10     1     2    2
    11     1     3   am
    12     3     4    1
    13     4     5    1
    14     5     6    1
    15     6     7   ar
    16     7     8   ar
    17     8     9   ar
    18     9    10   ar
    19    10    11   ar
    20    11    12    1
    21    12    13    1
    22    13    14    1
    23    14    15    1
    24    15    16    1
    25    16    17    1
    26    17    18    1
    27    12     3    1
    28    18    13    1
    29    11     6   ar
    30    28    29    1
    31    20    21    1
@<TRIPOS>MOLECULE
*****
 29 31 0 0 0
SMALL
GASTEIGER

@<TRIPOS>ATOM
      1 C          -6.1943  -18.4389   22.3592 C.2     1  UNL1        0.2420
      2 O          -5.7553  -17.6818   23.5774 O.2     1  UNL1       -0.2734
      3 N          -7.6101  -18.3268   21.8764 N.am    1  UNL1       -0.2760
      4 C          -8.0492  -19.0839   20.6582 C.3     1  UNL1        0.0983
      5 C          -9.4649  -18.9718   20.1753 C.3     1  UNL1        0.0476
      6 C         -10.4416  -18.1026   20.9106 C.ar    1  UNL1       -0.0229
      7 C         -11.8573  -17.9906   20.4277 C.ar    1  UNL1       -0.0045
      8 C         -12.8339  -17.1214   21.1631 C.ar    1  UNL1       -0.0003
      9 C         -12.3948  -16.3643   22.3813 C.ar    1  UNL1       -0.0003
     10 C         -10.9791  -16.4764   22.8642 C.ar    1  UNL1       -0.0030
     11 C         -10.0025  -17.3455   22.1288 C.ar    1  UNL1       -0.0082
     12 C          -8.5867  -17.4577   22.6117 C.3     1  UNL1        0.0975
     13 C          -8.1476  -16.7006   23.8299 C.3     1  UNL1        0.0224
     14 C          -8.5935  -17.1462   25.1911 C.3     1  UNL1        0.0020
     15 C          -8.1544  -16.3892   26.4093 C.3     1  UNL1        0.0001
     16 C          -7.2695  -15.1864   26.2663 C.3     1  UNL1        0.0000
     17 C          -6.8237  -14.7408   24.9052 C.3     1  UNL1        0.0001
     18 C          -7.2627  -15.4979   23.6870 C.3     1  UNL1        0.0020
     19 C          -5.2177  -19.3081   21.6239 C.3     1  UNL1        0.1552
     20 N          -4.4310  -18.7475   20.4764 N.3     1  UNL1       -0.2889
     21 H          -4.2961  -19.5094   19.8118 H       1  UNL1        0.1237
     22 CA         -3.0811  -18.1398   20.7184 C.3     1  UNL1        0.0839
     23 C          -3.1840  -17.4388   18.7189 C.3     1  UNL1        0.0014
     24 C          -2.1034  -18.0102   19.5882 C.3     1  UNL1        0.0156
     25 C          -1.0228  -18.5817   20.4575 C.3     1  UNL1        0.0014
     26 C          -1.1258  -17.8807   18.4580 C.3     1  UNL1        0.0014
     27 C          -2.7089  -17.6617   22.0906 C.3     1  UNL1        0.1527
     28 O          -3.2689  -16.3719   22.6129 O.3     1  UNL1       -0.3806
     29 H          -2.9265  -15.6335   22.0853 H       1  UNL1        0.2105
@<TRIPOS>BOND
     1    23    24    1
     2    24    25    1
     3    24    26    1
     4    24    22    1
     5    22    27    1
     6    27    28    1
     7    22    20    1
     8    20    19    1
     9    19     1    1
    10     1     2    2
    11     1     3   am
    12     3     4    1
    13     4     5    1
    14     5     6    1
    15     6     7   ar
    16     7     8   ar
    17     8     9   ar
    18     9    10   ar
    19    10    11   ar
    20    11    12    1
    21    12    13    1
    22    13    14    1
    23    14    15    1
    24    15    16    1
    25    16    17    1
    26    17    18    1
    27    12     3    1
    28    18    13    1
    29    11     6   ar
    30    28    29    1
    31    20    21    1
@<TRIPOS>MOLECULE
*****
 29 31 0 0 0
SMALL
GASTEIGER

@<TRIPOS>ATOM
      1 C         -14.5525   -5.8746   18.9990 C.2     1  UNL1        0.2420
      2 O         -13.2408   -6.5054   18.6363 O.2     1  UNL1       -0.2734
      3 N         -14.6936   -4.3812   18.9931 N.am    1  UNL1       -0.2760
      4 C         -16.0053   -3.7504   19.3558 C.3     1  UNL1        0.0983
      5 C         -16.1465   -2.2571   19.3499 C.3     1  UNL1        0.0476
      6 C         -14.9759   -1.3946   18.9813 C.ar    1  UNL1       -0.0229
      7 C         -15.1171    0.0987   18.9754 C.ar    1  UNL1       -0.0045
      8 C         -13.9465    0.9612   18.6068 C.ar    1  UNL1       -0.0003
      9 C         -12.6349    0.3304   18.2441 C.ar    1  UNL1       -0.0003
     10 C         -12.4937   -1.1628   18.2500 C.ar    1  UNL1       -0.0030
     11 C         -13.6642   -2.0253   18.6186 C.ar    1  UNL1       -0.0082
     12 C         -13.5231   -3.5187   18.6245 C.3     1  UNL1        0.0975
     13 C         -12.2114   -4.1495   18.2618 C.3     1  UNL1        0.0224
     14 C         -11.2137   -4.4748   19.3337 C.3     1  UNL1        0.0020
     15 C          -9.9020   -5.1056   18.9710 C.3     1  UNL1        0.0001
     16 C          -9.5880   -5.4111   17.5363 C.3     1  UNL1        0.0000
     17 C         -10.5856   -5.0859   16.4645 C.3     1  UNL1        0.0001
     18 C         -11.8973   -4.4551   16.8272 C.3     1  UNL1        0.0020
     19 C         -15.7230   -6.7371   19.3676 C.3     1  UNL1        0.1552
     20 N         -16.5567   -7.3693   18.2928 N.3     1  UNL1       -0.2889
     21 H         -17.5289   -7.1433   18.5031 H       1  UNL1        0.1237
     22 CA        -16.4951   -8.8514   18.0700 C.3     1  UNL1        0.0839
     23 C         -17.0889  -10.8137   18.6149 C.3     1  UNL1        0.0014
     24 C         -17.7622   -9.6461   17.9567 C.3     1  UNL1        0.0156
     25 C         -18.4356   -8.4785   17.2984 C.3     1  UNL1        0.0014
     26 C         -19.0293  -10.4407   17.8433 C.3     1  UNL1        0.0014
     27 C         -15.1664   -9.5388   17.9607 C.3     1  UNL1        0.1527
     28 O         -14.0998   -9.2763   18.9822 O.3     1  UNL1       -0.3806
     29 H         -13.8105   -8.3527   18.9175 H       1  UNL1        0.2105
@<TRIPOS>BOND
     1    23    24    1
     2    24    25    1
     3    24    26    1
     4    24    22    1
     5    22    27    1
     6    27    28    1
     7    22    20    1
     8    20    19    1
     9    19     1    1
    10     1     2    2
    11     1     3   am
    12     3     4    1
    13     4     5    1
    14     5     6    1
    15     6     7   ar
    16     7     8   ar
    17     8     9   ar
    18     9    10   ar
    19    10    11   ar
    20    11    12    1
    21    12    13    1
    22    13    14    1
    23    14    15    1
    24    15    16    1
    25    16    17    1
    26    17    18    1
    27    12     3    1
    28    18    13    1
    29    11     6   ar
    30    28    29    1
    31    20    21    1
@<TRIPOS>MOLECULE
*****
 29 31 0 0 0
SMALL
GASTEIGER

@<TRIPOS>ATOM
      1 C          -7.5912  -18.8424   22.6451 C.2     1  UNL1        0.2420
      2 O          -7.8496  -17.8694   23.7570 O.2     1  UNL1       -0.2734
      3 N          -6.2460  -18.8844   21.9826 N.am    1  UNL1       -0.2760
      4 C          -5.9876  -19.8574   20.8707 C.3     1  UNL1        0.0983
      5 C          -4.6425  -19.8994   20.2083 C.3     1  UNL1        0.0476
      6 C          -3.5557  -18.9683   20.6577 C.ar    1  UNL1       -0.0229
      7 C          -2.2106  -19.0102   19.9953 C.ar    1  UNL1       -0.0045
      8 C          -1.1239  -18.0791   20.4447 C.ar    1  UNL1       -0.0003
      9 C          -1.3823  -17.1061   21.5567 C.ar    1  UNL1       -0.0003
     10 C          -2.7274  -17.0641   22.2191 C.ar    1  UNL1       -0.0030
     11 C          -3.8141  -17.9952   21.7697 C.ar    1  UNL1       -0.0082
     12 C          -5.1593  -17.9533   22.4321 C.3     1  UNL1        0.0975
     13 C          -5.4177  -16.9802   23.5440 C.3     1  UNL1        0.0224
     14 C          -4.7506  -17.1672   24.8745 C.3     1  UNL1        0.0020
     15 C          -5.0090  -16.1941   25.9864 C.3     1  UNL1        0.0001
     16 C          -5.9345  -15.0341   25.7679 C.3     1  UNL1        0.0000
     17 C          -6.6016  -14.8471   24.4375 C.3     1  UNL1        0.0001
     18 C          -6.3432  -15.8202   23.3256 C.3     1  UNL1        0.0020
     19 C          -8.6779  -19.7735   22.1956 C.3     1  UNL1        0.1552
     20 N         -10.0698  -19.6163   22.7323 N.3     1  UNL1       -0.2889
     21 H         -10.5754  -20.4695   22.4940 H       1  UNL1        0.1237
     22 CA        -10.9222  -18.4674   22.2811 C.3     1  UNL1        0.0839
     23 C         -12.8210  -17.7516   21.6629 C.3     1  UNL1        0.0014
     24 C         -12.2244  -18.1841   22.9695 C.3     1  UNL1        0.0156
     25 C         -11.6279  -18.6165   24.2760 C.3     1  UNL1        0.0014
     26 C         -13.5266  -17.9007   23.6579 C.3     1  UNL1        0.0014
     27 C         -10.4724  -17.6020   21.1415 C.3     1  UNL1        0.1527
     28 O          -9.5586  -16.4403   21.3972 O.3     1  UNL1       -0.3806
     29 H         -10.0213  -15.7766   21.9323 H       1  UNL1        0.2105
@<TRIPOS>BOND
     1    23    24    1
     2    24    25    1
     3    24    26    1
     4    24    22    1
     5    22    27    1
     6    27    28    1
     7    22    20    1
     8    20    19    1
     9    19     1    1
    10     1     2    2
    11     1     3   am
    12     3     4    1
    13     4     5    1
    14     5     6    1
    15     6     7   ar
    16     7     8   ar
    17     8     9   ar
    18     9    10   ar
    19    10    11   ar
    20    11    12    1
    21    12    13    1
    22    13    14    1
    23    14    15    1
    24    15    16    1
    25    16    17    1
    26    17    18    1
    27    12     3    1
    28    18    13    1
    29    11     6   ar
    30    28    29    1
    31    20    21    1
@<TRIPOS>MOLECULE
*****
 29 31 0 0 0
SMALL
GASTEIGER

@<TRIPOS>ATOM
      1 C         -13.6805   -7.2354   17.5578 C.2     1  UNL1        0.2420
      2 O         -12.1995   -7.2673   17.3219 O.2     1  UNL1       -0.2734
      3 N         -14.3566   -5.9428   17.9072 N.am    1  UNL1       -0.2760
      4 C         -15.8376   -5.9108   18.1430 C.3     1  UNL1        0.0983
      5 C         -16.5138   -4.6183   18.4924 C.3     1  UNL1        0.0476
      6 C         -15.7089   -3.3575   18.6059 C.ar    1  UNL1       -0.0229
      7 C         -16.3850   -2.0650   18.9553 C.ar    1  UNL1       -0.0045
      8 C         -15.5801   -0.8043   19.0687 C.ar    1  UNL1       -0.0003
      9 C         -14.0991   -0.8363   18.8329 C.ar    1  UNL1       -0.0003
     10 C         -13.4230   -2.1288   18.4835 C.ar    1  UNL1       -0.0030
     11 C         -14.2279   -3.3895   18.3700 C.ar    1  UNL1       -0.0082
     12 C         -13.5518   -4.6821   18.0207 C.3     1  UNL1        0.0975
     13 C         -12.0708   -4.7141   17.7848 C.3     1  UNL1        0.0224
     14 C         -11.1339   -4.9577   18.9307 C.3     1  UNL1        0.0020
     15 C          -9.6529   -4.9896   18.6948 C.3     1  UNL1        0.0001
     16 C          -9.1088   -4.7779   17.3130 C.3     1  UNL1        0.0000
     17 C         -10.0456   -4.5343   16.1672 C.3     1  UNL1        0.0001
     18 C         -11.5266   -4.5024   16.4031 C.3     1  UNL1        0.0020
     19 C         -14.4854   -8.4961   17.4443 C.3     1  UNL1        0.1552
     20 N         -14.9671   -9.1923   18.6825 N.3     1  UNL1       -0.2889
     21 H         -14.3436   -9.9849   18.8361 H       1  UNL1        0.1237
     22 CA        -16.3680   -9.7246   18.7468 C.3     1  UNL1        0.0839
     23 C         -18.2120   -9.0433   17.9497 C.3     1  UNL1        0.0014
     24 C         -17.4804   -8.8503   19.2449 C.3     1  UNL1        0.0156
     25 C         -16.7488   -8.6573   20.5400 C.3     1  UNL1        0.0014
     26 C         -18.5928   -7.9760   19.7430 C.3     1  UNL1        0.0014
     27 C         -16.6565  -11.1312   18.3130 C.3     1  UNL1        0.1527
     28 O         -17.0533  -12.1625   19.3274 O.3     1  UNL1       -0.3806
     29 H         -16.3101  -12.3273   19.9287 H       1  UNL1        0.2105
@<TRIPOS>BOND
     1    23    24    1
     2    24    25    1
     3    24    26    1
     4    24    22    1
     5    22    27    1
     6    27    28    1
     7    22    20    1
     8    20    19    1
     9    19     1    1
    10     1     2    2
    11     1     3   am
    12     3     4    1
    13     4     5    1
    14     5     6    1
    15     6     7   ar
    16     7     8   ar
    17     8     9   ar
    18     9    10   ar
    19    10    11   ar
    20    11    12    1
    21    12    13    1
    22    13    14    1
    23    14    15    1
    24    15    16    1
    25    16    17    1
    26    17    18    1
    27    12     3    1
    28    18    13    1
    29    11     6   ar
    30    28    29    1
    31    20    21    1
@<TRIPOS>MOLECULE
*****
 29 31 0 0 0
SMALL
GASTEIGER

@<TRIPOS>ATOM
      1 C          -7.4488  -18.7605   22.7464 C.2     1  UNL1        0.2420
      2 O          -7.6262  -17.8345   23.9131 O.2     1  UNL1       -0.2734
      3 N          -6.1454  -18.7911   22.0046 N.am    1  UNL1       -0.2760
      4 C          -5.9680  -19.7171   20.8379 C.3     1  UNL1        0.0983
      5 C          -4.6647  -19.7478   20.0961 C.3     1  UNL1        0.0476
      6 C          -3.5386  -18.8524   20.5210 C.ar    1  UNL1       -0.0229
      7 C          -2.2353  -18.8831   19.7792 C.ar    1  UNL1       -0.0045
      8 C          -1.1093  -17.9878   20.2041 C.ar    1  UNL1       -0.0003
      9 C          -1.2866  -17.0619   21.3707 C.ar    1  UNL1       -0.0003
     10 C          -2.5900  -17.0312   22.1125 C.ar    1  UNL1       -0.0030
     11 C          -3.7160  -17.9265   21.6877 C.ar    1  UNL1       -0.0082
     12 C          -5.0194  -17.8958   22.4295 C.3     1  UNL1        0.0975
     13 C          -5.1967  -16.9699   23.5961 C.3     1  UNL1        0.0224
     14 C          -6.0311  -15.7317   23.4509 C.3     1  UNL1        0.0020
     15 C          -6.2085  -14.8058   24.6176 C.3     1  UNL1        0.0001
     16 C          -5.5515  -15.1179   25.9295 C.3     1  UNL1        0.0000
     17 C          -4.7172  -16.3560   26.0747 C.3     1  UNL1        0.0001
     18 C          -4.5398  -17.2820   24.9080 C.3     1  UNL1        0.0020
     19 C          -8.5748  -19.6558   22.3215 C.3     1  UNL1        0.1552
     20 N          -9.9162  -19.0698   21.9943 N.3     1  UNL1       -0.2889
     21 H          -9.7472  -18.2691   21.3855 H       1  UNL1        0.1237
     22 CA        -10.8157  -18.5937   23.0963 C.3     1  UNL1        0.0839
     23 C         -10.4811  -16.6499   22.3155 C.3     1  UNL1        0.0014
     24 C         -11.6605  -17.3701   22.8989 C.3     1  UNL1        0.0156
     25 C         -12.8399  -18.0902   23.4823 C.3     1  UNL1        0.0014
     26 C         -12.5053  -16.1464   22.7015 C.3     1  UNL1        0.0014
     27 C         -10.8704  -19.3412   24.3956 C.3     1  UNL1        0.1527
     28 O          -9.9341  -18.9781   25.5097 O.3     1  UNL1       -0.3806
     29 H          -9.0229  -19.1794   25.2449 H       1  UNL1        0.2105
@<TRIPOS>BOND
     1    23    24    1
     2    24    25    1
     3    24    26    1
     4    24    22    1
     5    22    27    1
     6    27    28    1
     7    22    20    1
     8    20    19    1
     9    19     1    1
    10     1     2    2
    11     1     3   am
    12     3     4    1
    13     4     5    1
    14     5     6    1
    15     6     7   ar
    16     7     8   ar
    17     8     9   ar
    18     9    10   ar
    19    10    11   ar
    20    11    12    1
    21    12    13    1
    22    13    14    1
    23    14    15    1
    24    15    16    1
    25    16    17    1
    26    17    18    1
    27    12     3    1
    28    18    13    1
    29    11     6   ar
    30    28    29    1
    31    20    21    1
@<TRIPOS>MOLECULE
*****
 29 31 0 0 0
SMALL
GASTEIGER

@<TRIPOS>ATOM
      1 C          -9.5354  -16.7166   22.6033 C.2     1  UNL1        0.2420
      2 O          -9.2613  -15.8504   23.7968 O.2     1  UNL1       -0.2734
      3 N          -8.4493  -17.5861   22.0423 N.am    1  UNL1       -0.2760
      4 C          -8.7234  -18.4523   20.8488 C.3     1  UNL1        0.0983
      5 C          -7.6375  -19.3218   20.2878 C.3     1  UNL1        0.0476
      6 C          -6.2773  -19.3251   20.9204 C.ar    1  UNL1       -0.0229
      7 C          -5.1914  -20.1945   20.3595 C.ar    1  UNL1       -0.0045
      8 C          -3.8314  -20.1978   20.9921 C.ar    1  UNL1       -0.0003
      9 C          -3.5573  -19.3316   22.1857 C.ar    1  UNL1       -0.0003
     10 C          -4.6432  -18.4622   22.7466 C.ar    1  UNL1       -0.0030
     11 C          -6.0033  -18.4589   22.1140 C.ar    1  UNL1       -0.0082
     12 C          -7.0893  -17.5894   22.6749 C.3     1  UNL1        0.0975
     13 C          -6.8152  -16.7232   23.8685 C.3     1  UNL1        0.0224
     14 C          -7.4982  -17.0067   25.1736 C.3     1  UNL1        0.0020
     15 C          -7.2241  -16.1405   26.3672 C.3     1  UNL1        0.0001
     16 C          -6.2670  -14.9908   26.2556 C.3     1  UNL1        0.0000
     17 C          -5.5841  -14.7074   24.9505 C.3     1  UNL1        0.0001
     18 C          -5.8582  -15.5736   23.7570 C.3     1  UNL1        0.0020
     19 C         -10.8954  -16.7134   21.9706 C.3     1  UNL1        0.1552
     20 N         -11.8223  -17.8741   22.1792 N.3     1  UNL1       -0.2889
     21 H         -12.7718  -17.5124   22.0897 H       1  UNL1        0.1237
     22 CA        -11.7741  -18.6515   23.4612 C.3     1  UNL1        0.0839
     23 C         -10.3538  -18.9474   25.0087 C.3     1  UNL1        0.0014
     24 C         -10.6599  -19.6254   23.7062 C.3     1  UNL1        0.0156
     25 C         -10.9660  -20.3034   22.4037 C.3     1  UNL1        0.0014
     26 C          -9.5457  -20.5992   23.9513 C.3     1  UNL1        0.0014
     27 C         -12.8401  -18.4550   24.4980 C.3     1  UNL1        0.1527
     28 O         -14.1278  -17.7791   24.1310 O.3     1  UNL1       -0.3806
     29 H         -13.9528  -16.8532   23.9006 H       1  UNL1        0.2105
@<TRIPOS>BOND
     1    23    24    1
     2    24    25    1
     3    24    26    1
     4    24    22    1
     5    22    27    1
     6    27    28    1
     7    22    20    1
     8    20    19    1
     9    19     1    1
    10     1     2    2
    11     1     3   am
    12     3     4    1
    13     4     5    1
    14     5     6    1
    15     6     7   ar
    16     7     8   ar
    17     8     9   ar
    18     9    10   ar
    19    10    11   ar
    20    11    12    1
    21    12    13    1
    22    13    14    1
    23    14    15    1
    24    15    16    1
    25    16    17    1
    26    17    18    1
    27    12     3    1
    28    18    13    1
    29    11     6   ar
    30    28    29    1
    31    20    21    1
@<TRIPOS>MOLECULE
*****
 29 31 0 0 0
SMALL
GASTEIGER

@<TRIPOS>ATOM
      1 C          -9.3318  -18.0404   20.8754 C.2     1  UNL1        0.2420
      2 O          -8.6038  -19.1181   20.1280 O.2     1  UNL1       -0.2734
      3 N          -8.6391  -17.2909   21.9747 N.am    1  UNL1       -0.2760
      4 C          -9.3671  -16.2132   22.7221 C.3     1  UNL1        0.0983
      5 C          -8.6744  -15.4637   23.8213 C.3     1  UNL1        0.0476
      6 C          -7.2536  -15.7919   24.1733 C.ar    1  UNL1       -0.0229
      7 C          -6.5610  -15.0424   25.2725 C.ar    1  UNL1       -0.0045
      8 C          -5.1403  -15.3706   25.6244 C.ar    1  UNL1       -0.0003
      9 C          -4.4123  -16.4483   24.8771 C.ar    1  UNL1       -0.0003
     10 C          -5.1050  -17.1978   23.7778 C.ar    1  UNL1       -0.0030
     11 C          -6.5256  -16.8696   23.4259 C.ar    1  UNL1       -0.0082
     12 C          -7.2184  -17.6191   22.3266 C.3     1  UNL1        0.0975
     13 C          -6.4904  -18.6968   21.5792 C.3     1  UNL1        0.0224
     14 C          -5.6000  -18.3396   20.4261 C.3     1  UNL1        0.0020
     15 C          -4.8720  -19.4173   19.6787 C.3     1  UNL1        0.0001
     16 C          -5.0344  -20.8522   20.0845 C.3     1  UNL1        0.0000
     17 C          -5.9247  -21.2094   21.2376 C.3     1  UNL1        0.0001
     18 C          -6.6527  -20.1317   21.9850 C.3     1  UNL1        0.0020
     19 C         -10.7525  -17.7122   20.5235 C.3     1  UNL1        0.1552
     20 N         -11.8786  -18.4510   21.1838 N.3     1  UNL1       -0.2889
     21 H         -12.7432  -18.0051   20.8772 H       1  UNL1        0.1237
     22 CA        -11.9432  -18.5381   22.6799 C.3     1  UNL1        0.0839
     23 C         -11.1288  -20.4543   22.2743 C.3     1  UNL1        0.0014
     24 C         -11.0421  -19.4850   23.4157 C.3     1  UNL1        0.0156
     25 C         -10.9554  -18.5156   24.5570 C.3     1  UNL1        0.0014
     26 C         -10.1410  -20.4318   24.1514 C.3     1  UNL1        0.0014
     27 C         -12.9089  -17.6783   23.4402 C.3     1  UNL1        0.1527
     28 O         -14.2340  -18.2362   23.8677 O.3     1  UNL1       -0.3806
     29 H         -14.7714  -18.4298   23.0838 H       1  UNL1        0.2105
@<TRIPOS>BOND
     1    23    24    1
     2    24    25    1
     3    24    26    1
     4    24    22    1
     5    22    27    1
     6    27    28    1
     7    22    20    1
     8    20    19    1
     9    19     1    1
    10     1     2    2
    11     1     3   am
    12     3     4    1
    13     4     5    1
    14     5     6    1
    15     6     7   ar
    16     7     8   ar
    17     8     9   ar
    18     9    10   ar
    19    10    11   ar
    20    11    12    1
    21    12    13    1
    22    13    14    1
    23    14    15    1
    24    15    16    1
    25    16    17    1
    26    17    18    1
    27    12     3    1
    28    18    13    1
    29    11     6   ar
    30    28    29    1
    31    20    21    1
@<TRIPOS>MOLECULE
*****
 29 31 0 0 0
SMALL
GASTEIGER

@<TRIPOS>ATOM
      1 C           5.8992   -3.6732   23.5891 C.2     1  UNL1        0.2420
      2 O           6.1886   -4.3750   22.2954 O.2     1  UNL1       -0.2734
      3 N           4.8710   -2.5821   23.6368 N.am    1  UNL1       -0.2760
      4 C           4.5816   -1.8803   24.9305 C.3     1  UNL1        0.0983
      5 C           3.5534   -0.7892   24.9782 C.3     1  UNL1        0.0476
      6 C           2.8146   -0.3998   23.7322 C.ar    1  UNL1       -0.0229
      7 C           1.7864    0.6913   23.7799 C.ar    1  UNL1       -0.0045
      8 C           1.0476    1.0806   22.5339 C.ar    1  UNL1       -0.0003
      9 C           1.3370    0.3788   21.2402 C.ar    1  UNL1       -0.0003
     10 C           2.3651   -0.7123   21.1924 C.ar    1  UNL1       -0.0030
     11 C           3.1039   -1.1016   22.4384 C.ar    1  UNL1       -0.0082
     12 C           4.1322   -2.1928   22.3908 C.3     1  UNL1        0.0975
     13 C           4.4215   -2.8946   21.0970 C.3     1  UNL1        0.0224
     14 C           5.4368   -2.3297   20.1481 C.3     1  UNL1        0.0020
     15 C           5.7261   -3.0315   18.8544 C.3     1  UNL1        0.0001
     16 C           5.0003   -4.2982   18.5096 C.3     1  UNL1        0.0000
     17 C           3.9852   -4.8630   19.4585 C.3     1  UNL1        0.0001
     18 C           3.6958   -4.1612   20.7522 C.3     1  UNL1        0.0020
     19 C           6.6380   -4.0625   24.8351 C.3     1  UNL1        0.1552
     20 N           7.2565   -5.4246   24.9456 N.3     1  UNL1       -0.2889
     21 H           6.6477   -6.0665   24.4380 H       1  UNL1        0.1237
     22 CA          7.4965   -6.0320   26.2960 C.3     1  UNL1        0.0839
     23 C           8.0549   -7.6639   25.0611 C.3     1  UNL1        0.0014
     24 C           8.4266   -7.2002   26.4384 C.3     1  UNL1        0.0156
     25 C           8.7982   -6.7365   27.8156 C.3     1  UNL1        0.0014
     26 C           9.3566   -8.3684   26.5807 C.3     1  UNL1        0.0014
     27 C           6.8065   -5.4712   27.5040 C.3     1  UNL1        0.1527
     28 O           5.3889   -5.8581   27.8052 O.3     1  UNL1       -0.3806
     29 H           4.8054   -5.5144   27.1108 H       1  UNL1        0.2105
@<TRIPOS>BOND
     1    23    24    1
     2    24    25    1
     3    24    26    1
     4    24    22    1
     5    22    27    1
     6    27    28    1
     7    22    20    1
     8    20    19    1
     9    19     1    1
    10     1     2    2
    11     1     3   am
    12     3     4    1
    13     4     5    1
    14     5     6    1
    15     6     7   ar
    16     7     8   ar
    17     8     9   ar
    18     9    10   ar
    19    10    11   ar
    20    11    12    1
    21    12    13    1
    22    13    14    1
    23    14    15    1
    24    15    16    1
    25    16    17    1
    26    17    18    1
    27    12     3    1
    28    18    13    1
    29    11     6   ar
    30    28    29    1
    31    20    21    1
