@<TRIPOS>MOLECULE
*****
 24 26 0 0 0
SMALL
GASTEIGER

@<TRIPOS>ATOM
      1 N          -8.3919  -18.1880   21.6278 N.ar    1  UNL1       -0.2341
      2 N          -9.2345  -17.2805   20.7812 N.ar    1  UNL1       -0.1617
      3 C         -10.6369  -17.3216   21.3118 C.ar    1  UNL1        0.1696
      4 C         -10.6611  -18.2544   22.4862 C.ar    1  UNL1        0.0148
      5 C          -9.2736  -18.7899   22.6815 C.ar    1  UNL1        0.0579
      6 C          -8.9923  -19.7564   23.7936 C.3     1  UNL1        0.0456
      7 C         -10.0985  -20.1874   24.7104 C.3     1  UNL1        0.0066
      8 C         -11.4860  -19.6519   24.5151 C.3     1  UNL1        0.0052
      9 C         -11.7673  -18.6854   23.4031 C.3     1  UNL1        0.0291
     10 C          -3.9917  -18.9680   21.0989 C.ar    1  UNL1        0.0537
     11 C          -4.9519  -19.3123   19.9991 C.ar    1  UNL1        0.0061
     12 C          -6.4186  -19.0523   20.1754 C.ar    1  UNL1        0.0193
     13 C          -6.9252  -18.4480   21.4515 C.ar    1  UNL1        0.0824
     14 C          -5.9650  -18.1037   22.5511 C.ar    1  UNL1        0.0193
     15 C          -4.4982  -18.3637   22.3749 C.ar    1  UNL1        0.0061
     16 C          -0.2267  -18.5586   19.9125 C.3     1  UNL1        0.1152
     17 N          -1.6935  -18.2987   20.0888 N.am    1  UNL1       -0.2726
     18 C          -2.3287  -17.1095   19.4314 C.3     1  UNL1        0.1152
     19 C          -2.5249  -19.2280   20.9226 C.2     1  UNL1        0.2491
     20 O          -1.8897  -20.4171   21.5801 O.2     1  UNL1       -0.2699
     21 C         -11.8093  -16.5630   20.7642 C.3     1  UNL1        0.4362
     22 F         -12.9818  -15.8044   20.2164 F       1  UNL1       -0.1644
     23 F         -11.7758  -17.4063   19.5242 F       1  UNL1       -0.1644
     24 F         -11.8429  -15.7197   22.0041 F       1  UNL1       -0.1644
@<TRIPOS>BOND
     1    16    17    1
     2    17    18    1
     3    17    19   am
     4    19    20    2
     5    19    10    1
     6    10    11   ar
     7    11    12   ar
     8    12    13   ar
     9    13     1    1
    10     1     2   ar
    11     2     3   ar
    12     3    21    1
    13    21    22    1
    14    21    23    1
    15    21    24    1
    16     3     4   ar
    17     4     5   ar
    18     5     6    1
    19     6     7    1
    20     7     8    1
    21     8     9    1
    22    13    14   ar
    23    14    15   ar
    24    15    10   ar
    25     5     1   ar
    26     9     4    1
@<TRIPOS>MOLECULE
*****
 24 26 0 0 0
SMALL
GASTEIGER

@<TRIPOS>ATOM
      1 N          -7.7838  -18.8248   22.2147 N.ar    1  UNL1       -0.2341
      2 N          -8.5267  -18.6874   23.5105 N.ar    1  UNL1       -0.1617
      3 C          -9.9895  -18.8601   23.2267 C.ar    1  UNL1        0.1696
      4 C         -10.1506  -19.1041   21.7555 C.ar    1  UNL1        0.0148
      5 C          -8.7875  -19.0823   21.1300 C.ar    1  UNL1        0.0579
      6 C          -8.6362  -19.2998   19.6536 C.3     1  UNL1        0.0456
      7 C          -9.8480  -19.5391   18.8027 C.3     1  UNL1        0.0066
      8 C         -11.2112  -19.5609   19.4283 C.3     1  UNL1        0.0052
      9 C         -11.3625  -19.3434   20.9046 C.3     1  UNL1        0.0291
     10 C          -3.3267  -18.5182   21.6755 C.ar    1  UNL1        0.0537
     11 C          -4.1157  -19.4964   20.8565 C.ar    1  UNL1        0.0061
     12 C          -5.6014  -19.5986   21.0362 C.ar    1  UNL1        0.0193
     13 C          -6.2982  -18.7226   22.0349 C.ar    1  UNL1        0.0824
     14 C          -5.5091  -17.7445   22.8538 C.ar    1  UNL1        0.0193
     15 C          -4.0234  -17.6423   22.6741 C.ar    1  UNL1        0.0061
     16 C           0.2104  -17.8059   20.0229 C.3     1  UNL1        0.1152
     17 N          -1.2753  -17.9082   20.2027 N.am    1  UNL1       -0.2726
     18 C          -2.1951  -17.5026   19.0894 C.3     1  UNL1        0.1152
     19 C          -1.8411  -18.4160   21.4958 C.2     1  UNL1        0.2491
     20 O          -0.9213  -18.8216   22.6090 O.2     1  UNL1       -0.2699
     21 C         -11.0967  -18.7993   24.2368 C.3     1  UNL1        0.4362
     22 F         -12.2040  -18.7386   25.2470 F       1  UNL1       -0.1644
     23 F         -10.6773  -20.1344   24.7769 F       1  UNL1       -0.1644
     24 F         -11.5162  -17.4643   23.6968 F       1  UNL1       -0.1644
@<TRIPOS>BOND
     1    16    17    1
     2    17    18    1
     3    17    19   am
     4    19    20    2
     5    19    10    1
     6    10    11   ar
     7    11    12   ar
     8    12    13   ar
     9    13     1    1
    10     1     2   ar
    11     2     3   ar
    12     3    21    1
    13    21    22    1
    14    21    23    1
    15    21    24    1
    16     3     4   ar
    17     4     5   ar
    18     5     6    1
    19     6     7    1
    20     7     8    1
    21     8     9    1
    22    13    14   ar
    23    14    15   ar
    24    15    10   ar
    25     5     1   ar
    26     9     4    1
@<TRIPOS>MOLECULE
*****
 24 26 0 0 0
SMALL
GASTEIGER

@<TRIPOS>ATOM
      1 N          -9.5505  -17.8782   22.8149 N.ar    1  UNL1       -0.2341
      2 N         -10.3917  -18.3818   23.9501 N.ar    1  UNL1       -0.1617
      3 C         -11.8235  -18.0528   23.6474 C.ar    1  UNL1        0.1696
      4 C         -11.8672  -17.3459   22.3251 C.ar    1  UNL1        0.0148
      5 C         -10.4624  -17.2380   21.8106 C.ar    1  UNL1        0.0579
      6 C         -10.1951  -16.5708   20.4941 C.3     1  UNL1        0.0456
      7 C         -11.3326  -16.0115   19.6921 C.3     1  UNL1        0.0066
      8 C         -12.7374  -16.1194   20.2067 C.3     1  UNL1        0.0052
      9 C         -13.0048  -16.7866   21.5232 C.3     1  UNL1        0.0291
     10 C          -5.0764  -18.2269   22.4805 C.ar    1  UNL1        0.0537
     11 C          -5.9520  -19.3641   22.0446 C.ar    1  UNL1        0.0061
     12 C          -7.4433  -19.2479   22.1560 C.ar    1  UNL1        0.0193
     13 C          -8.0591  -17.9944   22.7034 C.ar    1  UNL1        0.0824
     14 C          -7.1836  -16.8572   23.1394 C.ar    1  UNL1        0.0193
     15 C          -5.6922  -16.9734   23.0280 C.ar    1  UNL1        0.0061
     16 C          -1.4610  -18.7430   20.9276 C.3     1  UNL1        0.1152
     17 N          -2.9523  -18.6268   21.0391 N.am    1  UNL1       -0.2726
     18 C          -3.8108  -18.7944   19.8205 C.3     1  UNL1        0.1152
     19 C          -3.5851  -18.3430   22.3691 C.2     1  UNL1        0.2491
     20 O          -2.7266  -18.1755   23.5877 O.2     1  UNL1       -0.2699
     21 C         -13.0044  -18.3743   24.5148 C.3     1  UNL1        0.4362
     22 F         -14.1853  -18.6957   25.3821 F       1  UNL1       -0.1644
     23 F         -13.8165  -17.3406   23.7922 F       1  UNL1       -0.1644
     24 F         -12.1924  -19.4079   25.2373 F       1  UNL1       -0.1644
@<TRIPOS>BOND
     1    16    17    1
     2    17    18    1
     3    17    19   am
     4    19    20    2
     5    19    10    1
     6    10    11   ar
     7    11    12   ar
     8    12    13   ar
     9    13     1    1
    10     1     2   ar
    11     2     3   ar
    12     3    21    1
    13    21    22    1
    14    21    23    1
    15    21    24    1
    16     3     4   ar
    17     4     5   ar
    18     5     6    1
    19     6     7    1
    20     7     8    1
    21     8     9    1
    22    13    14   ar
    23    14    15   ar
    24    15    10   ar
    25     5     1   ar
    26     9     4    1
@<TRIPOS>MOLECULE
*****
 24 26 0 0 0
SMALL
GASTEIGER

@<TRIPOS>ATOM
      1 N          -6.1237  -18.3865   22.3310 N.ar    1  UNL1       -0.2341
      2 N          -5.0895  -17.3719   22.7197 N.ar    1  UNL1       -0.1617
      3 C          -3.8024  -17.7394   22.0428 C.ar    1  UNL1        0.1696
      4 C          -4.0410  -18.9811   21.2358 C.ar    1  UNL1        0.0148
      5 C          -5.4757  -19.3811   21.4139 C.ar    1  UNL1        0.0579
      6 C          -6.0067  -20.5991   20.7181 C.3     1  UNL1        0.0456
      7 C          -5.1030  -21.4173   19.8441 C.3     1  UNL1        0.0066
      8 C          -3.6683  -21.0174   19.6660 C.3     1  UNL1        0.0052
      9 C          -3.1373  -19.7993   20.3618 C.3     1  UNL1        0.0291
     10 C         -10.4167  -18.4378   23.6794 C.ar    1  UNL1        0.0537
     11 C          -9.7901  -19.6823   23.1240 C.ar    1  UNL1        0.0061
     12 C          -8.3591  -19.6653   22.6745 C.ar    1  UNL1        0.0193
     13 C          -7.5547  -18.4036   22.7805 C.ar    1  UNL1        0.0824
     14 C          -8.1813  -17.1591   23.3358 C.ar    1  UNL1        0.0193
     15 C          -9.6123  -17.1762   23.7853 C.ar    1  UNL1        0.0061
     16 C         -14.3631  -18.0200   23.6456 C.3     1  UNL1        0.1152
     17 N         -12.9321  -18.0029   23.1962 N.am    1  UNL1       -0.2726
     18 C         -12.5856  -17.5339   21.8142 C.3     1  UNL1        0.1152
     19 C         -11.8477  -18.4549   24.1288 C.2     1  UNL1        0.2491
     20 O         -12.1942  -18.9238   25.5108 O.2     1  UNL1       -0.2699
     21 C          -2.5044  -16.9958   22.1535 C.3     1  UNL1        0.4362
     22 F          -1.2064  -16.2521   22.2641 F       1  UNL1       -0.1644
     23 F          -2.7585  -16.3540   20.8218 F       1  UNL1       -0.1644
     24 F          -2.2502  -17.6376   23.4851 F       1  UNL1       -0.1644
@<TRIPOS>BOND
     1    16    17    1
     2    17    18    1
     3    17    19   am
     4    19    20    2
     5    19    10    1
     6    10    11   ar
     7    11    12   ar
     8    12    13   ar
     9    13     1    1
    10     1     2   ar
    11     2     3   ar
    12     3    21    1
    13    21    22    1
    14    21    23    1
    15    21    24    1
    16     3     4   ar
    17     4     5   ar
    18     5     6    1
    19     6     7    1
    20     7     8    1
    21     8     9    1
    22    13    14   ar
    23    14    15   ar
    24    15    10   ar
    25     5     1   ar
    26     9     4    1
@<TRIPOS>MOLECULE
*****
 24 26 0 0 0
SMALL
GASTEIGER

@<TRIPOS>ATOM
      1 N          -7.1308  -17.3014   23.3472 N.ar    1  UNL1       -0.2341
      2 N          -8.4917  -17.5341   22.7608 N.ar    1  UNL1       -0.1617
      3 C          -9.5047  -16.9261   23.6850 C.ar    1  UNL1        0.1696
      4 C          -8.7700  -16.3176   24.8425 C.ar    1  UNL1        0.0148
      5 C          -7.3028  -16.5495   24.6337 C.ar    1  UNL1        0.0579
      6 C          -6.3130  -16.0461   25.6421 C.3     1  UNL1        0.0456
      7 C          -6.7903  -15.3108   26.8592 C.3     1  UNL1        0.0066
      8 C          -8.2575  -15.0788   27.0679 C.3     1  UNL1        0.0052
      9 C          -9.2473  -15.5822   26.0596 C.3     1  UNL1        0.0291
     10 C          -3.2189  -18.6261   21.5606 C.ar    1  UNL1        0.0537
     11 C          -3.2288  -17.7170   22.7536 C.ar    1  UNL1        0.0061
     12 C          -4.5328  -17.2754   23.3492 C.ar    1  UNL1        0.0193
     13 C          -5.8269  -17.7429   22.7516 C.ar    1  UNL1        0.0824
     14 C          -5.8168  -18.6520   21.5586 C.ar    1  UNL1        0.0193
     15 C          -4.5128  -19.0935   20.9630 C.ar    1  UNL1        0.0061
     16 C           0.3529  -18.4911   19.8359 C.3     1  UNL1        0.1152
     17 N          -0.9511  -18.0496   20.4316 N.am    1  UNL1       -0.2726
     18 C          -1.2912  -16.5900   20.4937 C.3     1  UNL1        0.1152
     19 C          -1.9149  -19.0676   20.9650 C.2     1  UNL1        0.2491
     20 O          -1.5748  -20.5272   20.9029 O.2     1  UNL1       -0.2699
     21 C         -10.9915  -16.9265   23.4865 C.3     1  UNL1        0.4362
     22 F         -12.4784  -16.9270   23.2881 F       1  UNL1       -0.1644
     23 F         -11.1324  -17.9809   24.5441 F       1  UNL1       -0.1644
     24 F         -10.8507  -15.8722   22.4290 F       1  UNL1       -0.1644
@<TRIPOS>BOND
     1    16    17    1
     2    17    18    1
     3    17    19   am
     4    19    20    2
     5    19    10    1
     6    10    11   ar
     7    11    12   ar
     8    12    13   ar
     9    13     1    1
    10     1     2   ar
    11     2     3   ar
    12     3    21    1
    13    21    22    1
    14    21    23    1
    15    21    24    1
    16     3     4   ar
    17     4     5   ar
    18     5     6    1
    19     6     7    1
    20     7     8    1
    21     8     9    1
    22    13    14   ar
    23    14    15   ar
    24    15    10   ar
    25     5     1   ar
    26     9     4    1
@<TRIPOS>MOLECULE
*****
 24 26 0 0 0
SMALL
GASTEIGER

@<TRIPOS>ATOM
      1 N          -7.5770  -18.1874   21.9038 N.ar    1  UNL1       -0.2341
      2 N          -8.7682  -18.8238   21.2512 N.ar    1  UNL1       -0.1617
      3 C         -10.0031  -18.2446   21.8751 C.ar    1  UNL1        0.1696
      4 C          -9.5752  -17.2502   22.9134 C.ar    1  UNL1        0.0148
      5 C          -8.0757  -17.2149   22.9312 C.ar    1  UNL1        0.0579
      6 C          -7.3582  -16.3017   23.8805 C.3     1  UNL1        0.0456
      7 C          -8.1401  -15.4238   24.8120 C.3     1  UNL1        0.0066
      8 C          -9.6396  -15.4592   24.7943 C.3     1  UNL1        0.0052
      9 C         -10.3571  -16.3724   23.8450 C.3     1  UNL1        0.0291
     10 C          -3.2641  -19.0452   20.9476 C.ar    1  UNL1        0.0537
     11 C          -4.3082  -19.1673   19.8776 C.ar    1  UNL1        0.0061
     12 C          -5.7458  -18.8814   20.1963 C.ar    1  UNL1        0.0193
     13 C          -6.1394  -18.4733   21.5851 C.ar    1  UNL1        0.0824
     14 C          -5.0953  -18.3512   22.6550 C.ar    1  UNL1        0.0193
     15 C          -3.6577  -18.6371   22.3363 C.ar    1  UNL1        0.0061
     16 C           0.5463  -18.4894   19.9877 C.3     1  UNL1        0.1152
     17 N          -0.8913  -18.2036   20.3064 N.am    1  UNL1       -0.2726
     18 C          -1.3936  -16.7902   20.3026 C.3     1  UNL1        0.1152
     19 C          -1.8265  -19.3311   20.6289 C.2     1  UNL1        0.2491
     20 O          -1.3242  -20.7445   20.6327 O.2     1  UNL1       -0.2699
     21 C         -11.4177  -18.5978   21.5227 C.3     1  UNL1        0.4362
     22 F         -12.8324  -18.9508   21.1703 F       1  UNL1       -0.1644
     23 F         -11.5905  -17.2570   20.8726 F       1  UNL1       -0.1644
     24 F         -11.2450  -19.9384   22.1728 F       1  UNL1       -0.1644
@<TRIPOS>BOND
     1    16    17    1
     2    17    18    1
     3    17    19   am
     4    19    20    2
     5    19    10    1
     6    10    11   ar
     7    11    12   ar
     8    12    13   ar
     9    13     1    1
    10     1     2   ar
    11     2     3   ar
    12     3    21    1
    13    21    22    1
    14    21    23    1
    15    21    24    1
    16     3     4   ar
    17     4     5   ar
    18     5     6    1
    19     6     7    1
    20     7     8    1
    21     8     9    1
    22    13    14   ar
    23    14    15   ar
    24    15    10   ar
    25     5     1   ar
    26     9     4    1
@<TRIPOS>MOLECULE
*****
 24 26 0 0 0
SMALL
GASTEIGER

@<TRIPOS>ATOM
      1 N           2.8255   -1.3817   20.0138 N.ar    1  UNL1       -0.2341
      2 N           3.0995   -2.4688   19.0173 N.ar    1  UNL1       -0.1617
      3 C           3.9219   -3.5235   19.6963 C.ar    1  UNL1        0.1696
      4 C           4.1562   -3.0883   21.1126 C.ar    1  UNL1        0.0148
      5 C           3.4786   -1.7646   21.3088 C.ar    1  UNL1        0.0579
      6 C           3.5439   -1.0788   22.6412 C.3     1  UNL1        0.0456
      7 C           4.2867   -1.7169   23.7775 C.3     1  UNL1        0.0066
      8 C           4.9643   -3.0407   23.5812 C.3     1  UNL1        0.0052
      9 C           4.8991   -3.7264   22.2488 C.3     1  UNL1        0.0291
     10 C           0.4596    2.3698   19.2525 C.ar    1  UNL1        0.0537
     11 C          -0.0708    1.3258   20.1900 C.ar    1  UNL1        0.0061
     12 C           0.7178    0.0754   20.4438 C.ar    1  UNL1        0.0193
     13 C           2.0369   -0.1312   19.7600 C.ar    1  UNL1        0.0824
     14 C           2.5673    0.9127   18.8226 C.ar    1  UNL1        0.0193
     15 C           1.7787    2.1632   18.5688 C.ar    1  UNL1        0.0061
     16 C          -0.9432    6.0619   19.6399 C.3     1  UNL1        0.1152
     17 N          -0.1547    4.8113   19.8936 N.am    1  UNL1       -0.2726
     18 C           0.8082    4.7520   21.0422 C.3     1  UNL1        0.1152
     19 C          -0.3290    3.6202   18.9987 C.2     1  UNL1        0.2491
     20 O          -1.2918    3.6796   17.8501 O.2     1  UNL1       -0.2699
     21 C           4.4222   -4.7910   19.0693 C.3     1  UNL1        0.4362
     22 F           4.9224   -6.0586   18.4422 F       1  UNL1       -0.1644
     23 F           3.4355   -5.5804   19.8776 F       1  UNL1       -0.1644
     24 F           5.4088   -4.0017   18.2610 F       1  UNL1       -0.1644
@<TRIPOS>BOND
     1    16    17    1
     2    17    18    1
     3    17    19   am
     4    19    20    2
     5    19    10    1
     6    10    11   ar
     7    11    12   ar
     8    12    13   ar
     9    13     1    1
    10     1     2   ar
    11     2     3   ar
    12     3    21    1
    13    21    22    1
    14    21    23    1
    15    21    24    1
    16     3     4   ar
    17     4     5   ar
    18     5     6    1
    19     6     7    1
    20     7     8    1
    21     8     9    1
    22    13    14   ar
    23    14    15   ar
    24    15    10   ar
    25     5     1   ar
    26     9     4    1
@<TRIPOS>MOLECULE
*****
 24 26 0 0 0
SMALL
GASTEIGER

@<TRIPOS>ATOM
      1 N          -6.2680  -18.3559   21.2726 N.ar    1  UNL1       -0.2341
      2 N          -5.6432  -18.7162   19.9573 N.ar    1  UNL1       -0.1617
      3 C          -4.1534  -18.6928   20.1301 C.ar    1  UNL1        0.1696
      4 C          -3.8574  -18.3181   21.5521 C.ar    1  UNL1        0.0148
      5 C          -5.1644  -18.1098   22.2582 C.ar    1  UNL1        0.0579
      6 C          -5.1806  -17.7231   23.7073 C.3     1  UNL1        0.0456
      7 C          -3.8899  -17.5446   24.4504 C.3     1  UNL1        0.0066
      8 C          -2.5830  -17.7528   23.7443 C.3     1  UNL1        0.0052
      9 C          -2.5668  -18.1396   22.2952 C.3     1  UNL1        0.0291
     10 C         -10.6791  -18.0643   22.1138 C.ar    1  UNL1        0.0537
     11 C         -10.0994  -19.3425   21.5845 C.ar    1  UNL1        0.0061
     12 C          -8.6291  -19.4397   21.3041 C.ar    1  UNL1        0.0193
     13 C          -7.7384  -18.2586   21.5530 C.ar    1  UNL1        0.0824
     14 C          -8.3181  -16.9805   22.0822 C.ar    1  UNL1        0.0193
     15 C          -9.7885  -16.8833   22.3626 C.ar    1  UNL1        0.0061
     16 C         -14.1457  -18.1950   24.0413 C.3     1  UNL1        0.1152
     17 N         -12.6754  -18.2922   23.7608 N.am    1  UNL1       -0.2726
     18 C         -11.7310  -18.7145   24.8470 C.3     1  UNL1        0.1152
     19 C         -12.1495  -17.9671   22.3942 C.2     1  UNL1        0.2491
     20 O         -13.0938  -17.5448   21.3080 O.2     1  UNL1       -0.2699
     21 C          -3.1378  -18.9917   19.0675 C.3     1  UNL1        0.4362
     22 F          -2.1222  -19.2907   18.0048 F       1  UNL1       -0.1644
     23 F          -3.5170  -20.4423   19.1131 F       1  UNL1       -0.1644
     24 F          -2.7586  -17.5413   19.0219 F       1  UNL1       -0.1644
@<TRIPOS>BOND
     1    16    17    1
     2    17    18    1
     3    17    19   am
     4    19    20    2
     5    19    10    1
     6    10    11   ar
     7    11    12   ar
     8    12    13   ar
     9    13     1    1
    10     1     2   ar
    11     2     3   ar
    12     3    21    1
    13    21    22    1
    14    21    23    1
    15    21    24    1
    16     3     4   ar
    17     4     5   ar
    18     5     6    1
    19     6     7    1
    20     7     8    1
    21     8     9    1
    22    13    14   ar
    23    14    15   ar
    24    15    10   ar
    25     5     1   ar
    26     9     4    1
