@<TRIPOS>MOLECULE
*****
 26 29 0 0 0
SMALL
GASTEIGER

@<TRIPOS>ATOM
      1 C          -8.4721  -17.3388   22.8123 C.3     1  UNL1        0.1186
      2 C          -6.0364  -20.3968   20.5840 C.ar    1  UNL1        0.0207
      3 C          -6.6817  -20.7581   21.8890 C.ar    1  UNL1        0.0028
      4 C          -7.4936  -19.7387   22.6317 C.ar    1  UNL1        0.0161
      5 C          -7.6602  -18.3581   22.0696 C.ar    1  UNL1        0.0752
      6 N          -7.0148  -17.9968   20.7646 N.ar    1  UNL1       -0.2468
      7 C          -6.2029  -19.0162   20.0218 C.ar    1  UNL1        0.0985
      8 N          -7.8736  -16.6068   23.9768 N.3     1  UNL1       -0.2677
      9 C          -6.4670  -16.0919   23.8962 C.3     1  UNL1        0.0724
     10 C          -5.8684  -15.3600   25.0608 C.3     1  UNL1        0.0174
     11 C          -6.6764  -15.1430   26.3058 C.3     1  UNL1        0.0029
     12 C          -8.0830  -15.6579   26.3863 C.3     1  UNL1        0.0174
     13 C          -8.6816  -16.3898   25.2218 C.3     1  UNL1        0.0724
     14 C          -9.8826  -17.0513   22.3907 C.3     1  UNL1        0.1186
     15 C         -10.1459  -16.2216   21.1691 C.ar    1  UNL1        0.0752
     16 C         -11.2371  -16.6134   20.2173 C.ar    1  UNL1        0.0161
     17 C         -11.5005  -15.7837   18.9957 C.ar    1  UNL1        0.0028
     18 C         -10.6726  -14.5622   18.7260 C.ar    1  UNL1        0.0207
     19 C          -9.5815  -14.1705   19.6778 C.ar    1  UNL1        0.0985
     20 N          -9.3182  -15.0002   20.8993 N.ar    1  UNL1       -0.2468
     21 N         -11.0299  -17.5936   23.1906 N.3     1  UNL1       -0.2677
     22 C         -12.4137  -17.0555   22.9771 C.3     1  UNL1        0.0724
     23 C         -13.5609  -17.5978   23.7770 C.3     1  UNL1        0.0174
     24 C         -13.3244  -18.6781   24.7904 C.3     1  UNL1        0.0029
     25 C         -11.9406  -19.2162   25.0039 C.3     1  UNL1        0.0174
     26 C         -10.7933  -18.6739   24.2040 C.3     1  UNL1        0.0724
@<TRIPOS>BOND
     1     2     3   ar
     2     3     4   ar
     3     4     5   ar
     4     5     1    1
     5     1    14    1
     6    14    15    1
     7    15    16   ar
     8    16    17   ar
     9    17    18   ar
    10    18    19   ar
    11    19    20   ar
    12    14    21    1
    13    21    22    1
    14    22    23    1
    15    23    24    1
    16    24    25    1
    17    25    26    1
    18     1     8    1
    19     8     9    1
    20     9    10    1
    21    10    11    1
    22    11    12    1
    23    12    13    1
    24     5     6   ar
    25     6     7   ar
    26     7     2   ar
    27    20    15   ar
    28    26    21    1
    29    13     8    1
@<TRIPOS>MOLECULE
*****
 26 29 0 0 0
SMALL
GASTEIGER

@<TRIPOS>ATOM
      1 C          -9.9055  -17.0456   22.4048 C.3     1  UNL1        0.1186
      2 C         -10.6608  -14.5614   18.7295 C.ar    1  UNL1        0.0207
      3 C         -11.5097  -15.7663   19.0078 C.ar    1  UNL1        0.0028
      4 C         -11.2579  -16.5944   20.2329 C.ar    1  UNL1        0.0161
      5 C         -10.1573  -16.2175   21.1797 C.ar    1  UNL1        0.0752
      6 N          -9.3084  -15.0126   20.9014 N.ar    1  UNL1       -0.2468
      7 C          -9.5602  -14.1845   19.6763 C.ar    1  UNL1        0.0985
      8 N         -11.0602  -17.5805   23.1989 N.3     1  UNL1       -0.2677
      9 C         -10.8366  -18.6658   24.2099 C.3     1  UNL1        0.0724
     10 C         -11.9913  -19.2007   25.0039 C.3     1  UNL1        0.0174
     11 C         -13.3697  -18.6502   24.7870 C.3     1  UNL1        0.0029
     12 C         -13.5933  -17.5649   23.7761 C.3     1  UNL1        0.0174
     13 C         -12.4387  -17.0300   22.9820 C.3     1  UNL1        0.0724
     14 C          -8.4991  -17.3388   22.8359 C.3     1  UNL1        0.1186
     15 C          -7.6798  -18.3474   22.0865 C.ar    1  UNL1        0.0752
     16 C          -7.4936  -19.7269   22.6454 C.ar    1  UNL1        0.0161
     17 C          -6.6743  -20.7354   21.8960 C.ar    1  UNL1        0.0028
     18 C          -6.0412  -20.3644   20.5877 C.ar    1  UNL1        0.0207
     19 C          -6.2274  -18.9850   20.0288 C.ar    1  UNL1        0.0985
     20 N          -7.0467  -17.9765   20.7782 N.ar    1  UNL1       -0.2468
     21 N          -7.9118  -16.6235   24.0164 N.3     1  UNL1       -0.2677
     22 C          -8.6752  -16.5519   25.3057 C.3     1  UNL1        0.0724
     23 C          -8.0880  -15.8366   26.4862 C.3     1  UNL1        0.0174
     24 C          -6.7375  -15.1929   26.3774 C.3     1  UNL1        0.0029
     25 C          -5.9741  -15.2646   25.0881 C.3     1  UNL1        0.0174
     26 C          -6.5614  -15.9799   23.9076 C.3     1  UNL1        0.0724
@<TRIPOS>BOND
     1     2     3   ar
     2     3     4   ar
     3     4     5   ar
     4     5     1    1
     5     1    14    1
     6    14    15    1
     7    15    16   ar
     8    16    17   ar
     9    17    18   ar
    10    18    19   ar
    11    19    20   ar
    12    14    21    1
    13    21    22    1
    14    22    23    1
    15    23    24    1
    16    24    25    1
    17    25    26    1
    18     1     8    1
    19     8     9    1
    20     9    10    1
    21    10    11    1
    22    11    12    1
    23    12    13    1
    24     5     6   ar
    25     6     7   ar
    26     7     2   ar
    27    20    15   ar
    28    26    21    1
    29    13     8    1
@<TRIPOS>MOLECULE
*****
 26 29 0 0 0
SMALL
GASTEIGER

@<TRIPOS>ATOM
      1 C          -7.9268  -17.9348   22.1505 C.3     1  UNL1        0.1186
      2 C          -9.0552  -20.4214   18.5737 C.ar    1  UNL1        0.0207
      3 C         -10.0108  -20.2814   19.7214 C.ar    1  UNL1        0.0028
      4 C          -9.6346  -19.4526   20.9137 C.ar    1  UNL1        0.0161
      5 C          -8.3030  -18.7637   20.9583 C.ar    1  UNL1        0.0752
      6 N          -7.3474  -18.9037   19.8106 N.ar    1  UNL1       -0.2468
      7 C          -7.7235  -19.7326   18.6183 C.ar    1  UNL1        0.0985
      8 N          -6.4956  -17.8646   22.5938 N.3     1  UNL1       -0.2677
      9 C          -5.9823  -16.6332   23.2794 C.3     1  UNL1        0.0724
     10 C          -4.5510  -16.5630   23.7226 C.3     1  UNL1        0.0174
     11 C          -3.6330  -17.7242   23.4803 C.3     1  UNL1        0.0029
     12 C          -4.1463  -18.9557   22.7947 C.3     1  UNL1        0.0174
     13 C          -5.5775  -19.0259   22.3515 C.3     1  UNL1        0.0724
     14 C          -8.9820  -17.1762   22.8996 C.3     1  UNL1        0.1186
     15 C         -10.2410  -16.7550   22.2014 C.ar    1  UNL1        0.0752
     16 C         -11.5721  -16.9766   22.8566 C.ar    1  UNL1        0.0161
     17 C         -12.8311  -16.5554   22.1584 C.ar    1  UNL1        0.0028
     18 C         -12.7590  -15.9126   20.8050 C.ar    1  UNL1        0.0207
     19 C         -11.4280  -15.6911   20.1498 C.ar    1  UNL1        0.0985
     20 N         -10.1690  -16.1123   20.8480 N.ar    1  UNL1       -0.2468
     21 N          -8.7782  -16.8387   24.3469 N.3     1  UNL1       -0.2677
     22 C          -9.1558  -17.8290   25.4083 C.3     1  UNL1        0.0724
     23 C          -8.9520  -17.4916   26.8555 C.3     1  UNL1        0.0174
     24 C          -8.3705  -16.1638   27.2414 C.3     1  UNL1        0.0029
     25 C          -7.9928  -15.1735   26.1800 C.3     1  UNL1        0.0174
     26 C          -8.1967  -15.5110   24.7327 C.3     1  UNL1        0.0724
@<TRIPOS>BOND
     1     2     3   ar
     2     3     4   ar
     3     4     5   ar
     4     5     1    1
     5     1    14    1
     6    14    15    1
     7    15    16   ar
     8    16    17   ar
     9    17    18   ar
    10    18    19   ar
    11    19    20   ar
    12    14    21    1
    13    21    22    1
    14    22    23    1
    15    23    24    1
    16    24    25    1
    17    25    26    1
    18     1     8    1
    19     8     9    1
    20     9    10    1
    21    10    11    1
    22    11    12    1
    23    12    13    1
    24     5     6   ar
    25     6     7   ar
    26     7     2   ar
    27    20    15   ar
    28    26    21    1
    29    13     8    1
@<TRIPOS>MOLECULE
*****
 26 29 0 0 0
SMALL
GASTEIGER

@<TRIPOS>ATOM
      1 C          -8.9741  -17.1789   22.9000 C.3     1  UNL1        0.1186
      2 C         -12.7601  -15.9291   20.8132 C.ar    1  UNL1        0.0207
      3 C         -12.8263  -16.5638   22.1707 C.ar    1  UNL1        0.0028
      4 C         -11.5643  -16.9804   22.8663 C.ar    1  UNL1        0.0161
      5 C         -10.2361  -16.7623   22.2044 C.ar    1  UNL1        0.0752
      6 N         -10.1698  -16.1276   20.8469 N.ar    1  UNL1       -0.2468
      7 C         -11.4318  -15.7110   20.1513 C.ar    1  UNL1        0.0985
      8 N          -8.7667  -16.8372   24.3457 N.3     1  UNL1       -0.2677
      9 C          -8.1847  -15.5080   24.7261 C.3     1  UNL1        0.0724
     10 C          -7.9773  -15.1663   26.1720 C.3     1  UNL1        0.0174
     11 C          -8.3518  -16.1537   27.2372 C.3     1  UNL1        0.0029
     12 C          -8.9338  -17.4828   26.8567 C.3     1  UNL1        0.0174
     13 C          -9.1412  -17.8246   25.4110 C.3     1  UNL1        0.0724
     14 C          -7.9195  -17.9373   22.1498 C.3     1  UNL1        0.1186
     15 C          -8.2965  -18.7654   20.9573 C.ar    1  UNL1        0.0752
     16 C          -9.6275  -19.4559   20.9142 C.ar    1  UNL1        0.0161
     17 C         -10.0045  -20.2840   19.7216 C.ar    1  UNL1        0.0028
     18 C          -9.0505  -20.4216   18.5722 C.ar    1  UNL1        0.0207
     19 C          -7.7196  -19.7311   18.6154 C.ar    1  UNL1        0.0985
     20 N          -7.3426  -18.9030   19.8079 N.ar    1  UNL1       -0.2468
     21 N          -6.4879  -17.8675   22.5922 N.3     1  UNL1       -0.2677
     22 C          -5.5721  -19.0317   22.3551 C.3     1  UNL1        0.0724
     23 C          -4.1406  -18.9620   22.7975 C.3     1  UNL1        0.0174
     24 C          -3.6247  -17.7282   23.4770 C.3     1  UNL1        0.0029
     25 C          -4.5405  -16.5641   23.7141 C.3     1  UNL1        0.0174
     26 C          -5.9721  -16.6338   23.2717 C.3     1  UNL1        0.0724
@<TRIPOS>BOND
     1     2     3   ar
     2     3     4   ar
     3     4     5   ar
     4     5     1    1
     5     1    14    1
     6    14    15    1
     7    15    16   ar
     8    16    17   ar
     9    17    18   ar
    10    18    19   ar
    11    19    20   ar
    12    14    21    1
    13    21    22    1
    14    22    23    1
    15    23    24    1
    16    24    25    1
    17    25    26    1
    18     1     8    1
    19     8     9    1
    20     9    10    1
    21    10    11    1
    22    11    12    1
    23    12    13    1
    24     5     6   ar
    25     6     7   ar
    26     7     2   ar
    27    20    15   ar
    28    26    21    1
    29    13     8    1
@<TRIPOS>MOLECULE
*****
 26 29 0 0 0
SMALL
GASTEIGER

@<TRIPOS>ATOM
      1 C          -8.9480  -17.2025   22.8059 C.3     1  UNL1        0.1186
      2 C         -12.6907  -15.8695   20.6929 C.ar    1  UNL1        0.0207
      3 C         -12.7795  -16.4918   22.0548 C.ar    1  UNL1        0.0028
      4 C         -11.5319  -16.9362   22.7591 C.ar    1  UNL1        0.0161
      5 C         -10.1956  -16.7582   22.1016 C.ar    1  UNL1        0.0752
      6 N         -10.1068  -16.1358   20.7397 N.ar    1  UNL1       -0.2468
      7 C         -11.3544  -15.6915   20.0353 C.ar    1  UNL1        0.0985
      8 N          -8.7413  -16.8617   24.2520 N.3     1  UNL1       -0.2677
      9 C          -9.1624  -17.8291   25.3182 C.3     1  UNL1        0.0724
     10 C          -8.9556  -17.4883   26.7643 C.3     1  UNL1        0.0174
     11 C          -8.3278  -16.1800   27.1441 C.3     1  UNL1        0.0029
     12 C          -7.9067  -15.2126   26.0779 C.3     1  UNL1        0.0174
     13 C          -8.1135  -15.5534   24.6319 C.3     1  UNL1        0.0724
     14 C          -7.9071  -17.9876   22.0643 C.3     1  UNL1        0.1186
     15 C          -6.4753  -17.9423   22.5090 C.ar    1  UNL1        0.0752
     16 C          -5.5997  -19.1489   22.3424 C.ar    1  UNL1        0.0161
     17 C          -4.1679  -19.1036   22.7871 C.ar    1  UNL1        0.0028
     18 C          -3.6116  -17.8518   23.3984 C.ar    1  UNL1        0.0207
     19 C          -4.4871  -16.6454   23.5649 C.ar    1  UNL1        0.0985
     20 N          -5.9190  -16.6906   23.1202 N.ar    1  UNL1       -0.2468
     21 N          -8.2981  -18.8180   20.8778 N.3     1  UNL1       -0.2677
     22 C          -9.6899  -19.3673   20.7727 C.3     1  UNL1        0.0724
     23 C         -10.0809  -20.1977   19.5863 C.3     1  UNL1        0.0174
     24 C          -9.0800  -20.4788   18.5050 C.3     1  UNL1        0.0029
     25 C          -7.6882  -19.9295   18.6100 C.3     1  UNL1        0.0174
     26 C          -7.2972  -19.0991   19.7965 C.3     1  UNL1        0.0724
@<TRIPOS>BOND
     1     2     3   ar
     2     3     4   ar
     3     4     5   ar
     4     5     1    1
     5     1    14    1
     6    14    15    1
     7    15    16   ar
     8    16    17   ar
     9    17    18   ar
    10    18    19   ar
    11    19    20   ar
    12    14    21    1
    13    21    22    1
    14    22    23    1
    15    23    24    1
    16    24    25    1
    17    25    26    1
    18     1     8    1
    19     8     9    1
    20     9    10    1
    21    10    11    1
    22    11    12    1
    23    12    13    1
    24     5     6   ar
    25     6     7   ar
    26     7     2   ar
    27    20    15   ar
    28    26    21    1
    29    13     8    1
@<TRIPOS>MOLECULE
*****
 26 29 0 0 0
SMALL
GASTEIGER

@<TRIPOS>ATOM
      1 C          -7.8958  -17.9740   22.0873 C.3     1  UNL1        0.1186
      2 C          -3.5986  -17.7941   23.4111 C.ar    1  UNL1        0.0207
      3 C          -4.1453  -19.0537   22.8074 C.ar    1  UNL1        0.0028
      4 C          -5.5777  -19.1137   22.3661 C.ar    1  UNL1        0.0161
      5 C          -6.4634  -17.9140   22.5286 C.ar    1  UNL1        0.0752
      6 N          -5.9166  -16.6545   23.1322 N.ar    1  UNL1       -0.2468
      7 C          -4.4843  -16.5945   23.5735 C.ar    1  UNL1        0.0985
      8 N          -8.2809  -18.8075   20.9012 N.3     1  UNL1       -0.2677
      9 C          -9.6744  -19.3507   20.7869 C.3     1  UNL1        0.0724
     10 C         -10.0595  -20.1843   19.6008 C.3     1  UNL1        0.0174
     11 C          -9.0512  -20.4746   18.5290 C.3     1  UNL1        0.0029
     12 C          -7.6576  -19.9314   18.6432 C.3     1  UNL1        0.0174
     13 C          -7.2725  -19.0979   19.8293 C.3     1  UNL1        0.0724
     14 C          -8.9430  -17.2004   22.8322 C.3     1  UNL1        0.1186
     15 C         -10.1930  -16.7612   22.1289 C.ar    1  UNL1        0.0752
     16 C         -11.5288  -16.9522   22.7842 C.ar    1  UNL1        0.0161
     17 C         -12.7788  -16.5130   22.0810 C.ar    1  UNL1        0.0028
     18 C         -12.6931  -15.8829   20.7224 C.ar    1  UNL1        0.0207
     19 C         -11.3574  -15.6920   20.0671 C.ar    1  UNL1        0.0985
     20 N         -10.1073  -16.1312   20.7704 N.ar    1  UNL1       -0.2468
     21 N          -8.7402  -16.8660   24.2803 N.3     1  UNL1       -0.2677
     22 C          -9.1630  -17.8387   25.3410 C.3     1  UNL1        0.0724
     23 C          -8.9603  -17.5044   26.7891 C.3     1  UNL1        0.0174
     24 C          -8.3348  -16.1972   27.1766 C.3     1  UNL1        0.0029
     25 C          -7.9119  -15.2245   26.1159 C.3     1  UNL1        0.0174
     26 C          -8.1147  -15.5589   24.6678 C.3     1  UNL1        0.0724
@<TRIPOS>BOND
     1     2     3   ar
     2     3     4   ar
     3     4     5   ar
     4     5     1    1
     5     1    14    1
     6    14    15    1
     7    15    16   ar
     8    16    17   ar
     9    17    18   ar
    10    18    19   ar
    11    19    20   ar
    12    14    21    1
    13    21    22    1
    14    22    23    1
    15    23    24    1
    16    24    25    1
    17    25    26    1
    18     1     8    1
    19     8     9    1
    20     9    10    1
    21    10    11    1
    22    11    12    1
    23    12    13    1
    24     5     6   ar
    25     6     7   ar
    26     7     2   ar
    27    20    15   ar
    28    26    21    1
    29    13     8    1
@<TRIPOS>MOLECULE
*****
 26 29 0 0 0
SMALL
GASTEIGER

@<TRIPOS>ATOM
      1 C          -6.4554  -19.3050   20.7682 C.3     1  UNL1        0.1186
      2 C          -1.9927  -18.9640   20.3011 C.ar    1  UNL1        0.0207
      3 C          -2.5705  -19.8892   21.3307 C.ar    1  UNL1        0.0028
      4 C          -4.0581  -20.0029   21.4864 C.ar    1  UNL1        0.0161
      5 C          -4.9678  -19.1914   20.6125 C.ar    1  UNL1        0.0752
      6 N          -4.3900  -18.2662   19.5829 N.ar    1  UNL1       -0.2468
      7 C          -2.9025  -18.1525   19.4272 C.ar    1  UNL1        0.0985
      8 N          -7.2558  -20.0914   19.7727 N.3     1  UNL1       -0.2677
      9 C          -8.4500  -19.4696   19.1116 C.3     1  UNL1        0.0724
     10 C          -9.2504  -20.2560   18.1160 C.3     1  UNL1        0.0174
     11 C          -8.8565  -21.6642   17.7816 C.3     1  UNL1        0.0029
     12 C          -7.6622  -22.2860   18.4428 C.3     1  UNL1        0.0174
     13 C          -6.8618  -21.4996   19.4382 C.3     1  UNL1        0.0724
     14 C          -7.1426  -18.6324   21.9193 C.3     1  UNL1        0.1186
     15 C          -8.5233  -19.0589   22.3216 C.ar    1  UNL1        0.0752
     16 C          -8.7063  -20.1744   23.3076 C.ar    1  UNL1        0.0161
     17 C         -10.0870  -20.6009   23.7098 C.ar    1  UNL1        0.0028
     18 C         -11.2847  -19.9118   23.1260 C.ar    1  UNL1        0.0207
     19 C         -11.1017  -18.7963   22.1401 C.ar    1  UNL1        0.0985
     20 N          -9.7210  -18.3699   21.7378 N.ar    1  UNL1       -0.2468
     21 N          -6.4491  -17.5332   22.6683 N.3     1  UNL1       -0.2677
     22 C          -5.0151  -17.6936   23.0780 C.3     1  UNL1        0.0724
     23 C          -4.3216  -16.5945   23.8270 C.3     1  UNL1        0.0174
     24 C          -5.0621  -15.3349   24.1663 C.3     1  UNL1        0.0029
     25 C          -6.4961  -15.1745   23.7566 C.3     1  UNL1        0.0174
     26 C          -7.1896  -16.2737   23.0076 C.3     1  UNL1        0.0724
@<TRIPOS>BOND
     1     2     3   ar
     2     3     4   ar
     3     4     5   ar
     4     5     1    1
     5     1    14    1
     6    14    15    1
     7    15    16   ar
     8    16    17   ar
     9    17    18   ar
    10    18    19   ar
    11    19    20   ar
    12    14    21    1
    13    21    22    1
    14    22    23    1
    15    23    24    1
    16    24    25    1
    17    25    26    1
    18     1     8    1
    19     8     9    1
    20     9    10    1
    21    10    11    1
    22    11    12    1
    23    12    13    1
    24     5     6   ar
    25     6     7   ar
    26     7     2   ar
    27    20    15   ar
    28    26    21    1
    29    13     8    1
@<TRIPOS>MOLECULE
*****
 26 29 0 0 0
SMALL
GASTEIGER

@<TRIPOS>ATOM
      1 C          -8.3270  -17.3346   22.7545 C.3     1  UNL1        0.1186
      2 C          -5.9743  -20.4585   20.5283 C.ar    1  UNL1        0.0207
      3 C          -6.5899  -20.7878   21.8559 C.ar    1  UNL1        0.0028
      4 C          -7.3741  -19.7465   22.5980 C.ar    1  UNL1        0.0161
      5 C          -7.5428  -18.3759   22.0124 C.ar    1  UNL1        0.0752
      6 N          -6.9272  -18.0466   20.6848 N.ar    1  UNL1       -0.2468
      7 C          -6.1430  -19.0879   19.9428 C.ar    1  UNL1        0.0985
      8 N          -7.6997  -16.5991   23.9015 N.3     1  UNL1       -0.2677
      9 C          -8.5098  -16.2855   25.1243 C.3     1  UNL1        0.0724
     10 C          -7.8825  -15.5501   26.2713 C.3     1  UNL1        0.0174
     11 C          -6.4450  -15.1282   26.1954 C.3     1  UNL1        0.0029
     12 C          -5.6349  -15.4418   24.9726 C.3     1  UNL1        0.0174
     13 C          -6.2622  -16.1773   23.8256 C.3     1  UNL1        0.0724
     14 C          -9.7385  -17.0287   22.3496 C.3     1  UNL1        0.1186
     15 C         -10.8836  -17.5829   23.1443 C.ar    1  UNL1        0.0752
     16 C         -10.6430  -18.6728   24.1465 C.ar    1  UNL1        0.0161
     17 C         -11.7881  -19.2270   24.9412 C.ar    1  UNL1        0.0028
     18 C         -13.1738  -18.6913   24.7337 C.ar    1  UNL1        0.0207
     19 C         -13.4143  -17.6015   23.7316 C.ar    1  UNL1        0.0985
     20 N         -12.2692  -17.0472   22.9369 N.ar    1  UNL1       -0.2468
     21 N         -10.0050  -16.1685   21.1499 N.3     1  UNL1       -0.2677
     22 C         -11.0986  -16.5363   20.1913 C.3     1  UNL1        0.0724
     23 C         -11.3651  -15.6762   18.9917 C.3     1  UNL1        0.0174
     24 C         -10.5379  -14.4483   18.7505 C.3     1  UNL1        0.0029
     25 C          -9.4443  -14.0805   19.7090 C.3     1  UNL1        0.0174
     26 C          -9.1779  -14.9406   20.9087 C.3     1  UNL1        0.0724
@<TRIPOS>BOND
     1     2     3   ar
     2     3     4   ar
     3     4     5   ar
     4     5     1    1
     5     1    14    1
     6    14    15    1
     7    15    16   ar
     8    16    17   ar
     9    17    18   ar
    10    18    19   ar
    11    19    20   ar
    12    14    21    1
    13    21    22    1
    14    22    23    1
    15    23    24    1
    16    24    25    1
    17    25    26    1
    18     1     8    1
    19     8     9    1
    20     9    10    1
    21    10    11    1
    22    11    12    1
    23    12    13    1
    24     5     6   ar
    25     6     7   ar
    26     7     2   ar
    27    20    15   ar
    28    26    21    1
    29    13     8    1
@<TRIPOS>MOLECULE
*****
 26 29 0 0 0
SMALL
GASTEIGER

@<TRIPOS>ATOM
      1 C          -7.1455  -18.6304   21.9270 C.3     1  UNL1        0.1186
      2 C         -11.2743  -19.9325   23.1549 C.ar    1  UNL1        0.0207
      3 C         -10.0702  -20.6298   23.7153 C.ar    1  UNL1        0.0028
      4 C          -8.6940  -20.1958   23.3060 C.ar    1  UNL1        0.0161
      5 C          -8.5218  -19.0644   22.3363 C.ar    1  UNL1        0.0752
      6 N          -9.7258  -18.3671   21.7759 N.ar    1  UNL1       -0.2468
      7 C         -11.1020  -18.8012   22.1852 C.ar    1  UNL1        0.0985
      8 N          -6.4563  -17.5240   22.6691 N.3     1  UNL1       -0.2677
      9 C          -5.0247  -17.6804   23.0887 C.3     1  UNL1        0.0724
     10 C          -4.3355  -16.5739   23.8308 C.3     1  UNL1        0.0174
     11 C          -5.0779  -15.3110   24.1533 C.3     1  UNL1        0.0029
     12 C          -6.5095  -15.1546   23.7337 C.3     1  UNL1        0.0174
     13 C          -7.1987  -16.2610   22.9916 C.3     1  UNL1        0.0724
     14 C          -6.4585  -19.3028   20.7756 C.3     1  UNL1        0.1186
     15 C          -4.9716  -19.1844   20.6166 C.ar    1  UNL1        0.0752
     16 C          -4.0572  -19.9794   21.5009 C.ar    1  UNL1        0.0161
     17 C          -2.5703  -19.8610   21.3420 C.ar    1  UNL1        0.0028
     18 C          -1.9979  -18.9478   20.2987 C.ar    1  UNL1        0.0207
     19 C          -2.9123  -18.1529   19.4144 C.ar    1  UNL1        0.0985
     20 N          -4.3992  -18.2712   19.5734 N.ar    1  UNL1       -0.2468
     21 N          -7.2583  -20.0936   19.7830 N.3     1  UNL1       -0.2677
     22 C          -8.4608  -19.4797   19.1295 C.3     1  UNL1        0.0724
     23 C          -9.2605  -20.2704   18.1370 C.3     1  UNL1        0.0174
     24 C          -8.8579  -21.6750   17.7980 C.3     1  UNL1        0.0029
     25 C          -7.6554  -22.2889   18.4515 C.3     1  UNL1        0.0174
     26 C          -6.8556  -21.4981   19.4441 C.3     1  UNL1        0.0724
@<TRIPOS>BOND
     1     2     3   ar
     2     3     4   ar
     3     4     5   ar
     4     5     1    1
     5     1    14    1
     6    14    15    1
     7    15    16   ar
     8    16    17   ar
     9    17    18   ar
    10    18    19   ar
    11    19    20   ar
    12    14    21    1
    13    21    22    1
    14    22    23    1
    15    23    24    1
    16    24    25    1
    17    25    26    1
    18     1     8    1
    19     8     9    1
    20     9    10    1
    21    10    11    1
    22    11    12    1
    23    12    13    1
    24     5     6   ar
    25     6     7   ar
    26     7     2   ar
    27    20    15   ar
    28    26    21    1
    29    13     8    1
