@<TRIPOS>MOLECULE
*****
 39 42 0 0 0
SMALL
GASTEIGER

@<TRIPOS>ATOM
      1 C           8.0607   -4.0321   24.1652 C.ar    1  UNL1        0.0505
      2 C           8.4304   -4.0379   22.7114 C.ar    1  UNL1        0.0148
      3 C           7.3615   -3.9226   21.6653 C.ar    1  UNL1        0.0058
      4 C           5.9230   -3.8015   22.0731 C.ar    1  UNL1        0.0534
      5 C           5.5534   -3.7957   23.5268 C.ar    1  UNL1        0.0058
      6 C           6.6223   -3.9110   24.5728 C.ar    1  UNL1        0.0148
      7 C           4.8542   -3.6862   21.0270 C.2     1  UNL1        0.2461
      8 O           4.1706   -4.9189   20.5141 O.2     1  UNL1       -0.2701
      9 N           4.4689   -2.3381   20.4938 N.am    1  UNL1       -0.2969
     10 H           4.9176   -1.5290   20.8304 H       1  UNL1        0.1501
     11 C           3.4001   -2.2228   19.4477 C.3     1  UNL1        0.1165
     12 C           2.5480   -0.9902   19.3787 C.ar    1  UNL1        0.0013
     13 C           1.3388   -0.8643   20.2573 C.ar    1  UNL1       -0.0027
     14 C           0.4867    0.3683   20.1883 C.ar    1  UNL1       -0.0003
     15 C           0.8438    1.4749   19.2408 C.ar    1  UNL1       -0.0001
     16 C           2.0531    1.3489   18.3622 C.ar    1  UNL1        0.0036
     17 C           2.9052    0.1164   18.4311 C.ar    1  UNL1        0.0691
     18 C           4.1143   -0.0096   17.5525 C.3     1  UNL1        0.4183
     19 F           5.3236   -0.1355   16.6739 F       1  UNL1       -0.1659
     20 F           4.9349    0.7149   18.5781 F       1  UNL1       -0.1659
     21 F           3.2937   -0.7340   16.5270 F       1  UNL1       -0.1659
     22 N           9.1296   -4.1474   25.2113 N.pl3   1  UNL1       -0.2824
     23 H          10.0289   -3.7863   25.0380 H       1  UNL1        0.1551
     24 C           8.9189   -6.9094   28.0533 C.ar    1  UNL1        0.2217
     25 N           9.2202   -6.2438   26.7434 N.ar    1  UNL1       -0.1808
     26 C           8.8281   -4.8131   26.5213 C.ar    1  UNL1        0.2254
     27 N           8.1347   -4.0480   27.6093 N.ar    1  UNL1       -0.1806
     28 C           7.8333   -4.7136   28.9192 C.ar    1  UNL1        0.2250
     29 N           8.2254   -6.1443   29.1413 N.ar    1  UNL1       -0.1808
     30 N           7.1397   -3.9485   30.0073 N.pl3   1  UNL1       -0.2752
     31 C           6.9453   -4.5735   31.3569 C.3     1  UNL1        0.1109
     32 C           6.2518   -3.8084   32.4449 C.3     1  UNL1        0.0939
     33 N           5.7527   -2.4183   32.1832 N.3     1  UNL1       -0.2686
     34 C           5.0592   -1.6532   33.2712 C.3     1  UNL1        0.0897
     35 C           5.9472   -1.7932   30.8335 C.3     1  UNL1        0.0939
     36 C           6.6407   -2.5583   29.7456 C.3     1  UNL1        0.1109
     37 C           8.5064   -9.4433   27.6544 C.3     1  UNL1        0.1108
     38 N           9.3110   -8.3401   28.2754 N.pl3   1  UNL1       -0.3012
     39 H          10.0964   -8.5551   28.8287 H       1  UNL1        0.1497
@<TRIPOS>BOND
     1    37    38    1
     2    38    24    1
     3    24    25   ar
     4    25    26   ar
     5    26    22    1
     6    22     1    1
     7     1     2   ar
     8     2     3   ar
     9     3     4   ar
    10     4     7    1
    11     7     8    2
    12     7     9   am
    13     9    11    1
    14    11    12    1
    15    12    13   ar
    16    13    14   ar
    17    14    15   ar
    18    15    16   ar
    19    16    17   ar
    20    17    18    1
    21    18    19    1
    22    18    20    1
    23    18    21    1
    24     4     5   ar
    25     5     6   ar
    26    26    27   ar
    27    27    28   ar
    28    28    30    1
    29    30    31    1
    30    31    32    1
    31    32    33    1
    32    33    34    1
    33    33    35    1
    34    35    36    1
    35    28    29   ar
    36    29    24   ar
    37     6     1   ar
    38    36    30    1
    39    17    12   ar
    40    38    39    1
    41    22    23    1
    42     9    10    1
@<TRIPOS>MOLECULE
*****
 39 42 0 0 0
SMALL
GASTEIGER

@<TRIPOS>ATOM
      1 C           6.7419   -1.2289   28.0153 C.ar    1  UNL1        0.0505
      2 C           7.6219   -1.8314   26.9604 C.ar    1  UNL1        0.0148
      3 C           7.0465   -2.2024   25.6258 C.ar    1  UNL1        0.0058
      4 C           5.5910   -1.9710   25.3461 C.ar    1  UNL1        0.0534
      5 C           4.7111   -1.3685   26.4009 C.ar    1  UNL1        0.0058
      6 C           5.2866   -0.9975   27.7355 C.ar    1  UNL1        0.0148
      7 C           5.0156   -2.3421   24.0115 C.2     1  UNL1        0.2461
      8 O           3.8531   -1.5738   23.4561 O.2     1  UNL1       -0.2701
      9 N           5.6026   -3.4815   23.2322 N.am    1  UNL1       -0.2969
     10 H           6.3656   -3.9858   23.5967 H       1  UNL1        0.1501
     11 C           5.0271   -3.8526   21.8976 C.3     1  UNL1        0.1165
     12 C           5.6169   -3.2824   20.6418 C.ar    1  UNL1        0.0013
     13 C           6.8972   -2.5031   20.7012 C.ar    1  UNL1       -0.0027
     14 C           7.4871   -1.9329   19.4453 C.ar    1  UNL1       -0.0003
     15 C           6.7966   -2.1421   18.1302 C.ar    1  UNL1       -0.0001
     16 C           5.5162   -2.9214   18.0709 C.ar    1  UNL1        0.0036
     17 C           4.9264   -3.4916   19.3267 C.ar    1  UNL1        0.0691
     18 C           3.6462   -4.2708   19.2674 C.3     1  UNL1        0.4183
     19 F           2.3658   -5.0502   19.2081 F       1  UNL1       -0.1659
     20 F           2.8705   -3.0176   19.5460 F       1  UNL1       -0.1659
     21 F           4.4219   -5.5240   18.9888 F       1  UNL1       -0.1659
     22 N           7.3174   -0.8578   29.3499 N.pl3   1  UNL1       -0.2824
     23 H           8.0741   -0.2302   29.4024 H       1  UNL1        0.1551
     24 C           6.2555   -3.5042   32.1102 C.ar    1  UNL1        0.2217
     25 N           6.8330   -2.9189   30.8556 N.ar    1  UNL1       -0.1808
     26 C           6.7399   -1.4430   30.6045 C.ar    1  UNL1        0.2254
     27 N           6.0694   -0.5524   31.6081 N.ar    1  UNL1       -0.1806
     28 C           5.4920   -1.1376   32.8626 C.ar    1  UNL1        0.2250
     29 N           5.5851   -2.6135   33.1137 N.ar    1  UNL1       -0.1808
     30 N           4.8215   -0.2469   33.8662 N.pl3   1  UNL1       -0.2752
     31 C           5.0813   -0.4387   35.3310 C.3     1  UNL1        0.1109
     32 C           4.4108    0.4520   36.3346 C.3     1  UNL1        0.0939
     33 N           3.4804    1.5344   35.8734 N.3     1  UNL1       -0.2686
     34 C           2.8099    2.4251   36.8769 C.3     1  UNL1        0.0897
     35 C           3.2206    1.7262   34.4085 C.3     1  UNL1        0.0939
     36 C           3.8911    0.8355   33.4050 C.3     1  UNL1        0.1109
     37 C           7.1237   -5.8536   31.4199 C.3     1  UNL1        0.1108
     38 N           6.3486   -4.9801   32.3612 N.pl3   1  UNL1       -0.3012
     39 H           5.9009   -5.3755   33.1439 H       1  UNL1        0.1497
@<TRIPOS>BOND
     1    37    38    1
     2    38    24    1
     3    24    25   ar
     4    25    26   ar
     5    26    22    1
     6    22     1    1
     7     1     2   ar
     8     2     3   ar
     9     3     4   ar
    10     4     7    1
    11     7     8    2
    12     7     9   am
    13     9    11    1
    14    11    12    1
    15    12    13   ar
    16    13    14   ar
    17    14    15   ar
    18    15    16   ar
    19    16    17   ar
    20    17    18    1
    21    18    19    1
    22    18    20    1
    23    18    21    1
    24     4     5   ar
    25     5     6   ar
    26    26    27   ar
    27    27    28   ar
    28    28    30    1
    29    30    31    1
    30    31    32    1
    31    32    33    1
    32    33    34    1
    33    33    35    1
    34    35    36    1
    35    28    29   ar
    36    29    24   ar
    37     6     1   ar
    38    36    30    1
    39    17    12   ar
    40    38    39    1
    41    22    23    1
    42     9    10    1
@<TRIPOS>MOLECULE
*****
 39 42 0 0 0
SMALL
GASTEIGER

@<TRIPOS>ATOM
      1 C           6.3245   -1.4207   28.0675 C.ar    1  UNL1        0.0505
      2 C           6.4719   -2.9125   28.0130 C.ar    1  UNL1        0.0148
      3 C           6.4402   -3.6215   26.6915 C.ar    1  UNL1        0.0058
      4 C           6.2611   -2.8387   25.4246 C.ar    1  UNL1        0.0534
      5 C           6.1137   -1.3470   25.4791 C.ar    1  UNL1        0.0058
      6 C           6.1455   -0.6380   26.8006 C.ar    1  UNL1        0.0148
      7 C           6.2293   -3.5477   24.1031 C.2     1  UNL1        0.2461
      8 O           7.3043   -4.5343   23.7553 O.2     1  UNL1       -0.2701
      9 N           5.1226   -3.2699   23.1293 N.am    1  UNL1       -0.2969
     10 H           4.4170   -2.6224   23.3576 H       1  UNL1        0.1501
     11 C           5.0908   -3.9789   21.8078 C.3     1  UNL1        0.1165
     12 C           5.7205   -3.3466   20.6022 C.ar    1  UNL1        0.0013
     13 C           7.0370   -2.6388   20.7279 C.ar    1  UNL1       -0.0027
     14 C           7.6668   -2.0065   19.5222 C.ar    1  UNL1       -0.0003
     15 C           6.9800   -2.0820   18.1908 C.ar    1  UNL1       -0.0001
     16 C           5.6634   -2.7898   18.0651 C.ar    1  UNL1        0.0036
     17 C           5.0337   -3.4221   19.2708 C.ar    1  UNL1        0.0691
     18 C           3.7172   -4.1299   19.1451 C.3     1  UNL1        0.4183
     19 F           2.4007   -4.8378   19.0193 F       1  UNL1       -0.1659
     20 F           3.0037   -2.8752   19.5532 F       1  UNL1       -0.1659
     21 F           4.4308   -5.3846   18.7369 F       1  UNL1       -0.1659
     22 N           6.3563   -0.7118   29.3890 N.pl3   1  UNL1       -0.2824
     23 H           7.2097   -0.3765   29.7475 H       1  UNL1        0.1551
     24 C           2.4918   -0.4509   30.2540 C.ar    1  UNL1        0.2217
     25 N           3.7605   -0.6491   29.4786 N.ar    1  UNL1       -0.1808
     26 C           5.0876   -0.5135   30.1645 C.ar    1  UNL1        0.2254
     27 N           5.1461   -0.1797   31.6256 N.ar    1  UNL1       -0.1806
     28 C           3.8774    0.0185   32.4010 C.ar    1  UNL1        0.2250
     29 N           2.5503   -0.1171   31.7151 N.ar    1  UNL1       -0.1808
     30 N           3.9358    0.3523   33.8623 N.pl3   1  UNL1       -0.2752
     31 C           3.2742    1.5973   34.3742 C.3     1  UNL1        0.1109
     32 C           3.3326    1.9311   35.8355 C.3     1  UNL1        0.0939
     33 N           4.0527    1.0199   36.7847 N.3     1  UNL1       -0.2686
     34 C           4.1111    1.3536   38.2459 C.3     1  UNL1        0.0897
     35 C           4.7144   -0.2252   36.2727 C.3     1  UNL1        0.0939
     36 C           4.6559   -0.5590   34.8115 C.3     1  UNL1        0.1109
     37 C           0.4767    0.6281   29.0190 C.3     1  UNL1        0.1108
     38 N           1.1647   -0.5865   29.5681 N.pl3   1  UNL1       -0.3012
     39 H           0.7452   -1.4726   29.4784 H       1  UNL1        0.1497
@<TRIPOS>BOND
     1    37    38    1
     2    38    24    1
     3    24    25   ar
     4    25    26   ar
     5    26    22    1
     6    22     1    1
     7     1     2   ar
     8     2     3   ar
     9     3     4   ar
    10     4     7    1
    11     7     8    2
    12     7     9   am
    13     9    11    1
    14    11    12    1
    15    12    13   ar
    16    13    14   ar
    17    14    15   ar
    18    15    16   ar
    19    16    17   ar
    20    17    18    1
    21    18    19    1
    22    18    20    1
    23    18    21    1
    24     4     5   ar
    25     5     6   ar
    26    26    27   ar
    27    27    28   ar
    28    28    30    1
    29    30    31    1
    30    31    32    1
    31    32    33    1
    32    33    34    1
    33    33    35    1
    34    35    36    1
    35    28    29   ar
    36    29    24   ar
    37     6     1   ar
    38    36    30    1
    39    17    12   ar
    40    38    39    1
    41    22    23    1
    42     9    10    1
@<TRIPOS>MOLECULE
*****
 39 42 0 0 0
SMALL
GASTEIGER

@<TRIPOS>ATOM
      1 C           6.3818   -2.7846   32.7990 C.ar    1  UNL1        0.0505
      2 C           4.9425   -2.8767   33.2113 C.ar    1  UNL1        0.0148
      3 C           4.2850   -1.7195   33.9031 C.ar    1  UNL1        0.0058
      4 C           5.0668   -0.4702   34.1825 C.ar    1  UNL1        0.0534
      5 C           6.5060   -0.3781   33.7702 C.ar    1  UNL1        0.0058
      6 C           7.1635   -1.5353   33.0784 C.ar    1  UNL1        0.0148
      7 C           4.4092    0.6870   34.8743 C.2     1  UNL1        0.2461
      8 O           3.3605    1.4890   34.1623 O.2     1  UNL1       -0.2701
      9 N           4.8005    1.0422   36.2782 N.am    1  UNL1       -0.2969
     10 H           5.4888    0.5158   36.7456 H       1  UNL1        0.1501
     11 C           4.1429    2.1994   36.9700 C.3     1  UNL1        0.1165
     12 C           2.9394    1.9704   37.8354 C.ar    1  UNL1        0.0013
     13 C           2.7348    0.6408   38.4989 C.ar    1  UNL1       -0.0027
     14 C           1.5312    0.4117   39.3643 C.ar    1  UNL1       -0.0003
     15 C           0.5322    1.5123   39.5662 C.ar    1  UNL1       -0.0001
     16 C           0.7368    2.8419   38.9027 C.ar    1  UNL1        0.0036
     17 C           1.9404    3.0710   38.0373 C.ar    1  UNL1        0.0691
     18 C           2.1449    4.4005   37.3738 C.3     1  UNL1        0.4183
     19 F           2.3495    5.7302   36.7102 F       1  UNL1       -0.1659
     20 F           3.0038    4.8413   38.5218 F       1  UNL1       -0.1659
     21 F           1.2860    3.9598   36.2258 F       1  UNL1       -0.1659
     22 N           7.0393   -3.9418   32.1072 N.pl3   1  UNL1       -0.2824
     23 H           7.5924   -4.5731   32.6217 H       1  UNL1        0.1551
     24 C           6.9884   -5.6568   28.5286 C.ar    1  UNL1        0.2217
     25 N           7.1736   -5.4616   30.0043 N.ar    1  UNL1       -0.1808
     26 C           6.8541   -4.1370   30.6315 C.ar    1  UNL1        0.2254
     27 N           6.3494   -3.0077   29.7831 N.ar    1  UNL1       -0.1806
     28 C           6.1642   -3.2029   28.3074 C.ar    1  UNL1        0.2250
     29 N           6.4837   -4.5275   27.6802 N.ar    1  UNL1       -0.1808
     30 N           5.6594   -2.0736   27.4589 N.pl3   1  UNL1       -0.2752
     31 C           6.5957   -1.3538   26.5342 C.3     1  UNL1        0.1109
     32 C           6.0909   -0.2244   25.6857 C.3     1  UNL1        0.0939
     33 N           4.6499    0.1850   25.7620 N.3     1  UNL1       -0.2686
     34 C           4.1451    1.3143   24.9136 C.3     1  UNL1        0.0897
     35 C           3.7136   -0.5349   26.6868 C.3     1  UNL1        0.0939
     36 C           4.2184   -1.6641   27.5353 C.3     1  UNL1        0.1109
     37 C           7.2471   -7.1397   26.4111 C.3     1  UNL1        0.1108
     38 N           7.3079   -6.9814   27.9014 N.pl3   1  UNL1       -0.3012
     39 H           7.5576   -7.7469   28.4680 H       1  UNL1        0.1497
@<TRIPOS>BOND
     1    37    38    1
     2    38    24    1
     3    24    25   ar
     4    25    26   ar
     5    26    22    1
     6    22     1    1
     7     1     2   ar
     8     2     3   ar
     9     3     4   ar
    10     4     7    1
    11     7     8    2
    12     7     9   am
    13     9    11    1
    14    11    12    1
    15    12    13   ar
    16    13    14   ar
    17    14    15   ar
    18    15    16   ar
    19    16    17   ar
    20    17    18    1
    21    18    19    1
    22    18    20    1
    23    18    21    1
    24     4     5   ar
    25     5     6   ar
    26    26    27   ar
    27    27    28   ar
    28    28    30    1
    29    30    31    1
    30    31    32    1
    31    32    33    1
    32    33    34    1
    33    33    35    1
    34    35    36    1
    35    28    29   ar
    36    29    24   ar
    37     6     1   ar
    38    36    30    1
    39    17    12   ar
    40    38    39    1
    41    22    23    1
    42     9    10    1
@<TRIPOS>MOLECULE
*****
 39 42 0 0 0
SMALL
GASTEIGER

@<TRIPOS>ATOM
      1 C           0.0724    2.5525   19.4730 C.ar    1  UNL1        0.0505
      2 C           1.2331    3.3035   18.8909 C.ar    1  UNL1        0.0148
      3 C           2.4767    2.5676   18.4886 C.ar    1  UNL1        0.0058
      4 C           2.5597    1.0807   18.6684 C.ar    1  UNL1        0.0534
      5 C           1.3990    0.3298   19.2505 C.ar    1  UNL1        0.0058
      6 C           0.1554    1.0656   19.6529 C.ar    1  UNL1        0.0148
      7 C           3.8033    0.3448   18.2661 C.2     1  UNL1        0.2461
      8 O           5.1093    1.0761   18.1694 O.2     1  UNL1       -0.2701
      9 N           3.7408   -1.1225   17.9604 N.am    1  UNL1       -0.2969
     10 H           2.8836   -1.6024   18.0239 H       1  UNL1        0.1501
     11 C           4.9844   -1.8584   17.5581 C.3     1  UNL1        0.1165
     12 C           5.9109   -2.3955   18.6083 C.ar    1  UNL1        0.0013
     13 C           7.2608   -1.7725   18.8073 C.ar    1  UNL1       -0.0027
     14 C           8.1873   -2.3096   19.8576 C.ar    1  UNL1       -0.0003
     15 C           7.7640   -3.4699   20.7088 C.ar    1  UNL1       -0.0001
     16 C           6.4141   -4.0930   20.5098 C.ar    1  UNL1        0.0036
     17 C           5.4876   -3.5558   19.4595 C.ar    1  UNL1        0.0691
     18 C           4.1377   -4.1789   19.2606 C.3     1  UNL1        0.4183
     19 F           2.7878   -4.8020   19.0615 F       1  UNL1       -0.1659
     20 F           3.5500   -3.2237   20.2566 F       1  UNL1       -0.1659
     21 F           4.7255   -5.1341   18.2645 F       1  UNL1       -0.1659
     22 N          -1.1712    3.2884   19.8754 N.pl3   1  UNL1       -0.2824
     23 H          -1.7278    3.7253   19.1909 H       1  UNL1        0.1551
     24 C          -0.9645    3.0908   23.8337 C.ar    1  UNL1        0.2217
     25 N          -0.5690    3.0207   22.3885 N.ar    1  UNL1       -0.1808
     26 C          -1.5668    3.3585   21.3206 C.ar    1  UNL1        0.2254
     27 N          -2.9600    3.7664   21.6979 N.ar    1  UNL1       -0.1806
     28 C          -3.3555    3.8365   23.1431 C.ar    1  UNL1        0.2250
     29 N          -2.3578    3.4987   24.2110 N.ar    1  UNL1       -0.1808
     30 N          -4.7489    4.2444   23.5205 N.pl3   1  UNL1       -0.2752
     31 C          -4.9968    4.9551   24.8179 C.3     1  UNL1        0.1109
     32 C          -6.3902    5.3630   25.1953 C.3     1  UNL1        0.0939
     33 N          -7.5355    5.0602   24.2752 N.3     1  UNL1       -0.2686
     34 C          -8.9287    5.4681   24.6525 C.3     1  UNL1        0.0897
     35 C          -7.2874    4.3495   22.9777 C.3     1  UNL1        0.0939
     36 C          -5.8941    3.9416   22.6003 C.3     1  UNL1        0.1109
     37 C           0.3383    1.3185   25.2163 C.3     1  UNL1        0.1108
     38 N           0.0332    2.7530   24.9016 N.pl3   1  UNL1       -0.3012
     39 H           0.4878    3.4728   25.3959 H       1  UNL1        0.1497
@<TRIPOS>BOND
     1    37    38    1
     2    38    24    1
     3    24    25   ar
     4    25    26   ar
     5    26    22    1
     6    22     1    1
     7     1     2   ar
     8     2     3   ar
     9     3     4   ar
    10     4     7    1
    11     7     8    2
    12     7     9   am
    13     9    11    1
    14    11    12    1
    15    12    13   ar
    16    13    14   ar
    17    14    15   ar
    18    15    16   ar
    19    16    17   ar
    20    17    18    1
    21    18    19    1
    22    18    20    1
    23    18    21    1
    24     4     5   ar
    25     5     6   ar
    26    26    27   ar
    27    27    28   ar
    28    28    30    1
    29    30    31    1
    30    31    32    1
    31    32    33    1
    32    33    34    1
    33    33    35    1
    34    35    36    1
    35    28    29   ar
    36    29    24   ar
    37     6     1   ar
    38    36    30    1
    39    17    12   ar
    40    38    39    1
    41    22    23    1
    42     9    10    1
@<TRIPOS>MOLECULE
*****
 39 42 0 0 0
SMALL
GASTEIGER

@<TRIPOS>ATOM
      1 C           0.3847    1.2634   27.8740 C.ar    1  UNL1        0.0505
      2 C           1.8375    0.9741   27.6376 C.ar    1  UNL1        0.0148
      3 C           2.3621    0.8648   26.2365 C.ar    1  UNL1        0.0058
      4 C           1.4339    1.0449   25.0720 C.ar    1  UNL1        0.0534
      5 C          -0.0188    1.3342   25.3085 C.ar    1  UNL1        0.0058
      6 C          -0.5434    1.4435   26.7095 C.ar    1  UNL1        0.0148
      7 C           1.9585    0.9356   23.6709 C.2     1  UNL1        0.2461
      8 O           1.4909    1.8961   22.6180 O.2     1  UNL1       -0.2701
      9 N           2.9507   -0.1342   23.3229 N.am    1  UNL1       -0.2969
     10 H           3.2576   -0.7646   24.0140 H       1  UNL1        0.1501
     11 C           3.4753   -0.2435   21.9219 C.3     1  UNL1        0.1165
     12 C           3.6705   -1.5932   21.2972 C.ar    1  UNL1        0.0013
     13 C           4.3950   -2.6699   22.0493 C.ar    1  UNL1       -0.0027
     14 C           4.5903   -4.0197   21.4247 C.ar    1  UNL1       -0.0003
     15 C           4.0609   -4.2926   20.0480 C.ar    1  UNL1       -0.0001
     16 C           3.3363   -3.2158   19.2959 C.ar    1  UNL1        0.0036
     17 C           3.1411   -1.8661   19.9206 C.ar    1  UNL1        0.0691
     18 C           2.4166   -0.7894   19.1685 C.3     1  UNL1        0.4183
     19 F           1.6919    0.2874   18.4164 F       1  UNL1       -0.1659
     20 F           3.6744   -0.4676   18.4174 F       1  UNL1       -0.1659
     21 F           1.1587   -1.1112   19.9196 F       1  UNL1       -0.1659
     22 N          -0.1399    1.3727   29.2750 N.pl3   1  UNL1       -0.2824
     23 H          -1.1056    1.4823   29.4319 H       1  UNL1        0.1551
     24 C           1.6159    2.2352   32.7281 C.ar    1  UNL1        0.2217
     25 N           0.6691    2.2929   31.5661 N.ar    1  UNL1       -0.1808
     26 C           0.8070    1.3150   30.4371 C.ar    1  UNL1        0.2254
     27 N           1.8916    0.2794   30.4700 N.ar    1  UNL1       -0.1806
     28 C           2.8384    0.2218   31.6320 C.ar    1  UNL1        0.2250
     29 N           2.7005    1.1997   32.7610 N.ar    1  UNL1       -0.1808
     30 N           3.9231   -0.8139   31.6650 N.pl3   1  UNL1       -0.2752
     31 C           4.7997   -1.0202   30.4655 C.3     1  UNL1        0.1109
     32 C           5.8844   -2.0558   30.4985 C.3     1  UNL1        0.0939
     33 N           6.0924   -2.8850   31.7310 N.3     1  UNL1       -0.2686
     34 C           7.1770   -3.9206   31.7640 C.3     1  UNL1        0.0897
     35 C           5.2157   -2.6786   32.9305 C.3     1  UNL1        0.0939
     36 C           4.1311   -1.6431   32.8975 C.3     1  UNL1        0.1109
     37 C           0.7662    4.5152   33.6388 C.3     1  UNL1        0.1108
     38 N           1.4781    3.2131   33.8571 N.pl3   1  UNL1       -0.3012
     39 H           1.8549    3.0003   34.7414 H       1  UNL1        0.1497
@<TRIPOS>BOND
     1    37    38    1
     2    38    24    1
     3    24    25   ar
     4    25    26   ar
     5    26    22    1
     6    22     1    1
     7     1     2   ar
     8     2     3   ar
     9     3     4   ar
    10     4     7    1
    11     7     8    2
    12     7     9   am
    13     9    11    1
    14    11    12    1
    15    12    13   ar
    16    13    14   ar
    17    14    15   ar
    18    15    16   ar
    19    16    17   ar
    20    17    18    1
    21    18    19    1
    22    18    20    1
    23    18    21    1
    24     4     5   ar
    25     5     6   ar
    26    26    27   ar
    27    27    28   ar
    28    28    30    1
    29    30    31    1
    30    31    32    1
    31    32    33    1
    32    33    34    1
    33    33    35    1
    34    35    36    1
    35    28    29   ar
    36    29    24   ar
    37     6     1   ar
    38    36    30    1
    39    17    12   ar
    40    38    39    1
    41    22    23    1
    42     9    10    1
@<TRIPOS>MOLECULE
*****
 39 42 0 0 0
SMALL
GASTEIGER

@<TRIPOS>ATOM
      1 C           2.1952   -0.9874   20.6093 C.ar    1  UNL1        0.0505
      2 C           2.3564   -0.4122   21.9853 C.ar    1  UNL1        0.0148
      3 C           3.4921   -0.8598   22.8570 C.ar    1  UNL1        0.0058
      4 C           4.4666   -1.8826   22.3527 C.ar    1  UNL1        0.0534
      5 C           4.3053   -2.4578   20.9768 C.ar    1  UNL1        0.0058
      6 C           3.1696   -2.0102   20.1051 C.ar    1  UNL1        0.0148
      7 C           5.6022   -2.3303   23.2244 C.2     1  UNL1        0.2461
      8 O           6.8958   -1.5709   23.2196 O.2     1  UNL1       -0.2701
      9 N           5.4443   -3.5373   24.1009 N.am    1  UNL1       -0.2969
     10 H           4.5953   -4.0358   24.1040 H       1  UNL1        0.1501
     11 C           6.5800   -3.9850   24.9725 C.3     1  UNL1        0.1165
     12 C           7.4447   -5.1342   24.5465 C.ar    1  UNL1        0.0013
     13 C           7.9211   -5.2284   23.1273 C.ar    1  UNL1       -0.0027
     14 C           8.7858   -6.3777   22.7011 C.ar    1  UNL1       -0.0003
     15 C           9.1741   -7.4327   23.6942 C.ar    1  UNL1       -0.0001
     16 C           8.6977   -7.3384   25.1135 C.ar    1  UNL1        0.0036
     17 C           7.8330   -6.1892   25.5396 C.ar    1  UNL1        0.0691
     18 C           7.3566   -6.0949   26.9588 C.3     1  UNL1        0.4183
     19 F           6.8803   -6.0006   28.3780 F       1  UNL1       -0.1659
     20 F           6.1612   -6.9324   26.6131 F       1  UNL1       -0.1659
     21 F           8.5521   -5.2574   27.3044 F       1  UNL1       -0.1659
     22 N           1.0595   -0.5398   19.7376 N.pl3   1  UNL1       -0.2824
     23 H           0.5896   -1.1911   19.1682 H       1  UNL1        0.1551
     24 C           1.0286    3.3551   18.9769 C.ar    1  UNL1        0.2217
     25 N           1.4484    1.9151   18.9811 N.ar    1  UNL1       -0.1808
     26 C           0.6397    0.9003   19.7335 C.ar    1  UNL1        0.2254
     27 N          -0.5888    1.3256   20.4818 N.ar    1  UNL1       -0.1806
     28 C          -1.0086    2.7656   20.4776 C.ar    1  UNL1        0.2250
     29 N          -0.1998    3.7804   19.7252 N.ar    1  UNL1       -0.1808
     30 N          -2.2371    3.1909   21.2259 N.pl3   1  UNL1       -0.2752
     31 C          -3.5671    3.2140   20.5327 C.3     1  UNL1        0.1109
     32 C          -4.7956    3.6394   21.2810 C.3     1  UNL1        0.0939
     33 N          -4.6941    4.0415   22.7225 N.3     1  UNL1       -0.2686
     34 C          -5.9225    4.4668   23.4708 C.3     1  UNL1        0.0897
     35 C          -3.3640    4.0184   23.4157 C.3     1  UNL1        0.0939
     36 C          -2.1356    3.5931   22.6674 C.3     1  UNL1        0.1109
     37 C           3.2629    4.0746   17.8632 C.3     1  UNL1        0.1108
     38 N           1.8374    4.3699   18.2245 N.pl3   1  UNL1       -0.3012
     39 H           1.4325    5.2298   17.9677 H       1  UNL1        0.1497
@<TRIPOS>BOND
     1    37    38    1
     2    38    24    1
     3    24    25   ar
     4    25    26   ar
     5    26    22    1
     6    22     1    1
     7     1     2   ar
     8     2     3   ar
     9     3     4   ar
    10     4     7    1
    11     7     8    2
    12     7     9   am
    13     9    11    1
    14    11    12    1
    15    12    13   ar
    16    13    14   ar
    17    14    15   ar
    18    15    16   ar
    19    16    17   ar
    20    17    18    1
    21    18    19    1
    22    18    20    1
    23    18    21    1
    24     4     5   ar
    25     5     6   ar
    26    26    27   ar
    27    27    28   ar
    28    28    30    1
    29    30    31    1
    30    31    32    1
    31    32    33    1
    32    33    34    1
    33    33    35    1
    34    35    36    1
    35    28    29   ar
    36    29    24   ar
    37     6     1   ar
    38    36    30    1
    39    17    12   ar
    40    38    39    1
    41    22    23    1
    42     9    10    1
@<TRIPOS>MOLECULE
*****
 39 42 0 0 0
SMALL
GASTEIGER

@<TRIPOS>ATOM
      1 C          -0.7243    2.9728   25.6373 C.ar    1  UNL1        0.0505
      2 C          -0.4020    1.5128   25.5162 C.ar    1  UNL1        0.0148
      3 C           0.5612    1.0418   24.4672 C.ar    1  UNL1        0.0058
      4 C           1.2022    2.0309   23.5393 C.ar    1  UNL1        0.0534
      5 C           0.8799    3.4908   23.6604 C.ar    1  UNL1        0.0058
      6 C          -0.0833    3.9618   24.7094 C.ar    1  UNL1        0.0148
      7 C           2.1654    1.5599   22.4903 C.2     1  UNL1        0.2461
      8 O           2.1454    2.1761   21.1228 O.2     1  UNL1       -0.2701
      9 N           3.1486    0.4728   22.8088 N.am    1  UNL1       -0.2969
     10 H           3.1618    0.0683   23.7063 H       1  UNL1        0.1501
     11 C           4.1119    0.0018   21.7598 C.3     1  UNL1        0.1165
     12 C           4.0702   -1.4215   21.2881 C.ar    1  UNL1        0.0013
     13 C           4.6381   -2.5128   22.1462 C.ar    1  UNL1       -0.0027
     14 C           4.5965   -3.9362   21.6746 C.ar    1  UNL1       -0.0003
     15 C           3.9870   -4.2681   20.3448 C.ar    1  UNL1       -0.0001
     16 C           3.4192   -3.1767   19.4866 C.ar    1  UNL1        0.0036
     17 C           3.4608   -1.7534   19.9583 C.ar    1  UNL1        0.0691
     18 C           2.8929   -0.6620   19.1001 C.3     1  UNL1        0.4183
     19 F           2.3251    0.4294   18.2419 F       1  UNL1       -0.1659
     20 F           1.5671   -0.8134   19.7850 F       1  UNL1       -0.1659
     21 F           4.2188   -0.5107   18.4153 F       1  UNL1       -0.1659
     22 N          -1.6875    3.4438   26.6863 N.pl3   1  UNL1       -0.2824
     23 H          -1.4360    3.4074   27.6374 H       1  UNL1        0.1551
     24 C          -5.2627    5.1523   26.9063 C.ar    1  UNL1        0.2217
     25 N          -3.9164    4.6259   27.3065 N.ar    1  UNL1       -0.1808
     26 C          -3.0339    3.9703   26.2860 C.ar    1  UNL1        0.2254
     27 N          -3.4977    3.8411   24.8655 N.ar    1  UNL1       -0.1806
     28 C          -4.8440    4.3675   24.4653 C.ar    1  UNL1        0.2250
     29 N          -5.7266    5.0232   25.4857 N.ar    1  UNL1       -0.1808
     30 N          -5.3079    4.2384   23.0446 N.pl3   1  UNL1       -0.2752
     31 C          -4.5579    3.3599   22.0877 C.3     1  UNL1        0.1109
     32 C          -5.0218    3.2307   20.6670 C.3     1  UNL1        0.0939
     33 N          -6.2357    3.9801   20.2034 N.3     1  UNL1       -0.2686
     34 C          -6.6996    3.8509   18.7828 C.3     1  UNL1        0.0897
     35 C          -6.9857    4.8586   21.1604 C.3     1  UNL1        0.0939
     36 C          -6.5218    4.9877   22.5810 C.3     1  UNL1        0.1109
     37 C          -6.0827    7.2929   28.1293 C.3     1  UNL1        0.1108
     38 N          -6.1453    5.8080   27.9268 N.pl3   1  UNL1       -0.3012
     39 H          -6.7656    5.2637   28.4636 H       1  UNL1        0.1497
@<TRIPOS>BOND
     1    37    38    1
     2    38    24    1
     3    24    25   ar
     4    25    26   ar
     5    26    22    1
     6    22     1    1
     7     1     2   ar
     8     2     3   ar
     9     3     4   ar
    10     4     7    1
    11     7     8    2
    12     7     9   am
    13     9    11    1
    14    11    12    1
    15    12    13   ar
    16    13    14   ar
    17    14    15   ar
    18    15    16   ar
    19    16    17   ar
    20    17    18    1
    21    18    19    1
    22    18    20    1
    23    18    21    1
    24     4     5   ar
    25     5     6   ar
    26    26    27   ar
    27    27    28   ar
    28    28    30    1
    29    30    31    1
    30    31    32    1
    31    32    33    1
    32    33    34    1
    33    33    35    1
    34    35    36    1
    35    28    29   ar
    36    29    24   ar
    37     6     1   ar
    38    36    30    1
    39    17    12   ar
    40    38    39    1
    41    22    23    1
    42     9    10    1
@<TRIPOS>MOLECULE
*****
 39 42 0 0 0
SMALL
GASTEIGER

@<TRIPOS>ATOM
      1 C           0.4950    2.1559   29.2340 C.ar    1  UNL1        0.0505
      2 C          -0.4251    1.2192   28.5087 C.ar    1  UNL1        0.0148
      3 C          -0.3074    1.0534   27.0225 C.ar    1  UNL1        0.0058
      4 C           0.7304    1.8242   26.2617 C.ar    1  UNL1        0.0534
      5 C           1.6504    2.7609   26.9870 C.ar    1  UNL1        0.0058
      6 C           1.5328    2.9267   28.4732 C.ar    1  UNL1        0.0148
      7 C           0.8480    1.6584   24.7755 C.2     1  UNL1        0.2461
      8 O          -0.0337    2.4547   23.8599 O.2     1  UNL1       -0.2701
      9 N           1.8475    0.6962   24.2050 N.am    1  UNL1       -0.2969
     10 H           2.4262    0.1736   24.8060 H       1  UNL1        0.1501
     11 C           1.9652    0.5304   22.7189 C.3     1  UNL1        0.1165
     12 C           2.7243   -0.6324   22.1518 C.ar    1  UNL1        0.0013
     13 C           3.6309   -1.4383   23.0341 C.ar    1  UNL1       -0.0027
     14 C           4.3901   -2.6011   22.4669 C.ar    1  UNL1       -0.0003
     15 C           4.2425   -2.9580   21.0175 C.ar    1  UNL1       -0.0001
     16 C           3.3358   -2.1520   20.1352 C.ar    1  UNL1        0.0036
     17 C           2.5767   -0.9893   20.7023 C.ar    1  UNL1        0.0691
     18 C           1.6701   -0.1834   19.8200 C.3     1  UNL1        0.4183
     19 F           0.7633    0.6225   18.9377 F       1  UNL1       -0.1659
     20 F           2.8482    0.6047   19.3292 F       1  UNL1       -0.1659
     21 F           0.4920   -0.9715   20.3108 F       1  UNL1       -0.1659
     22 N           0.3774    2.3217   30.7201 N.pl3   1  UNL1       -0.2824
     23 H          -0.3781    2.8252   31.1010 H       1  UNL1        0.1551
     24 C           3.2355   -0.0724   32.0801 C.ar    1  UNL1        0.2217
     25 N           2.2021    0.5289   31.1743 N.ar    1  UNL1       -0.1808
     26 C           1.4108    1.7204   31.6261 C.ar    1  UNL1        0.2254
     27 N           1.6527    2.3106   32.9836 N.ar    1  UNL1       -0.1806
     28 C           2.6861    1.7093   33.8895 C.ar    1  UNL1        0.2250
     29 N           3.4775    0.5178   33.4377 N.ar    1  UNL1       -0.1808
     30 N           2.9281    2.2994   35.2472 N.pl3   1  UNL1       -0.2752
     31 C           2.2265    3.5619   35.6521 C.3     1  UNL1        0.1109
     32 C           2.4686    4.1520   37.0098 C.3     1  UNL1        0.0939
     33 N           3.4121    3.4796   37.9625 N.3     1  UNL1       -0.2686
     34 C           3.6542    4.0697   39.3201 C.3     1  UNL1        0.0897
     35 C           4.1137    2.2171   37.5575 C.3     1  UNL1        0.0939
     36 C           3.8717    1.6270   36.1998 C.3     1  UNL1        0.1109
     37 C           4.6301   -2.1914   32.6411 C.3     1  UNL1        0.1108
     38 N           4.0269   -1.2638   31.6283 N.pl3   1  UNL1       -0.3012
     39 H           4.1504   -1.4371   30.6671 H       1  UNL1        0.1497
@<TRIPOS>BOND
     1    37    38    1
     2    38    24    1
     3    24    25   ar
     4    25    26   ar
     5    26    22    1
     6    22     1    1
     7     1     2   ar
     8     2     3   ar
     9     3     4   ar
    10     4     7    1
    11     7     8    2
    12     7     9   am
    13     9    11    1
    14    11    12    1
    15    12    13   ar
    16    13    14   ar
    17    14    15   ar
    18    15    16   ar
    19    16    17   ar
    20    17    18    1
    21    18    19    1
    22    18    20    1
    23    18    21    1
    24     4     5   ar
    25     5     6   ar
    26    26    27   ar
    27    27    28   ar
    28    28    30    1
    29    30    31    1
    30    31    32    1
    31    32    33    1
    32    33    34    1
    33    33    35    1
    34    35    36    1
    35    28    29   ar
    36    29    24   ar
    37     6     1   ar
    38    36    30    1
    39    17    12   ar
    40    38    39    1
    41    22    23    1
    42     9    10    1
