@<TRIPOS>MOLECULE
*****
 32 35 0 0 0
SMALL
GASTEIGER

@<TRIPOS>ATOM
      1 C          -6.4838  -20.2330   20.7390 C.ar    1  UNL1        0.0038
      2 C          -7.2433  -19.2813   19.8631 C.ar    1  UNL1        0.0965
      3 N          -8.5667  -18.7390   20.3153 N.ar    1  UNL1       -0.2274
      4 C          -9.1306  -19.1483   21.6437 C.ar    1  UNL1        0.1564
      5 C          -8.3710  -20.1001   22.5197 C.ar    1  UNL1        0.1710
      6 F          -8.9349  -20.5094   23.8480 F       1  UNL1       -0.2012
      7 C          -7.0476  -20.6424   22.0674 C.ar    1  UNL1        0.0301
      8 N         -10.4539  -18.6060   22.0959 N.pl3   1  UNL1       -0.3126
      9 H         -11.0993  -18.2674   21.4341 H       1  UNL1        0.1486
     10 C         -10.7939  -18.5795   23.5566 C.3     1  UNL1        0.1170
     11 C          -9.9821  -17.7430   24.5006 C.ar    1  UNL1        0.0166
     12 C          -9.5272  -16.3744   24.0884 C.ar    1  UNL1        0.0004
     13 C          -8.7154  -15.5378   25.0323 C.ar    1  UNL1        0.0228
     14 C          -8.3584  -16.0698   26.3886 C.ar    1  UNL1        0.1526
     15 N          -8.8133  -17.4385   26.8009 N.ar    1  UNL1       -0.2401
     16 C          -9.6251  -18.2750   25.8569 C.ar    1  UNL1        0.0961
     17 C          -7.5466  -15.2333   27.3326 C.3     1  UNL1        0.4348
     18 F          -6.7347  -14.3967   28.2765 F       1  UNL1       -0.1644
     19 F          -8.7849  -14.4913   27.7401 F       1  UNL1       -0.1644
     20 F          -6.3082  -15.9753   26.9250 F       1  UNL1       -0.1644
     21 C          -5.1604  -20.7754   20.2868 C.3     1  UNL1        0.0581
     22 C          -3.6444  -16.9773   22.9311 C.2     1  UNL1        0.1673
     23 C          -2.4169  -16.3269   22.3653 C.2     1  UNL1        0.2683
     24 N          -1.7943  -16.8637   21.1106 N.2     1  UNL1       -0.0278
     25 C          -2.3991  -18.0510   20.4218 C.2     1  UNL1        0.3719
     26 N          -2.0101  -18.7967   19.1798 N.2     1  UNL1       -0.0311
     27 C          -2.9971  -19.9080   18.9780 C.2     1  UNL1        0.2319
     28 C          -3.9962  -19.8492   20.0953 C.2     1  UNL1        0.0329
     29 C          -3.6266  -18.7014   20.9876 C.2     1  UNL1        0.0739
     30 C          -4.2492  -18.1646   22.2423 C.3     1  UNL1        0.1019
     31 C          -5.2194  -15.2838   24.1149 C.3     1  UNL1        0.2522
     32 O          -4.2670  -16.4405   24.1858 O.2     1  UNL1       -0.4715
@<TRIPOS>BOND
     1    31    32    1
     2    32    22    1
     3    22    23    2
     4    23    24    1
     5    24    25    2
     6    25    26    1
     7    26    27    2
     8    27    28    1
     9    28    21    1
    10    21     1    1
    11     1     2   ar
    12     2     3   ar
    13     3     4   ar
    14     4     8    1
    15     8    10    1
    16    10    11    1
    17    11    12   ar
    18    12    13   ar
    19    13    14   ar
    20    14    17    1
    21    17    18    1
    22    17    19    1
    23    17    20    1
    24    14    15   ar
    25    15    16   ar
    26     4     5   ar
    27     5     6    1
    28     5     7   ar
    29    28    29    2
    30    29    30    1
    31    30    22    1
    32    29    25    1
    33     7     1   ar
    34    16    11   ar
    35     8     9    1
@<TRIPOS>MOLECULE
*****
 32 35 0 0 0
SMALL
GASTEIGER

@<TRIPOS>ATOM
      1 C          -6.7593  -19.8501   21.1531 C.ar    1  UNL1        0.0038
      2 C          -7.6614  -19.1018   20.2171 C.ar    1  UNL1        0.0965
      3 N          -9.1089  -18.9122   20.5618 N.ar    1  UNL1       -0.2274
      4 C          -9.6544  -19.4710   21.8425 C.ar    1  UNL1        0.1564
      5 C          -8.7522  -20.2194   22.7785 C.ar    1  UNL1        0.1710
      6 F          -9.2976  -20.7782   24.0593 F       1  UNL1       -0.2012
      7 C          -7.3047  -20.4090   22.4338 C.ar    1  UNL1        0.0301
      8 N         -11.1018  -19.2814   22.1872 N.pl3   1  UNL1       -0.3126
      9 H         -11.7791  -19.8967   21.8238 H       1  UNL1        0.1486
     10 C         -11.5175  -18.1545   23.0857 C.3     1  UNL1        0.1170
     11 C         -10.5170  -17.5217   24.0069 C.ar    1  UNL1        0.0166
     12 C         -10.1719  -18.1835   25.3079 C.ar    1  UNL1        0.0004
     13 C          -9.1714  -17.5507   26.2292 C.ar    1  UNL1        0.0228
     14 C          -8.5161  -16.2560   25.8493 C.ar    1  UNL1        0.1526
     15 N          -8.8613  -15.5942   24.5482 N.ar    1  UNL1       -0.2401
     16 C          -9.8617  -16.2270   23.6270 C.ar    1  UNL1        0.0961
     17 C          -7.5156  -15.6233   26.7706 C.3     1  UNL1        0.4348
     18 F          -6.5152  -14.9905   27.6918 F       1  UNL1       -0.1644
     19 F          -8.5827  -15.4502   27.8105 F       1  UNL1       -0.1644
     20 F          -6.4486  -15.7963   25.7305 F       1  UNL1       -0.1644
     21 C          -5.3118  -20.0397   20.8084 C.3     1  UNL1        0.0581
     22 C          -1.4207  -17.8029   18.9184 C.2     1  UNL1        0.1673
     23 C          -0.6389  -17.0319   19.9404 C.2     1  UNL1        0.2683
     24 N          -1.0891  -17.0126   21.3711 N.2     1  UNL1       -0.0278
     25 C          -2.3211  -17.7643   21.7799 C.2     1  UNL1        0.3719
     26 N          -3.0032  -17.9283   23.1057 N.2     1  UNL1       -0.0311
     27 C          -4.2066  -18.8006   22.9031 C.2     1  UNL1        0.2319
     28 C          -4.2682  -19.1758   21.4522 C.2     1  UNL1        0.0329
     29 C          -3.1029  -18.5353   20.7579 C.2     1  UNL1        0.0739
     30 C          -2.6527  -18.5546   19.3272 C.3     1  UNL1        0.1019
     31 C          -1.9429  -17.5033   16.3911 C.3     1  UNL1        0.2522
     32 O          -0.9705  -17.8221   17.4877 O.2     1  UNL1       -0.4715
@<TRIPOS>BOND
     1    31    32    1
     2    32    22    1
     3    22    23    2
     4    23    24    1
     5    24    25    2
     6    25    26    1
     7    26    27    2
     8    27    28    1
     9    28    21    1
    10    21     1    1
    11     1     2   ar
    12     2     3   ar
    13     3     4   ar
    14     4     8    1
    15     8    10    1
    16    10    11    1
    17    11    12   ar
    18    12    13   ar
    19    13    14   ar
    20    14    17    1
    21    17    18    1
    22    17    19    1
    23    17    20    1
    24    14    15   ar
    25    15    16   ar
    26     4     5   ar
    27     5     6    1
    28     5     7   ar
    29    28    29    2
    30    29    30    1
    31    30    22    1
    32    29    25    1
    33     7     1   ar
    34    16    11   ar
    35     8     9    1
@<TRIPOS>MOLECULE
*****
 32 35 0 0 0
SMALL
GASTEIGER

@<TRIPOS>ATOM
      1 C         -10.1047  -17.6340   24.2369 C.ar    1  UNL1        0.0038
      2 C          -9.6507  -16.3404   23.6284 C.ar    1  UNL1        0.0965
      3 N          -8.7725  -15.4104   24.4118 N.ar    1  UNL1       -0.2274
      4 C          -8.3482  -15.7739   25.8039 C.ar    1  UNL1        0.1564
      5 C          -8.8023  -17.0676   26.4125 C.ar    1  UNL1        0.1710
      6 F          -8.3781  -17.4312   27.8045 F       1  UNL1       -0.2012
      7 C          -9.6805  -17.9977   25.6290 C.ar    1  UNL1        0.0301
      8 N          -7.4700  -14.8439   26.5873 N.pl3   1  UNL1       -0.3126
      9 H          -7.8510  -14.0315   26.9925 H       1  UNL1        0.1486
     10 C          -6.0114  -15.1515   26.7534 C.3     1  UNL1        0.1170
     11 C          -5.2387  -15.7568   25.6191 C.ar    1  UNL1        0.0166
     12 C          -4.4488  -17.0134   25.8358 C.ar    1  UNL1        0.0004
     13 C          -3.6761  -17.6186   24.7015 C.ar    1  UNL1        0.0228
     14 C          -3.6933  -16.9672   23.3504 C.ar    1  UNL1        0.1526
     15 N          -4.4832  -15.7105   23.1337 N.ar    1  UNL1       -0.2401
     16 C          -5.2558  -15.1054   24.2680 C.ar    1  UNL1        0.0961
     17 C          -2.9206  -17.5724   22.2161 C.3     1  UNL1        0.4348
     18 F          -2.1479  -18.1777   21.0818 F       1  UNL1       -0.1644
     19 F          -3.2762  -18.9448   22.7061 F       1  UNL1       -0.1644
     20 F          -2.5651  -16.2000   21.7261 F       1  UNL1       -0.1644
     21 C         -10.9829  -18.5640   23.4535 C.3     1  UNL1        0.0581
     22 C          -7.1408  -19.8559   20.7543 C.2     1  UNL1        0.1673
     23 C          -7.4272  -19.8266   19.2822 C.2     1  UNL1        0.2683
     24 N          -8.7869  -19.4274   18.7905 N.2     1  UNL1       -0.0278
     25 C          -9.8602  -19.0575   19.7709 C.2     1  UNL1        0.3719
     26 N         -11.2847  -18.6261   19.5843 N.2     1  UNL1       -0.0311
     27 C         -11.8786  -18.3887   20.9411 C.2     1  UNL1        0.2319
     28 C         -10.8212  -18.6734   21.9662 C.2     1  UNL1        0.0329
     29 C          -9.5738  -19.0867   21.2429 C.2     1  UNL1        0.0739
     30 C          -8.2141  -19.4859   21.7346 C.3     1  UNL1        0.1019
     31 C          -4.6772  -20.5207   20.2658 C.3     1  UNL1        0.2522
     32 O          -5.7810  -20.2551   21.2460 O.2     1  UNL1       -0.4715
@<TRIPOS>BOND
     1    31    32    1
     2    32    22    1
     3    22    23    2
     4    23    24    1
     5    24    25    2
     6    25    26    1
     7    26    27    2
     8    27    28    1
     9    28    21    1
    10    21     1    1
    11     1     2   ar
    12     2     3   ar
    13     3     4   ar
    14     4     8    1
    15     8    10    1
    16    10    11    1
    17    11    12   ar
    18    12    13   ar
    19    13    14   ar
    20    14    17    1
    21    17    18    1
    22    17    19    1
    23    17    20    1
    24    14    15   ar
    25    15    16   ar
    26     4     5   ar
    27     5     6    1
    28     5     7   ar
    29    28    29    2
    30    29    30    1
    31    30    22    1
    32    29    25    1
    33     7     1   ar
    34    16    11   ar
    35     8     9    1
@<TRIPOS>MOLECULE
*****
 32 35 0 0 0
SMALL
GASTEIGER

@<TRIPOS>ATOM
      1 C          -9.1290  -15.9394   23.9007 C.ar    1  UNL1        0.0038
      2 C          -8.1289  -15.7815   22.7940 C.ar    1  UNL1        0.0965
      3 N          -6.6613  -15.7801   23.1039 N.ar    1  UNL1       -0.2274
      4 C          -6.1937  -15.9365   24.5206 C.ar    1  UNL1        0.1564
      5 C          -7.1939  -16.0944   25.6273 C.ar    1  UNL1        0.1710
      6 F          -6.7264  -16.2509   27.0440 F       1  UNL1       -0.2012
      7 C          -8.6616  -16.0958   25.3174 C.ar    1  UNL1        0.0301
      8 N          -4.7261  -15.9351   24.8305 N.pl3   1  UNL1       -0.3126
      9 H          -4.3170  -15.1562   25.2723 H       1  UNL1        0.1486
     10 C          -3.8818  -17.1205   24.4674 C.3     1  UNL1        0.1170
     11 C          -3.3741  -17.2782   23.0648 C.ar    1  UNL1        0.0166
     12 C          -3.3973  -18.6255   22.4057 C.ar    1  UNL1        0.0004
     13 C          -2.8896  -18.7832   21.0031 C.ar    1  UNL1        0.0228
     14 C          -2.3587  -17.5936   20.2594 C.ar    1  UNL1        0.1526
     15 N          -2.3355  -16.2463   20.9185 N.ar    1  UNL1       -0.2401
     16 C          -2.8431  -16.0887   22.3211 C.ar    1  UNL1        0.0961
     17 C          -1.8510  -17.7513   18.8568 C.3     1  UNL1        0.4348
     18 F          -1.3433  -17.9090   17.4542 F       1  UNL1       -0.1644
     19 F          -0.6387  -18.4661   19.3760 F       1  UNL1       -0.1644
     20 F          -3.0634  -17.0365   18.3377 F       1  UNL1       -0.1644
     21 C         -10.5967  -15.9408   23.5908 C.3     1  UNL1        0.0581
     22 C          -8.5250  -19.2324   20.6600 C.2     1  UNL1        0.1673
     23 C          -9.3950  -19.6051   19.4963 C.2     1  UNL1        0.2683
     24 N         -10.7468  -18.9747   19.3383 N.2     1  UNL1       -0.0278
     25 C         -11.2288  -17.9716   20.3440 C.2     1  UNL1        0.3719
     26 N         -12.5045  -17.1898   20.4498 N.2     1  UNL1       -0.0311
     27 C         -12.4230  -16.3339   21.6790 C.2     1  UNL1        0.2319
     28 C         -11.0969  -16.5867   22.3328 C.2     1  UNL1        0.0329
     29 C         -10.3588  -17.5989   21.5076 C.2     1  UNL1        0.0739
     30 C          -9.0069  -18.2293   21.6656 C.3     1  UNL1        0.1019
     31 C          -6.7020  -20.2973   22.1741 C.3     1  UNL1        0.2522
     32 O          -7.1731  -19.8628   20.8180 O.2     1  UNL1       -0.4715
@<TRIPOS>BOND
     1    31    32    1
     2    32    22    1
     3    22    23    2
     4    23    24    1
     5    24    25    2
     6    25    26    1
     7    26    27    2
     8    27    28    1
     9    28    21    1
    10    21     1    1
    11     1     2   ar
    12     2     3   ar
    13     3     4   ar
    14     4     8    1
    15     8    10    1
    16    10    11    1
    17    11    12   ar
    18    12    13   ar
    19    13    14   ar
    20    14    17    1
    21    17    18    1
    22    17    19    1
    23    17    20    1
    24    14    15   ar
    25    15    16   ar
    26     4     5   ar
    27     5     6    1
    28     5     7   ar
    29    28    29    2
    30    29    30    1
    31    30    22    1
    32    29    25    1
    33     7     1   ar
    34    16    11   ar
    35     8     9    1
@<TRIPOS>MOLECULE
*****
 32 35 0 0 0
SMALL
GASTEIGER

@<TRIPOS>ATOM
      1 C          -9.7912  -16.5083   23.4528 C.ar    1  UNL1        0.0038
      2 C          -9.5359  -17.9412   23.8154 C.ar    1  UNL1        0.0965
      3 N          -9.7275  -19.0198   22.7907 N.ar    1  UNL1       -0.2274
      4 C         -10.1744  -18.6654   21.4034 C.ar    1  UNL1        0.1564
      5 C         -10.4296  -17.2324   21.0407 C.ar    1  UNL1        0.1710
      6 F         -10.8764  -16.8781   19.6534 F       1  UNL1       -0.2012
      7 C         -10.2380  -16.1538   22.0654 C.ar    1  UNL1        0.0301
      8 N         -10.3659  -19.7440   20.3787 N.pl3   1  UNL1       -0.3126
      9 H         -11.1889  -20.2844   20.3808 H       1  UNL1        0.1486
     10 C          -9.3037  -19.9993   19.3509 C.3     1  UNL1        0.1170
     11 C          -7.8566  -19.9708   19.7449 C.ar    1  UNL1        0.0166
     12 C          -7.0528  -21.2372   19.7398 C.ar    1  UNL1        0.0004
     13 C          -5.6058  -21.2088   20.1338 C.ar    1  UNL1        0.0228
     14 C          -4.9625  -19.9138   20.5329 C.ar    1  UNL1        0.1526
     15 N          -5.7663  -18.6473   20.5380 N.ar    1  UNL1       -0.2401
     16 C          -7.2133  -18.6759   20.1440 C.ar    1  UNL1        0.0961
     17 C          -3.5154  -19.8854   20.9269 C.3     1  UNL1        0.4348
     18 F          -2.0684  -19.8569   21.3209 F       1  UNL1       -0.1644
     19 F          -3.9092  -19.8979   22.3742 F       1  UNL1       -0.1644
     20 F          -3.1217  -19.8728   19.4795 F       1  UNL1       -0.1644
     21 C          -9.5996  -15.4297   24.4774 C.3     1  UNL1        0.0581
     22 C          -4.8800  -16.4494   23.8434 C.2     1  UNL1        0.1673
     23 C          -4.1043  -16.4377   25.1272 C.2     1  UNL1        0.2683
     24 N          -4.7995  -16.1324   26.4208 N.2     1  UNL1       -0.0278
     25 C          -6.2705  -15.8389   26.4306 C.2     1  UNL1        0.3719
     26 N          -7.2202  -15.5065   27.5431 N.2     1  UNL1       -0.0311
     27 C          -8.5829  -15.3127   26.9468 C.2     1  UNL1        0.2319
     28 C          -8.4754  -15.5254   25.4659 C.2     1  UNL1        0.0329
     29 C          -7.0462  -15.8506   25.1469 C.2     1  UNL1        0.0739
     30 C          -6.3509  -16.1558   23.8533 C.3     1  UNL1        0.1019
     31 C          -2.6943  -16.6192   22.4492 C.3     1  UNL1        0.2522
     32 O          -4.1848  -16.7546   22.5498 O.2     1  UNL1       -0.4715
@<TRIPOS>BOND
     1    31    32    1
     2    32    22    1
     3    22    23    2
     4    23    24    1
     5    24    25    2
     6    25    26    1
     7    26    27    2
     8    27    28    1
     9    28    21    1
    10    21     1    1
    11     1     2   ar
    12     2     3   ar
    13     3     4   ar
    14     4     8    1
    15     8    10    1
    16    10    11    1
    17    11    12   ar
    18    12    13   ar
    19    13    14   ar
    20    14    17    1
    21    17    18    1
    22    17    19    1
    23    17    20    1
    24    14    15   ar
    25    15    16   ar
    26     4     5   ar
    27     5     6    1
    28     5     7   ar
    29    28    29    2
    30    29    30    1
    31    30    22    1
    32    29    25    1
    33     7     1   ar
    34    16    11   ar
    35     8     9    1
@<TRIPOS>MOLECULE
*****
 32 35 0 0 0
SMALL
GASTEIGER

@<TRIPOS>ATOM
      1 C         -11.6163   -3.1225   18.7252 C.ar    1  UNL1        0.0038
      2 C         -10.8139   -3.8055   17.6578 C.ar    1  UNL1        0.0965
      3 N         -11.0008   -5.2716   17.4014 N.ar    1  UNL1       -0.2274
      4 C         -11.9902   -6.0547   18.2126 C.ar    1  UNL1        0.1564
      5 C         -12.7927   -5.3715   19.2801 C.ar    1  UNL1        0.1710
      6 F         -13.7820   -6.1546   20.0912 F       1  UNL1       -0.2012
      7 C         -12.6058   -3.9055   19.5364 C.ar    1  UNL1        0.0301
      8 N         -12.1771   -7.5207   17.9563 N.pl3   1  UNL1       -0.3126
      9 H         -11.5497   -8.1723   18.3449 H       1  UNL1        0.1486
     10 C         -13.3200   -7.9940   17.1079 C.3     1  UNL1        0.1170
     11 C         -14.6552   -8.2684   17.7337 C.ar    1  UNL1        0.0166
     12 C         -15.8017   -7.3307   17.4965 C.ar    1  UNL1        0.0004
     13 C         -17.1370   -7.6051   18.1224 C.ar    1  UNL1        0.0228
     14 C         -17.3259   -8.8173   18.9855 C.ar    1  UNL1        0.1526
     15 N         -16.1794   -9.7550   19.2227 N.ar    1  UNL1       -0.2401
     16 C         -14.8442   -9.4806   18.5968 C.ar    1  UNL1        0.0961
     17 C         -18.6612   -9.0917   19.6113 C.3     1  UNL1        0.4348
     18 F         -19.9965   -9.3660   20.2371 F       1  UNL1       -0.1644
     19 F         -19.0142   -9.9909   18.4638 F       1  UNL1       -0.1644
     20 F         -18.3081   -8.1923   20.7588 F       1  UNL1       -0.1644
     21 C         -11.4294   -1.6564   18.9815 C.3     1  UNL1        0.0581
     22 C         -16.1382   -0.4251   19.1475 C.2     1  UNL1        0.1673
     23 C         -16.4954    0.6449   18.1589 C.2     1  UNL1        0.2683
     24 N         -15.4413    1.2138   17.2559 N.2     1  UNL1       -0.0278
     25 C         -14.0301    0.7127   17.3416 C.2     1  UNL1        0.3719
     26 N         -12.7868    1.0806   16.5874 N.2     1  UNL1       -0.0311
     27 C         -11.6613    0.2379   17.1099 C.2     1  UNL1        0.2319
     28 C         -12.2089   -0.6508   18.1870 C.2     1  UNL1        0.0329
     29 C         -13.6730   -0.3573   18.3302 C.2     1  UNL1        0.0739
     30 C         -14.7270   -0.9262   19.2332 C.3     1  UNL1        0.1019
     31 C         -17.7634   -2.3531   19.7734 C.3     1  UNL1        0.2522
     32 O         -17.1923   -0.9941   20.0504 O.2     1  UNL1       -0.4715
@<TRIPOS>BOND
     1    31    32    1
     2    32    22    1
     3    22    23    2
     4    23    24    1
     5    24    25    2
     6    25    26    1
     7    26    27    2
     8    27    28    1
     9    28    21    1
    10    21     1    1
    11     1     2   ar
    12     2     3   ar
    13     3     4   ar
    14     4     8    1
    15     8    10    1
    16    10    11    1
    17    11    12   ar
    18    12    13   ar
    19    13    14   ar
    20    14    17    1
    21    17    18    1
    22    17    19    1
    23    17    20    1
    24    14    15   ar
    25    15    16   ar
    26     4     5   ar
    27     5     6    1
    28     5     7   ar
    29    28    29    2
    30    29    30    1
    31    30    22    1
    32    29    25    1
    33     7     1   ar
    34    16    11   ar
    35     8     9    1
@<TRIPOS>MOLECULE
*****
 32 35 0 0 0
SMALL
GASTEIGER

@<TRIPOS>ATOM
      1 C           5.7494   -0.1040   33.6924 C.ar    1  UNL1        0.0038
      2 C           6.9060   -0.4630   32.8074 C.ar    1  UNL1        0.0965
      3 N           7.0175   -1.8487   32.2440 N.ar    1  UNL1       -0.2274
      4 C           5.9723   -2.8754   32.5656 C.ar    1  UNL1        0.1564
      5 C           4.8156   -2.5163   33.4506 C.ar    1  UNL1        0.1710
      6 F           3.7703   -3.5430   33.7721 F       1  UNL1       -0.2012
      7 C           4.7041   -1.1306   34.0140 C.ar    1  UNL1        0.0301
      8 N           6.0837   -4.2611   32.0021 N.pl3   1  UNL1       -0.3126
      9 H           5.2943   -4.8491   31.9815 H       1  UNL1        0.1486
     10 C           7.3979   -4.7509   31.4701 C.3     1  UNL1        0.1170
     11 C           7.4685   -5.3822   30.1112 C.ar    1  UNL1        0.0166
     12 C           8.4412   -6.4938   29.8502 C.ar    1  UNL1        0.0004
     13 C           8.5118   -7.1250   28.4914 C.ar    1  UNL1        0.0228
     14 C           7.6097   -6.6447   27.3934 C.ar    1  UNL1        0.1526
     15 N           6.6369   -5.5330   27.6545 N.ar    1  UNL1       -0.2401
     16 C           6.5664   -4.9018   29.0133 C.ar    1  UNL1        0.0961
     17 C           7.6803   -7.2759   26.0346 C.3     1  UNL1        0.4348
     18 F           7.7509   -7.9072   24.6757 F       1  UNL1       -0.1644
     19 F           8.2858   -8.5082   26.6385 F       1  UNL1       -0.1644
     20 F           7.0747   -6.0435   25.4307 F       1  UNL1       -0.1644
     21 C           5.6380    1.2817   34.2558 C.3     1  UNL1        0.0581
     22 C           4.0379    2.3480   38.7301 C.2     1  UNL1        0.1673
     23 C           2.6209    2.8398   38.7398 C.2     1  UNL1        0.2683
     24 N           1.8587    2.9565   37.4531 N.2     1  UNL1       -0.0278
     25 C           2.5135    2.5813   36.1568 C.2     1  UNL1        0.3719
     26 N           2.0166    2.5914   34.7416 N.2     1  UNL1       -0.0311
     27 C           3.1266    2.1058   33.8571 C.2     1  UNL1        0.2319
     28 C           4.3094    1.7956   34.7258 C.2     1  UNL1        0.0329
     29 C           3.9305    2.0895   36.1472 C.2     1  UNL1        0.0739
     30 C           4.6927    1.9728   37.4338 C.3     1  UNL1        0.1019
     31 C           6.0134    3.0820   40.2495 C.3     1  UNL1        0.2522
     32 O           4.8001    2.2313   40.0167 O.2     1  UNL1       -0.4715
@<TRIPOS>BOND
     1    31    32    1
     2    32    22    1
     3    22    23    2
     4    23    24    1
     5    24    25    2
     6    25    26    1
     7    26    27    2
     8    27    28    1
     9    28    21    1
    10    21     1    1
    11     1     2   ar
    12     2     3   ar
    13     3     4   ar
    14     4     8    1
    15     8    10    1
    16    10    11    1
    17    11    12   ar
    18    12    13   ar
    19    13    14   ar
    20    14    17    1
    21    17    18    1
    22    17    19    1
    23    17    20    1
    24    14    15   ar
    25    15    16   ar
    26     4     5   ar
    27     5     6    1
    28     5     7   ar
    29    28    29    2
    30    29    30    1
    31    30    22    1
    32    29    25    1
    33     7     1   ar
    34    16    11   ar
    35     8     9    1
@<TRIPOS>MOLECULE
*****
 32 35 0 0 0
SMALL
GASTEIGER

@<TRIPOS>ATOM
      1 C          -4.3101    3.5303   19.6529 C.ar    1  UNL1        0.0038
      2 C          -3.7133    4.0917   18.3965 C.ar    1  UNL1        0.0965
      3 N          -2.2232    4.1660   18.2419 N.ar    1  UNL1       -0.2274
      4 C          -1.3297    3.6787   19.3439 C.ar    1  UNL1        0.1564
      5 C          -1.9265    3.1173   20.6004 C.ar    1  UNL1        0.1710
      6 F          -1.0330    2.6301   21.7023 F       1  UNL1       -0.2012
      7 C          -3.4166    3.0430   20.7549 C.ar    1  UNL1        0.0301
      8 N           0.1605    3.7530   19.1894 N.pl3   1  UNL1       -0.3126
      9 H           0.6797    4.3943   19.7264 H       1  UNL1        0.1486
     10 C           0.8595    2.8501   18.2167 C.3     1  UNL1        0.1170
     11 C           1.4836    1.5725   18.6945 C.ar    1  UNL1        0.0166
     12 C           2.9030    1.2499   18.3326 C.ar    1  UNL1        0.0004
     13 C           3.5271   -0.0277   18.8104 C.ar    1  UNL1        0.0228
     14 C           2.7317   -0.9827   19.6502 C.ar    1  UNL1        0.1526
     15 N           1.3121   -0.6600   20.0121 N.ar    1  UNL1       -0.2401
     16 C           0.6882    0.6175   19.5343 C.ar    1  UNL1        0.0961
     17 C           3.3557   -2.2603   20.1280 C.3     1  UNL1        0.4348
     18 F           3.9798   -3.5379   20.6059 F       1  UNL1       -0.1644
     19 F           3.4987   -2.7216   18.7079 F       1  UNL1       -0.1644
     20 F           3.2127   -1.7989   21.5482 F       1  UNL1       -0.1644
     21 C          -5.8002    3.4561   19.8074 C.3     1  UNL1        0.0581
     22 C          -5.9076    4.3019   24.6021 C.2     1  UNL1        0.1673
     23 C          -6.7766    5.4684   24.9682 C.2     1  UNL1        0.2683
     24 N          -7.4969    6.2323   23.8970 N.2     1  UNL1       -0.0278
     25 C          -7.3483    5.8297   22.4597 C.2     1  UNL1        0.3719
     26 N          -7.9308    6.3885   21.1954 N.2     1  UNL1       -0.0311
     27 C          -7.4218    5.5674   20.0480 C.2     1  UNL1        0.2319
     28 C          -6.5247    4.5010   20.6031 C.2     1  UNL1        0.0329
     29 C          -6.4793    4.6632   22.0937 C.2     1  UNL1        0.0739
     30 C          -5.7590    3.8993   23.1649 C.3     1  UNL1        0.1019
     31 C          -4.4668    4.2738   26.7639 C.3     1  UNL1        0.2522
     32 O          -5.1872    3.5379   25.6733 O.2     1  UNL1       -0.4715
@<TRIPOS>BOND
     1    31    32    1
     2    32    22    1
     3    22    23    2
     4    23    24    1
     5    24    25    2
     6    25    26    1
     7    26    27    2
     8    27    28    1
     9    28    21    1
    10    21     1    1
    11     1     2   ar
    12     2     3   ar
    13     3     4   ar
    14     4     8    1
    15     8    10    1
    16    10    11    1
    17    11    12   ar
    18    12    13   ar
    19    13    14   ar
    20    14    17    1
    21    17    18    1
    22    17    19    1
    23    17    20    1
    24    14    15   ar
    25    15    16   ar
    26     4     5   ar
    27     5     6    1
    28     5     7   ar
    29    28    29    2
    30    29    30    1
    31    30    22    1
    32    29    25    1
    33     7     1   ar
    34    16    11   ar
    35     8     9    1
@<TRIPOS>MOLECULE
*****
 32 35 0 0 0
SMALL
GASTEIGER

@<TRIPOS>ATOM
      1 C           6.9237   -3.1888   21.4257 C.ar    1  UNL1        0.0038
      2 C           7.3490   -2.1447   20.4363 C.ar    1  UNL1        0.0965
      3 N           6.4692   -1.8174   19.2663 N.ar    1  UNL1       -0.2274
      4 C           5.1640   -2.5343   19.0857 C.ar    1  UNL1        0.1564
      5 C           4.7387   -3.5785   20.0752 C.ar    1  UNL1        0.1710
      6 F           3.4335   -4.2953   19.8946 F       1  UNL1       -0.2012
      7 C           5.6185   -3.9057   21.2451 C.ar    1  UNL1        0.0301
      8 N           4.2842   -2.2070   17.9158 N.pl3   1  UNL1       -0.3126
      9 H           3.9472   -2.9281   17.3363 H       1  UNL1        0.1486
     10 C           3.9177   -0.7811   17.6287 C.3     1  UNL1        0.1170
     11 C           2.8828   -0.0896   18.4657 C.ar    1  UNL1        0.0166
     12 C           2.0979   -0.8662   19.4809 C.ar    1  UNL1        0.0004
     13 C           1.0629   -0.1747   20.3180 C.ar    1  UNL1        0.0228
     14 C           0.8128    1.2935   20.1399 C.ar    1  UNL1        0.1526
     15 N           1.5978    2.0702   19.1246 N.ar    1  UNL1       -0.2401
     16 C           2.6327    1.3787   18.2876 C.ar    1  UNL1        0.0961
     17 C          -0.2221    1.9850   20.9769 C.3     1  UNL1        0.4348
     18 F          -1.2571    2.6765   21.8140 F       1  UNL1       -0.1644
     19 F           0.1711    1.1458   22.1564 F       1  UNL1       -0.1644
     20 F          -0.6153    2.8243   19.7974 F       1  UNL1       -0.1644
     21 C           7.8035   -3.5161   22.5956 C.3     1  UNL1        0.0581
     22 C           6.7341   -5.9759   26.6603 C.2     1  UNL1        0.1673
     23 C           7.1712   -7.4097   26.6051 C.2     1  UNL1        0.2683
     24 N           7.8586   -7.9376   25.3809 N.2     1  UNL1       -0.0278
     25 C           8.1091   -7.0317   24.2119 C.2     1  UNL1        0.3719
     26 N           8.7591   -7.2672   22.8808 N.2     1  UNL1       -0.0311
     27 C           8.7238   -5.9789   22.1132 C.2     1  UNL1        0.2319
     28 C           8.0519   -4.9472   22.9701 C.2     1  UNL1        0.0329
     29 C           7.6720   -5.5979   24.2671 C.2     1  UNL1        0.0739
     30 C           6.9845   -5.0700   25.4913 C.3     1  UNL1        0.1019
     31 C           6.7655   -5.4334   29.2009 C.3     1  UNL1        0.2522
     32 O           6.0466   -5.4480   27.8845 O.2     1  UNL1       -0.4715
@<TRIPOS>BOND
     1    31    32    1
     2    32    22    1
     3    22    23    2
     4    23    24    1
     5    24    25    2
     6    25    26    1
     7    26    27    2
     8    27    28    1
     9    28    21    1
    10    21     1    1
    11     1     2   ar
    12     2     3   ar
    13     3     4   ar
    14     4     8    1
    15     8    10    1
    16    10    11    1
    17    11    12   ar
    18    12    13   ar
    19    13    14   ar
    20    14    17    1
    21    17    18    1
    22    17    19    1
    23    17    20    1
    24    14    15   ar
    25    15    16   ar
    26     4     5   ar
    27     5     6    1
    28     5     7   ar
    29    28    29    2
    30    29    30    1
    31    30    22    1
    32    29    25    1
    33     7     1   ar
    34    16    11   ar
    35     8     9    1
