@<TRIPOS>MOLECULE
*****
 30 32 0 0 0
SMALL
GASTEIGER

@<TRIPOS>ATOM
      1 C          -3.9077  -18.2186   22.5936 C.ar    1  UNL1        0.1344
      2 C          -3.9725  -16.9924   23.4551 C.ar    1  UNL1        0.0310
      3 C          -5.3027  -16.4202   23.8464 C.ar    1  UNL1       -0.0067
      4 C          -5.3675  -15.1940   24.7080 C.3     1  UNL1        0.0319
      5 C          -6.5681  -17.0742   23.3763 C.ar    1  UNL1        0.0959
      6 C          -6.5033  -18.3004   22.5147 C.ar    1  UNL1        0.1393
      7 N          -5.1731  -18.8726   22.1234 N.ar    1  UNL1       -0.2154
      8 N          -2.5775  -18.7909   22.2022 N.pl3   1  UNL1       -0.2819
      9 H          -2.0988  -19.3904   22.8193 H       1  UNL1        0.1551
     10 C          -2.0564  -17.3582   17.1469 C.3     1  UNL1        0.0515
     11 C          -1.7372  -17.7913   18.5472 C.ar    1  UNL1        0.0548
     12 C          -2.7318  -18.0331   19.6436 C.ar    1  UNL1        0.0502
     13 C          -1.9767  -18.4498   20.8708 C.ar    1  UNL1        0.1539
     14 N          -0.5154  -18.4656   20.5329 N.ar    1  UNL1       -0.1577
     15 N          -0.3673  -18.0586   19.0968 N.ar    1  UNL1       -0.2786
     16 H           0.4802  -17.9806   18.6018 H       1  UNL1        0.1886
     17 C          -7.8983  -16.5019   23.7676 C.1     1  UNL1        0.1029
     18 N          -9.2284  -15.9297   24.1589 N.1     1  UNL1       -0.1907
     19 N          -7.7687  -18.9543   22.0446 N.pl3   1  UNL1       -0.3145
     20 H          -8.2437  -18.5993   21.2587 H       1  UNL1        0.1483
     21 C          -8.3104  -20.1493   22.7716 C.3     1  UNL1        0.1362
     22 C          -9.6279  -20.0606   23.4831 C.3     1  UNL1        0.2266
     23 O         -10.9058  -20.0580   22.6975 O.3     1  UNL1       -0.4724
     24 C         -11.4062  -18.7842   22.0835 C.ar    1  UNL1        0.1521
     25 C         -12.1081  -17.7670   22.9337 C.ar    1  UNL1        0.0397
     26 C         -12.6085  -16.4931   22.3198 C.ar    1  UNL1        0.0238
     27 C         -12.4069  -16.2365   20.8556 C.ar    1  UNL1        0.0987
     28 N         -11.7050  -17.2537   20.0055 N.ar    1  UNL1       -0.2451
     29 C         -11.2047  -18.5275   20.6195 C.ar    1  UNL1        0.0932
     30 C         -10.5028  -19.5447   19.7693 C.3     1  UNL1        0.0553
@<TRIPOS>BOND
     1    10    11    1
     2    11    12   ar
     3    12    13   ar
     4    13     8    1
     5     8     1    1
     6     1     2   ar
     7     2     3   ar
     8     3     4    1
     9     3     5   ar
    10     5    17    1
    11    17    18    3
    12     5     6   ar
    13     6    19    1
    14    19    21    1
    15    21    22    1
    16    22    23    1
    17    23    24    1
    18    24    25   ar
    19    25    26   ar
    20    26    27   ar
    21    27    28   ar
    22    28    29   ar
    23    29    30    1
    24     6     7   ar
    25    13    14   ar
    26    14    15   ar
    27    15    11   ar
    28     7     1   ar
    29    29    24   ar
    30     8     9    1
    31    19    20    1
    32    15    16    1
@<TRIPOS>MOLECULE
*****
 30 32 0 0 0
SMALL
GASTEIGER

@<TRIPOS>ATOM
      1 C          -4.0820  -18.3816   22.3960 C.ar    1  UNL1        0.1344
      2 C          -4.0429  -17.2899   23.4238 C.ar    1  UNL1        0.0310
      3 C          -5.3144  -16.6234   23.8586 C.ar    1  UNL1       -0.0067
      4 C          -5.2753  -15.5316   24.8866 C.3     1  UNL1        0.0319
      5 C          -6.6249  -17.0486   23.2656 C.ar    1  UNL1        0.0959
      6 C          -6.6640  -18.1403   22.2377 C.ar    1  UNL1        0.1393
      7 N          -5.3925  -18.8068   21.8029 N.ar    1  UNL1       -0.2154
      8 N          -2.8105  -19.0482   21.9611 N.pl3   1  UNL1       -0.2819
      9 H          -2.4327  -19.7839   22.4953 H       1  UNL1        0.1551
     10 C          -1.9225  -17.3786   17.0312 C.3     1  UNL1        0.0515
     11 C          -1.7064  -17.8265   18.4464 C.ar    1  UNL1        0.0548
     12 C          -2.7778  -18.2163   19.4211 C.ar    1  UNL1        0.0502
     13 C          -2.1146  -18.5939   20.7124 C.ar    1  UNL1        0.1539
     14 N          -0.6332  -18.4375   20.5357 N.ar    1  UNL1       -0.1577
     15 N          -0.3809  -17.9632   19.1352 N.ar    1  UNL1       -0.2786
     16 H           0.4999  -17.7747   18.7379 H       1  UNL1        0.1886
     17 C          -7.8964  -16.3820   23.7005 C.1     1  UNL1        0.1029
     18 N          -9.1678  -15.7155   24.1353 N.1     1  UNL1       -0.1907
     19 N          -7.9745  -18.5655   21.6447 N.pl3   1  UNL1       -0.3145
     20 H          -8.8150  -18.3752   22.1206 H       1  UNL1        0.1483
     21 C          -8.0044  -19.2806   20.3265 C.3     1  UNL1        0.1362
     22 C          -9.3177  -19.6539   19.7053 C.3     1  UNL1        0.2266
     23 O         -10.3791  -18.6117   19.5121 O.3     1  UNL1       -0.4724
     24 C         -11.1654  -18.1149   20.6889 C.ar    1  UNL1        0.1521
     25 C         -11.3892  -19.0086   21.8727 C.ar    1  UNL1        0.0397
     26 C         -12.1755  -18.5119   23.0495 C.ar    1  UNL1        0.0238
     27 C         -12.7381  -17.1213   23.0425 C.ar    1  UNL1        0.0987
     28 N         -12.5144  -16.2277   21.8588 N.ar    1  UNL1       -0.2451
     29 C         -11.7280  -16.7244   20.6820 C.ar    1  UNL1        0.0932
     30 C         -11.5043  -15.8307   19.4982 C.3     1  UNL1        0.0553
@<TRIPOS>BOND
     1    10    11    1
     2    11    12   ar
     3    12    13   ar
     4    13     8    1
     5     8     1    1
     6     1     2   ar
     7     2     3   ar
     8     3     4    1
     9     3     5   ar
    10     5    17    1
    11    17    18    3
    12     5     6   ar
    13     6    19    1
    14    19    21    1
    15    21    22    1
    16    22    23    1
    17    23    24    1
    18    24    25   ar
    19    25    26   ar
    20    26    27   ar
    21    27    28   ar
    22    28    29   ar
    23    29    30    1
    24     6     7   ar
    25    13    14   ar
    26    14    15   ar
    27    15    11   ar
    28     7     1   ar
    29    29    24   ar
    30     8     9    1
    31    19    20    1
    32    15    16    1
@<TRIPOS>MOLECULE
*****
 30 32 0 0 0
SMALL
GASTEIGER

@<TRIPOS>ATOM
      1 C          -4.4076  -16.5638   23.2458 C.ar    1  UNL1        0.1344
      2 C          -3.0792  -16.6575   22.5555 C.ar    1  UNL1        0.0310
      3 C          -2.7683  -17.8384   21.6844 C.ar    1  UNL1       -0.0067
      4 C          -1.4398  -17.9320   20.9941 C.3     1  UNL1        0.0319
      5 C          -3.7857  -18.9256   21.5037 C.ar    1  UNL1        0.0959
      6 C          -5.1141  -18.8320   22.1940 C.ar    1  UNL1        0.1393
      7 N          -5.4251  -17.6511   23.0651 N.ar    1  UNL1       -0.2154
      8 N          -4.7186  -15.3829   24.1169 N.pl3   1  UNL1       -0.2819
      9 H          -4.0393  -14.6850   24.2610 H       1  UNL1        0.1551
     10 C          -8.5678  -15.4113   27.7312 C.3     1  UNL1        0.0515
     11 C          -7.8338  -15.2784   26.4298 C.ar    1  UNL1        0.0548
     12 C          -6.3672  -15.5101   26.2171 C.ar    1  UNL1        0.0502
     13 C          -6.0645  -15.2653   24.7685 C.ar    1  UNL1        0.1539
     14 N          -7.3441  -14.8823   24.0859 N.ar    1  UNL1       -0.1577
     15 N          -8.4377  -14.8904   25.1126 N.ar    1  UNL1       -0.2786
     16 H          -9.3853  -14.6783   24.9504 H       1  UNL1        0.1886
     17 C          -3.4747  -20.1065   20.6326 C.1     1  UNL1        0.1029
     18 N          -3.1637  -21.2874   19.7616 N.1     1  UNL1       -0.1907
     19 N          -6.1316  -19.9192   22.0133 N.pl3   1  UNL1       -0.3145
     20 H          -5.8617  -20.8631   22.0872 H       1  UNL1        0.1483
     21 C          -7.5601  -19.5684   21.7200 C.3     1  UNL1        0.1362
     22 C          -8.5888  -19.6398   22.8093 C.3     1  UNL1        0.2266
     23 O         -10.0356  -19.8325   22.4631 O.3     1  UNL1       -0.4724
     24 C         -10.8508  -18.6720   21.9744 C.ar    1  UNL1        0.1521
     25 C         -11.4860  -17.7345   22.9582 C.ar    1  UNL1        0.0397
     26 C         -12.3012  -16.5741   22.4695 C.ar    1  UNL1        0.0238
     27 C         -12.4812  -16.3511   20.9971 C.ar    1  UNL1        0.0987
     28 N         -11.8460  -17.2885   20.0134 N.ar    1  UNL1       -0.2451
     29 C         -11.0308  -18.4490   20.5021 C.ar    1  UNL1        0.0932
     30 C         -10.3956  -19.3865   19.5183 C.3     1  UNL1        0.0553
@<TRIPOS>BOND
     1    10    11    1
     2    11    12   ar
     3    12    13   ar
     4    13     8    1
     5     8     1    1
     6     1     2   ar
     7     2     3   ar
     8     3     4    1
     9     3     5   ar
    10     5    17    1
    11    17    18    3
    12     5     6   ar
    13     6    19    1
    14    19    21    1
    15    21    22    1
    16    22    23    1
    17    23    24    1
    18    24    25   ar
    19    25    26   ar
    20    26    27   ar
    21    27    28   ar
    22    28    29   ar
    23    29    30    1
    24     6     7   ar
    25    13    14   ar
    26    14    15   ar
    27    15    11   ar
    28     7     1   ar
    29    29    24   ar
    30     8     9    1
    31    19    20    1
    32    15    16    1
@<TRIPOS>MOLECULE
*****
 30 32 0 0 0
SMALL
GASTEIGER

@<TRIPOS>ATOM
      1 C         -16.2703   -5.2309   19.6610 C.ar    1  UNL1        0.1344
      2 C         -17.6133   -5.8671   19.8645 C.ar    1  UNL1        0.0310
      3 C         -17.7706   -7.3513   19.7145 C.ar    1  UNL1       -0.0067
      4 C         -19.1137   -7.9875   19.9181 C.3     1  UNL1        0.0319
      5 C         -16.5848   -8.1992   19.3609 C.ar    1  UNL1        0.0959
      6 C         -15.2418   -7.5630   19.1574 C.ar    1  UNL1        0.1393
      7 N         -15.0845   -6.0789   19.3074 N.ar    1  UNL1       -0.2154
      8 N         -16.1129   -3.7467   19.8110 N.pl3   1  UNL1       -0.2819
      9 H         -16.8969   -3.1865   20.0132 H       1  UNL1        0.1551
     10 C         -12.1826   -0.6491   18.1265 C.3     1  UNL1        0.0515
     11 C         -12.9546   -1.6922   18.8788 C.ar    1  UNL1        0.0548
     12 C         -14.4093   -2.0119   18.7007 C.ar    1  UNL1        0.0502
     13 C         -14.7612   -3.1161   19.6531 C.ar    1  UNL1        0.1539
     14 N         -13.5240   -3.4788   20.4197 N.ar    1  UNL1       -0.1577
     15 N         -12.4074   -2.5989   19.9412 N.ar    1  UNL1       -0.2786
     16 H         -11.4786   -2.6137   20.2672 H       1  UNL1        0.1886
     17 C         -16.7422   -9.6834   19.2109 C.1     1  UNL1        0.1029
     18 N         -16.8996  -11.1676   19.0609 N.1     1  UNL1       -0.1907
     19 N         -14.0561   -8.4109   18.8038 N.pl3   1  UNL1       -0.3145
     20 H         -13.4566   -8.7390   19.5125 H       1  UNL1        0.1483
     21 C         -13.7836   -8.7590   17.3704 C.3     1  UNL1        0.1362
     22 C         -13.5458   -7.6703   16.3664 C.3     1  UNL1        0.2266
     23 O         -12.1455   -7.2372   16.0473 O.3     1  UNL1       -0.4724
     24 C         -11.3171   -6.5487   17.0912 C.ar    1  UNL1        0.1521
     25 C         -10.4339   -7.3531   17.9984 C.ar    1  UNL1        0.0397
     26 C          -9.6054   -6.6647   19.0423 C.ar    1  UNL1        0.0238
     27 C          -9.6602   -5.1719   19.1790 C.ar    1  UNL1        0.0987
     28 N         -10.5434   -4.3676   18.2719 N.ar    1  UNL1       -0.2451
     29 C         -11.3719   -5.0560   17.2280 C.ar    1  UNL1        0.0932
     30 C         -12.2551   -4.2516   16.3208 C.3     1  UNL1        0.0553
@<TRIPOS>BOND
     1    10    11    1
     2    11    12   ar
     3    12    13   ar
     4    13     8    1
     5     8     1    1
     6     1     2   ar
     7     2     3   ar
     8     3     4    1
     9     3     5   ar
    10     5    17    1
    11    17    18    3
    12     5     6   ar
    13     6    19    1
    14    19    21    1
    15    21    22    1
    16    22    23    1
    17    23    24    1
    18    24    25   ar
    19    25    26   ar
    20    26    27   ar
    21    27    28   ar
    22    28    29   ar
    23    29    30    1
    24     6     7   ar
    25    13    14   ar
    26    14    15   ar
    27    15    11   ar
    28     7     1   ar
    29    29    24   ar
    30     8     9    1
    31    19    20    1
    32    15    16    1
@<TRIPOS>MOLECULE
*****
 30 32 0 0 0
SMALL
GASTEIGER

@<TRIPOS>ATOM
      1 C         -12.0488   -2.0276   18.9974 C.ar    1  UNL1        0.1344
      2 C         -12.3584   -0.6698   18.4404 C.ar    1  UNL1        0.0310
      3 C         -13.7466   -0.1125   18.5508 C.ar    1  UNL1       -0.0067
      4 C         -14.0562    1.2455   17.9938 C.3     1  UNL1        0.0319
      5 C         -14.8253   -0.9131   19.2183 C.ar    1  UNL1        0.0959
      6 C         -14.5157   -2.2709   19.7754 C.ar    1  UNL1        0.1393
      7 N         -13.1275   -2.8282   19.6649 N.ar    1  UNL1       -0.2154
      8 N         -10.6606   -2.5850   18.8869 N.pl3   1  UNL1       -0.2819
      9 H          -9.8854   -2.0255   19.1221 H       1  UNL1        0.1551
     10 C          -9.3326   -7.6941   18.7694 C.3     1  UNL1        0.0515
     11 C          -9.8430   -6.3431   18.3641 C.ar    1  UNL1        0.0548
     12 C          -9.8598   -5.1130   19.2224 C.ar    1  UNL1        0.0502
     13 C         -10.4534   -3.9947   18.4181 C.ar    1  UNL1        0.1539
     14 N         -10.8035   -4.5335   17.0627 N.ar    1  UNL1       -0.1577
     15 N         -10.4263   -5.9849   17.0293 N.ar    1  UNL1       -0.2786
     16 H         -10.5413   -6.5953   16.2655 H       1  UNL1        0.1886
     17 C         -16.2135   -0.3557   19.3288 C.1     1  UNL1        0.1029
     18 N         -17.6017    0.2016   19.4393 N.1     1  UNL1       -0.1907
     19 N         -15.5944   -3.0715   20.4429 N.pl3   1  UNL1       -0.3145
     20 H         -15.7300   -3.0003   21.4154 H       1  UNL1        0.1483
     21 C         -16.4664   -3.9807   19.6287 C.3     1  UNL1        0.1362
     22 C         -15.8565   -5.1171   18.8627 C.3     1  UNL1        0.2266
     23 O         -15.2555   -6.2791   19.5966 O.3     1  UNL1       -0.4724
     24 C         -15.6930   -7.6772   19.2742 C.ar    1  UNL1        0.1521
     25 C         -17.0128   -8.1844   19.7752 C.ar    1  UNL1        0.0397
     26 C         -17.4503   -9.5825   19.4528 C.ar    1  UNL1        0.0238
     27 C         -16.5680  -10.4734   18.6293 C.ar    1  UNL1        0.0987
     28 N         -15.2483   -9.9661   18.1284 N.ar    1  UNL1       -0.2451
     29 C         -14.8108   -8.5681   18.4508 C.ar    1  UNL1        0.0932
     30 C         -13.4910   -8.0608   17.9498 C.3     1  UNL1        0.0553
@<TRIPOS>BOND
     1    10    11    1
     2    11    12   ar
     3    12    13   ar
     4    13     8    1
     5     8     1    1
     6     1     2   ar
     7     2     3   ar
     8     3     4    1
     9     3     5   ar
    10     5    17    1
    11    17    18    3
    12     5     6   ar
    13     6    19    1
    14    19    21    1
    15    21    22    1
    16    22    23    1
    17    23    24    1
    18    24    25   ar
    19    25    26   ar
    20    26    27   ar
    21    27    28   ar
    22    28    29   ar
    23    29    30    1
    24     6     7   ar
    25    13    14   ar
    26    14    15   ar
    27    15    11   ar
    28     7     1   ar
    29    29    24   ar
    30     8     9    1
    31    19    20    1
    32    15    16    1
@<TRIPOS>MOLECULE
*****
 30 32 0 0 0
SMALL
GASTEIGER

@<TRIPOS>ATOM
      1 C          -6.8744  -19.7555   22.1607 C.ar    1  UNL1        0.1344
      2 C          -6.0583  -20.4641   21.1205 C.ar    1  UNL1        0.0310
      3 C          -4.6857  -19.9663   20.7769 C.ar    1  UNL1       -0.0067
      4 C          -3.8695  -20.6749   19.7367 C.3     1  UNL1        0.0319
      5 C          -4.1291  -18.7600   21.4734 C.ar    1  UNL1        0.0959
      6 C          -4.9452  -18.0515   22.5135 C.ar    1  UNL1        0.1393
      7 N          -6.3178  -18.5492   22.8571 N.ar    1  UNL1       -0.2154
      8 N          -8.2471  -20.2533   22.5044 N.pl3   1  UNL1       -0.2819
      9 H          -8.3539  -21.0403   23.0860 H       1  UNL1        0.1551
     10 C         -11.3836  -17.2398   19.5109 C.3     1  UNL1        0.0515
     11 C         -10.8985  -18.1667   20.5858 C.ar    1  UNL1        0.0548
     12 C          -9.4885  -18.6449   20.7675 C.ar    1  UNL1        0.0502
     13 C          -9.4568  -19.5518   21.9618 C.ar    1  UNL1        0.1539
     14 N         -10.8474  -19.6342   22.5183 N.ar    1  UNL1       -0.1577
     15 N         -11.7384  -18.7781   21.6679 N.ar    1  UNL1       -0.2786
     16 H         -12.7048  -18.6415   21.7973 H       1  UNL1        0.1886
     17 C          -2.7564  -18.2623   21.1297 C.1     1  UNL1        0.1029
     18 N          -1.3838  -17.7646   20.7860 N.1     1  UNL1       -0.1907
     19 N          -4.3887  -16.8451   23.2100 N.pl3   1  UNL1       -0.3145
     20 H          -4.0299  -16.0946   22.6835 H       1  UNL1        0.1483
     21 C          -4.3788  -16.7823   24.7086 C.3     1  UNL1        0.1362
     22 C          -4.7800  -15.5180   25.4090 C.3     1  UNL1        0.2266
     23 O          -5.8457  -14.6410   24.8214 O.3     1  UNL1       -0.4724
     24 C          -7.1806  -15.2221   24.4604 C.ar    1  UNL1        0.1521
     25 C          -7.5951  -15.3120   23.0216 C.ar    1  UNL1        0.0397
     26 C          -8.9300  -15.8932   22.6606 C.ar    1  UNL1        0.0238
     27 C          -9.8504  -16.3843   23.7384 C.ar    1  UNL1        0.0987
     28 N          -9.4359  -16.2944   25.1772 N.ar    1  UNL1       -0.2451
     29 C          -8.1010  -15.7132   25.5382 C.ar    1  UNL1        0.0932
     30 C          -7.6865  -15.6233   26.9770 C.3     1  UNL1        0.0553
@<TRIPOS>BOND
     1    10    11    1
     2    11    12   ar
     3    12    13   ar
     4    13     8    1
     5     8     1    1
     6     1     2   ar
     7     2     3   ar
     8     3     4    1
     9     3     5   ar
    10     5    17    1
    11    17    18    3
    12     5     6   ar
    13     6    19    1
    14    19    21    1
    15    21    22    1
    16    22    23    1
    17    23    24    1
    18    24    25   ar
    19    25    26   ar
    20    26    27   ar
    21    27    28   ar
    22    28    29   ar
    23    29    30    1
    24     6     7   ar
    25    13    14   ar
    26    14    15   ar
    27    15    11   ar
    28     7     1   ar
    29    29    24   ar
    30     8     9    1
    31    19    20    1
    32    15    16    1
@<TRIPOS>MOLECULE
*****
 30 32 0 0 0
SMALL
GASTEIGER

@<TRIPOS>ATOM
      1 C          -4.7105  -17.0959   23.8044 C.ar    1  UNL1        0.1344
      2 C          -5.2720  -16.3791   24.9964 C.ar    1  UNL1        0.0310
      3 C          -6.7233  -16.0015   25.0295 C.ar    1  UNL1       -0.0067
      4 C          -7.2848  -15.2847   26.2215 C.3     1  UNL1        0.0319
      5 C          -7.6131  -16.3408   23.8705 C.ar    1  UNL1        0.0959
      6 C          -7.0516  -17.0577   22.6786 C.ar    1  UNL1        0.1393
      7 N          -5.6003  -17.4352   22.6455 N.ar    1  UNL1       -0.2154
      8 N          -3.2591  -17.4735   23.7713 N.pl3   1  UNL1       -0.2819
      9 H          -2.8296  -17.8484   24.5739 H       1  UNL1        0.1551
     10 C          -0.2318  -18.4168   19.5492 C.3     1  UNL1        0.0515
     11 C          -1.0708  -17.7135   20.5747 C.ar    1  UNL1        0.0548
     12 C          -1.7265  -18.3497   21.7643 C.ar    1  UNL1        0.0502
     13 C          -2.4622  -17.2799   22.5154 C.ar    1  UNL1        0.1539
     14 N          -2.2611  -15.9824   21.7900 N.ar    1  UNL1       -0.1577
     15 N          -1.4012  -16.2504   20.5905 N.ar    1  UNL1       -0.2786
     16 H          -1.1055  -15.5831   19.9298 H       1  UNL1        0.1886
     17 C          -9.0645  -15.9633   23.9036 C.1     1  UNL1        0.1029
     18 N         -10.5157  -15.5857   23.9368 N.1     1  UNL1       -0.1907
     19 N          -7.9414  -17.3970   21.5196 N.pl3   1  UNL1       -0.3145
     20 H          -8.6347  -16.7614   21.2287 H       1  UNL1        0.1483
     21 C          -7.7750  -18.7046   20.8040 C.3     1  UNL1        0.1362
     22 C          -8.9827  -19.4759   20.3604 C.3     1  UNL1        0.2266
     23 O          -9.8828  -20.1107   21.3786 O.3     1  UNL1       -0.4724
     24 C         -10.9729  -19.3057   22.0217 C.ar    1  UNL1        0.1521
     25 C         -11.8851  -18.4676   21.1757 C.ar    1  UNL1        0.0397
     26 C         -12.9752  -17.6625   21.8188 C.ar    1  UNL1        0.0238
     27 C         -13.1531  -17.6956   23.3079 C.ar    1  UNL1        0.0987
     28 N         -12.2409  -18.5336   24.1538 N.ar    1  UNL1       -0.2451
     29 C         -11.1509  -19.3387   23.5108 C.ar    1  UNL1        0.0932
     30 C         -10.2387  -20.1767   24.3568 C.3     1  UNL1        0.0553
@<TRIPOS>BOND
     1    10    11    1
     2    11    12   ar
     3    12    13   ar
     4    13     8    1
     5     8     1    1
     6     1     2   ar
     7     2     3   ar
     8     3     4    1
     9     3     5   ar
    10     5    17    1
    11    17    18    3
    12     5     6   ar
    13     6    19    1
    14    19    21    1
    15    21    22    1
    16    22    23    1
    17    23    24    1
    18    24    25   ar
    19    25    26   ar
    20    26    27   ar
    21    27    28   ar
    22    28    29   ar
    23    29    30    1
    24     6     7   ar
    25    13    14   ar
    26    14    15   ar
    27    15    11   ar
    28     7     1   ar
    29    29    24   ar
    30     8     9    1
    31    19    20    1
    32    15    16    1
@<TRIPOS>MOLECULE
*****
 30 32 0 0 0
SMALL
GASTEIGER

@<TRIPOS>ATOM
      1 C         -13.9123   -7.8460   18.3460 C.ar    1  UNL1        0.1344
      2 C         -14.7262   -9.1001   18.4666 C.ar    1  UNL1        0.0310
      3 C         -16.1310   -9.0352   18.9884 C.ar    1  UNL1       -0.0067
      4 C         -16.9450  -10.2894   19.1091 C.3     1  UNL1        0.0319
      5 C         -16.7218   -7.7161   19.3897 C.ar    1  UNL1        0.0959
      6 C         -15.9079   -6.4620   19.2690 C.ar    1  UNL1        0.1393
      7 N         -14.5031   -6.5269   18.7472 N.ar    1  UNL1       -0.2154
      8 N         -12.5075   -7.9109   17.8241 N.pl3   1  UNL1       -0.2819
      9 H         -12.1773   -8.7360   17.4006 H       1  UNL1        0.1551
     10 C          -9.2037   -3.9683   16.6315 C.3     1  UNL1        0.0515
     11 C         -10.0871   -4.9064   17.3994 C.ar    1  UNL1        0.0548
     12 C         -10.8639   -6.0543   16.8258 C.ar    1  UNL1        0.0502
     13 C         -11.6057   -6.7186   17.9476 C.ar    1  UNL1        0.1539
     14 N         -11.2874   -5.9813   19.2145 N.ar    1  UNL1       -0.1577
     15 N         -10.3489   -4.8613   18.8758 N.ar    1  UNL1       -0.2786
     16 H          -9.9710   -4.2108   19.5109 H       1  UNL1        0.1886
     17 C         -18.1267   -7.6512   19.9115 C.1     1  UNL1        0.1029
     18 N         -19.5315   -7.5864   20.4333 N.1     1  UNL1       -0.1907
     19 N         -16.4987   -5.1429   19.6702 N.pl3   1  UNL1       -0.3145
     20 H         -16.4651   -4.8542   20.6109 H       1  UNL1        0.1483
     21 C         -17.1408   -4.2637   18.6384 C.3     1  UNL1        0.1362
     22 C         -16.3495   -3.1661   17.9910 C.3     1  UNL1        0.2266
     23 O         -15.6406   -2.1521   18.8391 O.3     1  UNL1       -0.4724
     24 C         -14.1995   -1.8296   18.5755 C.ar    1  UNL1        0.1521
     25 C         -13.8303   -0.9150   17.4453 C.ar    1  UNL1        0.0397
     26 C         -12.3892   -0.5925   17.1817 C.ar    1  UNL1        0.0238
     27 C         -11.3175   -1.1847   18.0482 C.ar    1  UNL1        0.0987
     28 N         -11.6868   -2.0992   19.1783 N.ar    1  UNL1       -0.2451
     29 C         -13.1278   -2.4217   19.4419 C.ar    1  UNL1        0.0932
     30 C         -13.4971   -3.3363   20.5721 C.3     1  UNL1        0.0553
@<TRIPOS>BOND
     1    10    11    1
     2    11    12   ar
     3    12    13   ar
     4    13     8    1
     5     8     1    1
     6     1     2   ar
     7     2     3   ar
     8     3     4    1
     9     3     5   ar
    10     5    17    1
    11    17    18    3
    12     5     6   ar
    13     6    19    1
    14    19    21    1
    15    21    22    1
    16    22    23    1
    17    23    24    1
    18    24    25   ar
    19    25    26   ar
    20    26    27   ar
    21    27    28   ar
    22    28    29   ar
    23    29    30    1
    24     6     7   ar
    25    13    14   ar
    26    14    15   ar
    27    15    11   ar
    28     7     1   ar
    29    29    24   ar
    30     8     9    1
    31    19    20    1
    32    15    16    1
@<TRIPOS>MOLECULE
*****
 30 32 0 0 0
SMALL
GASTEIGER

@<TRIPOS>ATOM
      1 C         -14.2103   -2.2590   19.6793 C.ar    1  UNL1        0.1344
      2 C         -15.0874   -1.0631   19.4548 C.ar    1  UNL1        0.0310
      3 C         -14.5412    0.1472   18.7572 C.ar    1  UNL1       -0.0067
      4 C         -15.4183    1.3432   18.5326 C.3     1  UNL1        0.0319
      5 C         -13.1178    0.1617   18.2842 C.ar    1  UNL1        0.0959
      6 C         -12.2407   -1.0342   18.5087 C.ar    1  UNL1        0.1393
      7 N         -12.7869   -2.2446   19.2063 N.ar    1  UNL1       -0.2154
      8 N         -14.7566   -3.4694   20.3769 N.pl3   1  UNL1       -0.2819
      9 H         -15.2899   -3.3656   21.1979 H       1  UNL1        0.1551
     10 C         -15.2503   -7.9737   17.6662 C.3     1  UNL1        0.0515
     11 C         -14.7172   -6.9083   18.5777 C.ar    1  UNL1        0.0548
     12 C         -15.3640   -5.5848   18.8600 C.ar    1  UNL1        0.0502
     13 C         -14.4902   -4.8379   19.8237 C.ar    1  UNL1        0.1539
     14 N         -13.3033   -5.6999   20.1369 N.ar    1  UNL1       -0.1577
     15 N         -13.4435   -6.9795   19.3669 N.ar    1  UNL1       -0.2786
     16 H         -12.8107   -7.7337   19.3775 H       1  UNL1        0.1886
     17 C         -12.5715    1.3721   17.5866 C.1     1  UNL1        0.1029
     18 N         -12.0253    2.5824   16.8890 N.1     1  UNL1       -0.1907
     19 N         -10.8173   -1.0198   18.0357 N.pl3   1  UNL1       -0.3145
     20 H         -10.0942   -0.7762   18.6579 H       1  UNL1        0.1483
     21 C         -10.4955   -1.3765   16.6147 C.3     1  UNL1        0.1362
     22 C         -10.5657   -2.8061   16.1661 C.3     1  UNL1        0.2266
     23 O         -11.6224   -3.7152   16.7202 O.3     1  UNL1       -0.4724
     24 C         -11.3254   -5.1705   16.9295 C.ar    1  UNL1        0.1521
     25 C         -11.8810   -6.1930   15.9829 C.ar    1  UNL1        0.0397
     26 C         -11.5840   -7.6483   16.1921 C.ar    1  UNL1        0.0238
     27 C         -10.7314   -8.0812   17.3479 C.ar    1  UNL1        0.0987
     28 N         -10.1758   -7.0587   18.2944 N.ar    1  UNL1       -0.2451
     29 C         -10.4729   -5.6034   18.0852 C.ar    1  UNL1        0.0932
     30 C          -9.9173   -4.5809   19.0318 C.3     1  UNL1        0.0553
@<TRIPOS>BOND
     1    10    11    1
     2    11    12   ar
     3    12    13   ar
     4    13     8    1
     5     8     1    1
     6     1     2   ar
     7     2     3   ar
     8     3     4    1
     9     3     5   ar
    10     5    17    1
    11    17    18    3
    12     5     6   ar
    13     6    19    1
    14    19    21    1
    15    21    22    1
    16    22    23    1
    17    23    24    1
    18    24    25   ar
    19    25    26   ar
    20    26    27   ar
    21    27    28   ar
    22    28    29   ar
    23    29    30    1
    24     6     7   ar
    25    13    14   ar
    26    14    15   ar
    27    15    11   ar
    28     7     1   ar
    29    29    24   ar
    30     8     9    1
    31    19    20    1
    32    15    16    1
