@<TRIPOS>MOLECULE
*****
 33 36 0 0 0
SMALL
GASTEIGER

@<TRIPOS>ATOM
      1 N          -3.7015  -19.0288   21.3872 N.3     1  UNL1       -0.2689
      2 C          -4.0010  -18.6933   19.9561 C.3     1  UNL1        0.0897
      3 C          -5.3246  -19.0692   19.3589 C.3     1  UNL1        0.0900
      4 N          -6.3488  -19.7806   20.1926 N.3     1  UNL1       -0.2626
      5 C          -6.0493  -20.1161   21.6236 C.3     1  UNL1        0.0900
      6 C          -4.7256  -19.7402   22.2209 C.3     1  UNL1        0.0897
      7 C          -2.3779  -18.6529   21.9844 C.3     1  UNL1        0.0937
      8 C          -2.1365  -17.2469   22.4481 C.3     1  UNL1        0.1082
      9 N          -5.4420  -15.4233   23.6721 N.am    1  UNL1       -0.2921
     10 C          -4.3026  -16.3965   23.6034 C.2     1  UNL1        0.3007
     11 O          -4.1899  -17.4924   24.6214 O.2     1  UNL1       -0.2528
     12 N          -3.2758  -16.2738   22.5168 N.am    1  UNL1       -0.2875
     13 H          -5.5159  -14.7040   23.0040 H       1  UNL1        0.1508
     14 H          -3.3498  -15.5545   21.8487 H       1  UNL1        0.1510
     15 C          -5.5013  -14.9530   25.7398 C.3     1  UNL1        0.0197
     16 C          -6.4687  -15.5460   24.7587 C.3     1  UNL1        0.0583
     17 C          -7.4361  -16.1391   23.7777 C.3     1  UNL1        0.0197
     18 C          -7.4954  -15.6688   25.8453 C.3     1  UNL1        0.0197
     19 C          -7.6724  -20.1565   19.5954 C.3     1  UNL1        0.1585
     20 C          -8.9309  -19.5104   20.0941 C.2     1  UNL1        0.2388
     21 O         -10.2140  -19.6840   19.3369 O.2     1  UNL1       -0.2736
     22 N          -8.9062  -18.6907   21.3501 N.am    1  UNL1       -0.3063
     23 H          -8.0641  -18.5767   21.8471 H       1  UNL1        0.1493
     24 C         -10.1648  -18.0445   21.8488 C.3     1  UNL1        0.0568
     25 C         -10.8242  -18.5513   23.0971 C.3     1  UNL1        0.0180
     26 C         -12.0827  -17.9052   23.5958 C.3     1  UNL1        0.0016
     27 C         -12.6817  -16.7523   22.8462 C.3     1  UNL1        0.0001
     28 C         -12.0223  -16.2455   21.5979 C.3     1  UNL1        0.0016
     29 C         -10.1903  -18.7460   22.6932 C.3     1  UNL1        0.0001
     30 C         -10.2251  -19.7042   23.8467 C.3     1  UNL1        0.0016
     31 C         -11.4836  -19.0581   24.3454 C.3     1  UNL1        0.0001
     32 C          -9.5657  -19.1975   22.5984 C.3     1  UNL1        0.0180
     33 C         -10.7638  -16.8916   21.0992 C.3     1  UNL1        0.0180
@<TRIPOS>BOND
     1    15    16    1
     2    16    17    1
     3    16    18    1
     4    16     9    1
     5     9    10   am
     6    10    11    2
     7    10    12   am
     8    12     8    1
     9     8     7    1
    10     7     1    1
    11     1     2    1
    12     2     3    1
    13     3     4    1
    14     4    19    1
    15    19    20    1
    16    20    21    2
    17    20    22   am
    18    22    24    1
    19    24    25    1
    20    25    26    1
    21    26    27    1
    22    27    28    1
    23    28    29    1
    24    29    30    1
    25    30    31    1
    26    30    32    1
    27    28    33    1
    28     4     5    1
    29     5     6    1
    30     6     1    1
    31    32    24    1
    32    33    24    1
    33    31    26    1
    34     9    13    1
    35    12    14    1
    36    22    23    1
@<TRIPOS>MOLECULE
*****
 33 36 0 0 0
SMALL
GASTEIGER

@<TRIPOS>ATOM
      1 N          -9.8494  -18.4068   21.1931 N.3     1  UNL1       -0.2689
      2 C          -8.8770  -18.8453   22.2477 C.3     1  UNL1        0.0897
      3 C          -7.7102  -19.7124   21.8780 C.3     1  UNL1        0.0900
      4 N          -7.5158  -20.1410   20.4538 N.3     1  UNL1       -0.2626
      5 C          -8.4881  -19.7025   19.3992 C.3     1  UNL1        0.0900
      6 C          -9.6550  -18.8354   19.7688 C.3     1  UNL1        0.0897
      7 C         -11.0162  -17.5397   21.5627 C.3     1  UNL1        0.0937
      8 C         -11.1394  -17.0027   22.9579 C.3     1  UNL1        0.1082
      9 N          -8.3445  -15.0630   25.0015 N.am    1  UNL1       -0.2921
     10 C          -9.2562  -16.1599   24.5368 C.2     1  UNL1        0.3007
     11 O          -9.1962  -17.5106   25.1864 O.2     1  UNL1       -0.2528
     12 N         -10.2278  -15.9059   23.4226 N.am    1  UNL1       -0.2875
     13 H          -8.3839  -14.1765   24.5752 H       1  UNL1        0.1508
     14 H         -10.2671  -15.0194   22.9962 H       1  UNL1        0.1510
     15 C          -8.4799  -15.1626   27.1162 C.3     1  UNL1        0.0197
     16 C          -7.3730  -15.3169   26.1158 C.3     1  UNL1        0.0583
     17 C          -6.2660  -15.4712   25.1154 C.3     1  UNL1        0.0197
     18 C          -6.4014  -15.5708   27.2300 C.3     1  UNL1        0.0197
     19 C          -6.3490  -21.0081   20.0841 C.3     1  UNL1        0.1585
     20 C          -4.9577  -20.4482   20.1188 C.2     1  UNL1        0.2388
     21 O          -3.7764  -21.3716   20.0751 O.2     1  UNL1       -0.2736
     22 N          -4.7479  -18.9651   20.1972 N.am    1  UNL1       -0.3063
     23 H          -5.5232  -18.3591   20.2259 H       1  UNL1        0.1493
     24 C          -3.3566  -18.4052   20.2319 C.3     1  UNL1        0.0568
     25 C          -2.7290  -18.0367   21.5435 C.3     1  UNL1        0.0180
     26 C          -1.3378  -17.4769   21.5781 C.3     1  UNL1        0.0016
     27 C          -0.5743  -17.2856   20.3012 C.3     1  UNL1        0.0001
     28 C          -1.2020  -17.6542   18.9897 C.3     1  UNL1        0.0016
     29 C          -3.4141  -18.3303   21.3260 C.3     1  UNL1        0.0001
     30 C          -3.4925  -18.2280   22.8204 C.3     1  UNL1        0.0016
     31 C          -2.1013  -17.6682   22.8550 C.3     1  UNL1        0.0001
     32 C          -4.1201  -18.5965   21.5088 C.3     1  UNL1        0.0180
     33 C          -2.5931  -18.2140   18.9550 C.3     1  UNL1        0.0180
@<TRIPOS>BOND
     1    15    16    1
     2    16    17    1
     3    16    18    1
     4    16     9    1
     5     9    10   am
     6    10    11    2
     7    10    12   am
     8    12     8    1
     9     8     7    1
    10     7     1    1
    11     1     2    1
    12     2     3    1
    13     3     4    1
    14     4    19    1
    15    19    20    1
    16    20    21    2
    17    20    22   am
    18    22    24    1
    19    24    25    1
    20    25    26    1
    21    26    27    1
    22    27    28    1
    23    28    29    1
    24    29    30    1
    25    30    31    1
    26    30    32    1
    27    28    33    1
    28     4     5    1
    29     5     6    1
    30     6     1    1
    31    32    24    1
    32    33    24    1
    33    31    26    1
    34     9    13    1
    35    12    14    1
    36    22    23    1
@<TRIPOS>MOLECULE
*****
 33 36 0 0 0
SMALL
GASTEIGER

@<TRIPOS>ATOM
      1 N         -10.4560  -16.5505   22.8979 N.3     1  UNL1       -0.2689
      2 C          -9.4848  -15.7681   22.0643 C.3     1  UNL1        0.0897
      3 C          -8.0999  -15.5038   22.5763 C.3     1  UNL1        0.0900
      4 N          -7.6861  -16.0217   23.9218 N.3     1  UNL1       -0.2626
      5 C          -8.6572  -16.8040   24.7554 C.3     1  UNL1        0.0900
      6 C         -10.0422  -17.0684   24.2435 C.3     1  UNL1        0.0897
      7 C         -11.8408  -16.8148   22.3860 C.3     1  UNL1        0.0937
      8 C         -12.0487  -17.7568   21.2373 C.3     1  UNL1        0.1082
      9 N          -8.7761  -19.0120   19.3758 N.am    1  UNL1       -0.2921
     10 C          -9.8412  -18.8567   20.4207 C.2     1  UNL1        0.3007
     11 O          -9.7636  -19.6462   21.6938 O.2     1  UNL1       -0.2528
     12 N         -10.9837  -17.9121   20.1925 N.am    1  UNL1       -0.2875
     13 H          -8.8271  -18.4938   18.5403 H       1  UNL1        0.1508
     14 H         -11.0347  -17.3939   19.3569 H       1  UNL1        0.1510
     15 C          -8.3398  -21.0057   18.7975 C.3     1  UNL1        0.0197
     16 C          -7.6336  -19.9566   19.6041 C.3     1  UNL1        0.0583
     17 C          -6.9273  -18.9075   20.4107 C.3     1  UNL1        0.0197
     18 C          -6.4910  -20.9013   19.8324 C.3     1  UNL1        0.0197
     19 C          -6.3012  -15.7573   24.4338 C.3     1  UNL1        0.1585
     20 C          -5.1247  -15.8776   23.5110 C.2     1  UNL1        0.2388
     21 O          -4.6055  -14.6656   22.7958 O.2     1  UNL1       -0.2736
     22 N          -4.4676  -17.2099   23.3033 N.am    1  UNL1       -0.3063
     23 H          -4.8083  -18.0053   23.7727 H       1  UNL1        0.1493
     24 C          -3.2911  -17.3301   22.3805 C.3     1  UNL1        0.0568
     25 C          -2.9512  -18.6563   21.7675 C.3     1  UNL1        0.0180
     26 C          -1.7748  -18.7765   20.8447 C.3     1  UNL1        0.0016
     27 C          -0.9383  -17.5706   20.5350 C.3     1  UNL1        0.0001
     28 C          -1.2781  -16.2445   21.1480 C.3     1  UNL1        0.0016
     29 C          -3.5011  -18.4003   22.2523 C.3     1  UNL1        0.0001
     30 C          -3.7878  -19.8622   22.0772 C.3     1  UNL1        0.0016
     31 C          -2.6114  -19.9824   21.1545 C.3     1  UNL1        0.0001
     32 C          -4.1277  -18.5360   22.6902 C.3     1  UNL1        0.0180
     33 C          -2.4545  -16.1242   22.0707 C.3     1  UNL1        0.0180
@<TRIPOS>BOND
     1    15    16    1
     2    16    17    1
     3    16    18    1
     4    16     9    1
     5     9    10   am
     6    10    11    2
     7    10    12   am
     8    12     8    1
     9     8     7    1
    10     7     1    1
    11     1     2    1
    12     2     3    1
    13     3     4    1
    14     4    19    1
    15    19    20    1
    16    20    21    2
    17    20    22   am
    18    22    24    1
    19    24    25    1
    20    25    26    1
    21    26    27    1
    22    27    28    1
    23    28    29    1
    24    29    30    1
    25    30    31    1
    26    30    32    1
    27    28    33    1
    28     4     5    1
    29     5     6    1
    30     6     1    1
    31    32    24    1
    32    33    24    1
    33    31    26    1
    34     9    13    1
    35    12    14    1
    36    22    23    1
@<TRIPOS>MOLECULE
*****
 33 36 0 0 0
SMALL
GASTEIGER

@<TRIPOS>ATOM
      1 N          -3.3898  -18.9470   21.0586 N.3     1  UNL1       -0.2689
      2 C          -4.1423  -18.5691   19.8171 C.3     1  UNL1        0.0897
      3 C          -5.5805  -18.9661   19.6618 C.3     1  UNL1        0.0900
      4 N          -6.2662  -19.7408   20.7479 N.3     1  UNL1       -0.2626
      5 C          -5.5138  -20.1186   21.9893 C.3     1  UNL1        0.0900
      6 C          -4.0755  -19.7217   22.1446 C.3     1  UNL1        0.0897
      7 C          -1.9517  -18.5500   21.2139 C.3     1  UNL1        0.0937
      8 C          -1.5920  -17.3304   22.0096 C.3     1  UNL1        0.1082
      9 N          -4.6920  -15.2997   23.4294 N.am    1  UNL1       -0.2921
     10 C          -3.6828  -16.3920   23.2335 C.2     1  UNL1        0.3007
     11 O          -3.7551  -17.6380   24.0653 O.2     1  UNL1       -0.2528
     12 N          -2.6012  -16.2382   22.2056 N.am    1  UNL1       -0.2875
     13 H          -4.6445  -14.4818   22.8834 H       1  UNL1        0.1508
     14 H          -2.5537  -15.4203   21.6596 H       1  UNL1        0.1510
     15 C          -4.7996  -15.0860   25.5372 C.3     1  UNL1        0.0197
     16 C          -5.7736  -15.4535   24.4573 C.3     1  UNL1        0.0583
     17 C          -6.7476  -15.8210   23.3774 C.3     1  UNL1        0.0197
     18 C          -6.8552  -15.6073   25.4852 C.3     1  UNL1        0.0197
     19 C          -7.7043  -20.1377   20.5926 C.3     1  UNL1        0.1585
     20 C          -8.7648  -19.4438   21.3951 C.2     1  UNL1        0.2388
     21 O          -8.4084  -18.7748   22.6895 O.2     1  UNL1       -0.2736
     22 N         -10.1816  -19.4188   20.9031 N.am    1  UNL1       -0.3063
     23 H         -10.4155  -19.8578   20.0536 H       1  UNL1        0.1493
     24 C         -11.2421  -18.7248   21.7056 C.3     1  UNL1        0.0568
     25 C         -11.9087  -17.4954   21.1634 C.3     1  UNL1        0.0180
     26 C         -12.9691  -16.8015   21.9658 C.3     1  UNL1        0.0016
     27 C         -13.3629  -17.3370   23.3105 C.3     1  UNL1        0.0001
     28 C         -12.6962  -18.5664   23.8527 C.3     1  UNL1        0.0016
     29 C         -11.3574  -17.9789   20.9080 C.3     1  UNL1        0.0001
     30 C         -11.5150  -16.9599   19.8187 C.3     1  UNL1        0.0016
     31 C         -12.5754  -16.2660   20.6211 C.3     1  UNL1        0.0001
     32 C         -10.8483  -18.1893   20.3609 C.3     1  UNL1        0.0180
     33 C         -11.6358  -19.2603   23.0503 C.3     1  UNL1        0.0180
@<TRIPOS>BOND
     1    15    16    1
     2    16    17    1
     3    16    18    1
     4    16     9    1
     5     9    10   am
     6    10    11    2
     7    10    12   am
     8    12     8    1
     9     8     7    1
    10     7     1    1
    11     1     2    1
    12     2     3    1
    13     3     4    1
    14     4    19    1
    15    19    20    1
    16    20    21    2
    17    20    22   am
    18    22    24    1
    19    24    25    1
    20    25    26    1
    21    26    27    1
    22    27    28    1
    23    28    29    1
    24    29    30    1
    25    30    31    1
    26    30    32    1
    27    28    33    1
    28     4     5    1
    29     5     6    1
    30     6     1    1
    31    32    24    1
    32    33    24    1
    33    31    26    1
    34     9    13    1
    35    12    14    1
    36    22    23    1
@<TRIPOS>MOLECULE
*****
 33 36 0 0 0
SMALL
GASTEIGER

@<TRIPOS>ATOM
      1 N           8.7053   -7.5031   26.8006 N.3     1  UNL1       -0.2689
      2 C           8.6313   -6.4321   27.8483 C.3     1  UNL1        0.0897
      3 C           8.0556   -5.0893   27.5088 C.3     1  UNL1        0.0900
      4 N           7.5538   -4.8173   26.1217 N.3     1  UNL1       -0.2626
      5 C           7.6278   -5.8882   25.0740 C.3     1  UNL1        0.0900
      6 C           8.2036   -7.2311   25.4134 C.3     1  UNL1        0.0897
      7 C           9.2811   -8.8459   27.1401 C.3     1  UNL1        0.0937
      8 C           8.4543   -9.8489   27.8887 C.3     1  UNL1        0.1082
      9 N           4.8261  -11.4293   27.5910 N.am    1  UNL1       -0.2921
     10 C           6.2864  -11.2807   27.9001 C.2     1  UNL1        0.3007
     11 O           7.0390  -12.4153   28.5295 O.2     1  UNL1       -0.2528
     12 N           6.9940   -9.9975   27.5797 N.am    1  UNL1       -0.2875
     13 H           4.3321  -10.6846   27.1779 H       1  UNL1        0.1508
     14 H           6.5001   -9.2529   27.1665 H       1  UNL1        0.1510
     15 C           3.8091  -12.1986   29.2863 C.3     1  UNL1        0.0197
     16 C           4.1184  -12.7125   27.9114 C.3     1  UNL1        0.0583
     17 C           4.4278  -13.2264   26.5365 C.3     1  UNL1        0.0197
     18 C           3.4108  -13.9957   28.2318 C.3     1  UNL1        0.0197
     19 C           6.9781   -3.4745   25.7822 C.3     1  UNL1        0.1585
     20 C           6.4711   -3.2044   24.3965 C.2     1  UNL1        0.2388
     21 O           7.4400   -2.9651   23.2767 O.2     1  UNL1       -0.2736
     22 N           4.9952   -3.1736   24.1306 N.am    1  UNL1       -0.3063
     23 H           4.3592   -3.3306   24.8656 H       1  UNL1        0.1493
     24 C           4.4881   -2.9035   22.7449 C.3     1  UNL1        0.0568
     25 C           3.6840   -1.6679   22.4681 C.3     1  UNL1        0.0180
     26 C           3.1771   -1.3978   21.0825 C.3     1  UNL1        0.0016
     27 C           3.4742   -2.3634   19.9737 C.3     1  UNL1        0.0001
     28 C           4.2783   -3.5990   20.2505 C.3     1  UNL1        0.0016
     29 C           4.0227   -1.9732   23.0966 C.3     1  UNL1        0.0001
     30 C           3.3869   -0.7024   23.5769 C.3     1  UNL1        0.0016
     31 C           2.8799   -0.4323   22.1913 C.3     1  UNL1        0.0001
     32 C           4.1910   -1.9379   23.8537 C.3     1  UNL1        0.0180
     33 C           4.7853   -3.8690   21.6361 C.3     1  UNL1        0.0180
@<TRIPOS>BOND
     1    15    16    1
     2    16    17    1
     3    16    18    1
     4    16     9    1
     5     9    10   am
     6    10    11    2
     7    10    12   am
     8    12     8    1
     9     8     7    1
    10     7     1    1
    11     1     2    1
    12     2     3    1
    13     3     4    1
    14     4    19    1
    15    19    20    1
    16    20    21    2
    17    20    22   am
    18    22    24    1
    19    24    25    1
    20    25    26    1
    21    26    27    1
    22    27    28    1
    23    28    29    1
    24    29    30    1
    25    30    31    1
    26    30    32    1
    27    28    33    1
    28     4     5    1
    29     5     6    1
    30     6     1    1
    31    32    24    1
    32    33    24    1
    33    31    26    1
    34     9    13    1
    35    12    14    1
    36    22    23    1
@<TRIPOS>MOLECULE
*****
 33 36 0 0 0
SMALL
GASTEIGER

@<TRIPOS>ATOM
      1 N           8.9561   -7.2213   26.7865 N.3     1  UNL1       -0.2689
      2 C           9.5297   -7.5691   25.4448 C.3     1  UNL1        0.0897
      3 C           9.5142   -6.5574   24.3375 C.3     1  UNL1        0.0900
      4 N           8.9250   -5.1980   24.5717 N.3     1  UNL1       -0.2626
      5 C           8.3514   -4.8502   25.9134 C.3     1  UNL1        0.0900
      6 C           8.3670   -5.8619   27.0208 C.3     1  UNL1        0.0897
      7 C           8.9717   -8.2330   27.8939 C.3     1  UNL1        0.0937
      8 C           8.3791   -9.5935   27.6752 C.3     1  UNL1        0.1082
      9 N           4.7584  -11.2089   27.4980 N.am    1  UNL1       -0.2921
     10 C           6.2351  -11.0603   27.7162 C.2     1  UNL1        0.3007
     11 O           7.0442  -12.2297   28.1935 O.2     1  UNL1       -0.2528
     12 N           6.9025   -9.7422   27.4571 N.am    1  UNL1       -0.2875
     13 H           4.2274  -10.4414   27.1848 H       1  UNL1        0.1508
     14 H           6.3715   -8.9747   27.1438 H       1  UNL1        0.1510
     15 C           4.0977  -12.8197   26.2860 C.3     1  UNL1        0.0197
     16 C           4.0910  -12.5270   27.7572 C.3     1  UNL1        0.0583
     17 C           4.0842  -12.2344   29.2283 C.3     1  UNL1        0.0197
     18 C           3.4235  -13.8451   28.0163 C.3     1  UNL1        0.0197
     19 C           8.9094   -4.1864   23.4644 C.3     1  UNL1        0.1585
     20 C           7.9483   -4.3386   22.3228 C.2     1  UNL1        0.2388
     21 O           7.9254   -5.6092   21.5260 O.2     1  UNL1       -0.2736
     22 N           7.0100   -3.2202   21.9782 N.am    1  UNL1       -0.3063
     23 H           7.0250   -2.3862   22.5011 H       1  UNL1        0.1493
     24 C           6.0488   -3.3724   20.8366 C.3     1  UNL1        0.0568
     25 C           6.4057   -2.8417   19.4798 C.3     1  UNL1        0.0180
     26 C           5.4445   -2.9940   18.3384 C.3     1  UNL1        0.0016
     27 C           4.1265   -3.6769   18.5537 C.3     1  UNL1        0.0001
     28 C           3.7696   -4.2076   19.9105 C.3     1  UNL1        0.0016
     29 C           6.7568   -2.8595   20.1722 C.3     1  UNL1        0.0001
     30 C           7.7237   -2.1588   19.2645 C.3     1  UNL1        0.0016
     31 C           6.7626   -2.3110   18.1230 C.3     1  UNL1        0.0001
     32 C           7.3669   -2.6895   20.6213 C.3     1  UNL1        0.0180
     33 C           4.7308   -4.0554   21.0520 C.3     1  UNL1        0.0180
@<TRIPOS>BOND
     1    15    16    1
     2    16    17    1
     3    16    18    1
     4    16     9    1
     5     9    10   am
     6    10    11    2
     7    10    12   am
     8    12     8    1
     9     8     7    1
    10     7     1    1
    11     1     2    1
    12     2     3    1
    13     3     4    1
    14     4    19    1
    15    19    20    1
    16    20    21    2
    17    20    22   am
    18    22    24    1
    19    24    25    1
    20    25    26    1
    21    26    27    1
    22    27    28    1
    23    28    29    1
    24    29    30    1
    25    30    31    1
    26    30    32    1
    27    28    33    1
    28     4     5    1
    29     5     6    1
    30     6     1    1
    31    32    24    1
    32    33    24    1
    33    31    26    1
    34     9    13    1
    35    12    14    1
    36    22    23    1
@<TRIPOS>MOLECULE
*****
 33 36 0 0 0
SMALL
GASTEIGER

@<TRIPOS>ATOM
      1 N           8.5613   -6.9630   27.8648 N.3     1  UNL1       -0.2689
      2 C           9.0140   -6.2242   26.6403 C.3     1  UNL1        0.0897
      3 C           8.4169   -4.8894   26.3062 C.3     1  UNL1        0.0900
      4 N           7.3671   -4.2933   27.1965 N.3     1  UNL1       -0.2626
      5 C           6.9144   -5.0321   28.4209 C.3     1  UNL1        0.0900
      6 C           7.5115   -6.3670   28.7550 C.3     1  UNL1        0.0897
      7 C           9.1584   -8.2979   28.1989 C.3     1  UNL1        0.0937
      8 C           8.5760   -9.5485   27.6101 C.3     1  UNL1        0.1082
      9 N           4.9531  -11.1686   27.6170 N.am    1  UNL1       -0.2921
     10 C           6.4405  -11.0220   27.7452 C.2     1  UNL1        0.3007
     11 O           7.2794  -12.2021   28.1368 O.2     1  UNL1       -0.2528
     12 N           7.0888   -9.6952   27.4819 N.am    1  UNL1       -0.2875
     13 H           4.4025  -10.3940   27.3600 H       1  UNL1        0.1508
     14 H           6.5381   -8.9206   27.2248 H       1  UNL1        0.1510
     15 C           4.3898  -12.8268   26.4199 C.3     1  UNL1        0.0197
     16 C           4.3048  -12.4954   27.8804 C.3     1  UNL1        0.0583
     17 C           4.2199  -12.1640   29.3408 C.3     1  UNL1        0.0197
     18 C           3.6565  -13.8222   28.1437 C.3     1  UNL1        0.0197
     19 C           6.7700   -2.9585   26.8623 C.3     1  UNL1        0.1585
     20 C           6.4572   -2.6125   25.4367 C.2     1  UNL1        0.2388
     21 O           6.8232   -1.2624   24.8949 O.2     1  UNL1       -0.2736
     22 N           5.7784   -3.6164   24.5528 N.am    1  UNL1       -0.3063
     23 H           5.5382   -4.5025   24.9084 H       1  UNL1        0.1493
     24 C           5.4656   -3.2704   23.1271 C.3     1  UNL1        0.0568
     25 C           6.3854   -3.7141   22.0285 C.3     1  UNL1        0.0180
     26 C           6.0725   -3.3681   20.6029 C.3     1  UNL1        0.0016
     27 C           4.8399   -2.5783   20.2760 C.3     1  UNL1        0.0001
     28 C           3.9201   -2.1346   21.3746 C.3     1  UNL1        0.0016
     29 C           6.3753   -3.7918   22.8010 C.3     1  UNL1        0.0001
     30 C           7.6180   -4.5039   22.3554 C.3     1  UNL1        0.0016
     31 C           7.3052   -4.1579   20.9298 C.3     1  UNL1        0.0001
     32 C           6.6982   -4.0602   23.4541 C.3     1  UNL1        0.0180
     33 C           4.2330   -2.4806   22.8002 C.3     1  UNL1        0.0180
@<TRIPOS>BOND
     1    15    16    1
     2    16    17    1
     3    16    18    1
     4    16     9    1
     5     9    10   am
     6    10    11    2
     7    10    12   am
     8    12     8    1
     9     8     7    1
    10     7     1    1
    11     1     2    1
    12     2     3    1
    13     3     4    1
    14     4    19    1
    15    19    20    1
    16    20    21    2
    17    20    22   am
    18    22    24    1
    19    24    25    1
    20    25    26    1
    21    26    27    1
    22    27    28    1
    23    28    29    1
    24    29    30    1
    25    30    31    1
    26    30    32    1
    27    28    33    1
    28     4     5    1
    29     5     6    1
    30     6     1    1
    31    32    24    1
    32    33    24    1
    33    31    26    1
    34     9    13    1
    35    12    14    1
    36    22    23    1
@<TRIPOS>MOLECULE
*****
 33 36 0 0 0
SMALL
GASTEIGER

@<TRIPOS>ATOM
      1 N          -8.1312  -16.0492   25.5937 N.3     1  UNL1       -0.2689
      2 C          -8.2853  -15.3684   24.2659 C.3     1  UNL1        0.0897
      3 C          -9.2056  -15.9436   23.2305 C.3     1  UNL1        0.0900
      4 N          -9.9719  -17.1996   23.5228 N.3     1  UNL1       -0.2626
      5 C          -9.8179  -17.8803   24.8505 C.3     1  UNL1        0.0900
      6 C          -8.8975  -17.3051   25.8860 C.3     1  UNL1        0.0897
      7 C          -7.2109  -15.4740   26.6290 C.3     1  UNL1        0.0937
      8 C          -5.7593  -15.2689   26.3114 C.3     1  UNL1        0.1082
      9 N          -3.9368  -16.3391   22.9523 N.am    1  UNL1       -0.2921
     10 C          -4.3982  -16.3485   24.3796 C.2     1  UNL1        0.3007
     11 O          -3.9598  -17.4468   25.3024 O.2     1  UNL1       -0.2528
     12 N          -5.2979  -15.2595   24.8841 N.am    1  UNL1       -0.2875
     13 H          -4.2246  -15.6182   22.3467 H       1  UNL1        0.1508
     14 H          -5.5857  -14.5386   24.2785 H       1  UNL1        0.1510
     15 C          -4.0189  -18.4586   22.9211 C.3     1  UNL1        0.0197
     16 C          -3.0370  -17.4281   22.4478 C.3     1  UNL1        0.0583
     17 C          -2.0552  -16.3976   21.9745 C.3     1  UNL1        0.0197
     18 C          -2.1373  -18.5171   21.9433 C.3     1  UNL1        0.0197
     19 C         -10.8923  -17.7747   22.4874 C.3     1  UNL1        0.1585
     20 C         -10.4109  -18.8683   21.5805 C.2     1  UNL1        0.2388
     21 O         -11.1020  -20.1996   21.5785 O.2     1  UNL1       -0.2736
     22 N          -9.2385  -18.6306   20.6756 N.am    1  UNL1       -0.3063
     23 H          -8.7850  -17.7568   20.6769 H       1  UNL1        0.1493
     24 C          -8.7572  -19.7241   19.7686 C.3     1  UNL1        0.0568
     25 C          -7.4156  -20.3540   19.9997 C.3     1  UNL1        0.0180
     26 C          -6.9343  -21.4475   19.0927 C.3     1  UNL1        0.0016
     27 C          -7.7946  -21.9112   17.9548 C.3     1  UNL1        0.0001
     28 C          -9.1362  -21.2813   17.7238 C.3     1  UNL1        0.0016
     29 C          -7.8265  -19.7943   20.3473 C.3     1  UNL1        0.0001
     30 C          -6.5553  -19.8903   21.1376 C.3     1  UNL1        0.0016
     31 C          -6.0740  -20.9838   20.2307 C.3     1  UNL1        0.0001
     32 C          -7.8969  -19.2605   20.9066 C.3     1  UNL1        0.0180
     33 C          -9.6175  -20.1878   18.6307 C.3     1  UNL1        0.0180
@<TRIPOS>BOND
     1    15    16    1
     2    16    17    1
     3    16    18    1
     4    16     9    1
     5     9    10   am
     6    10    11    2
     7    10    12   am
     8    12     8    1
     9     8     7    1
    10     7     1    1
    11     1     2    1
    12     2     3    1
    13     3     4    1
    14     4    19    1
    15    19    20    1
    16    20    21    2
    17    20    22   am
    18    22    24    1
    19    24    25    1
    20    25    26    1
    21    26    27    1
    22    27    28    1
    23    28    29    1
    24    29    30    1
    25    30    31    1
    26    30    32    1
    27    28    33    1
    28     4     5    1
    29     5     6    1
    30     6     1    1
    31    32    24    1
    32    33    24    1
    33    31    26    1
    34     9    13    1
    35    12    14    1
    36    22    23    1
@<TRIPOS>MOLECULE
*****
 33 36 0 0 0
SMALL
GASTEIGER

@<TRIPOS>ATOM
      1 N         -11.1015  -18.8270   21.1524 N.3     1  UNL1       -0.2689
      2 C          -9.9589  -19.1643   22.0638 C.3     1  UNL1        0.0897
      3 C          -8.6684  -19.6723   21.4923 C.3     1  UNL1        0.0900
      4 N          -8.5205  -19.8429   20.0094 N.3     1  UNL1       -0.2626
      5 C          -9.6631  -19.5055   19.0980 C.3     1  UNL1        0.0900
      6 C         -10.9536  -18.9976   19.6695 C.3     1  UNL1        0.0897
      7 C         -12.3920  -18.3190   21.7240 C.3     1  UNL1        0.0937
      8 C         -12.4923  -18.0058   23.1874 C.3     1  UNL1        0.1082
      9 N          -9.0098  -17.1203   24.8721 N.am    1  UNL1       -0.2921
     10 C         -10.2268  -17.0275   24.0000 C.2     1  UNL1        0.3007
     11 O         -10.3951  -15.8639   23.0687 O.2     1  UNL1       -0.2528
     12 N         -11.2754  -18.0985   24.0594 N.am    1  UNL1       -0.2875
     13 H          -8.8993  -17.8841   25.4834 H       1  UNL1        0.1508
     14 H         -11.1649  -18.8622   24.6707 H       1  UNL1        0.1510
     15 C          -7.3609  -16.7041   23.6040 C.3     1  UNL1        0.0197
     16 C          -7.9612  -16.0493   24.8127 C.3     1  UNL1        0.0583
     17 C          -8.5615  -15.3946   26.0214 C.3     1  UNL1        0.0197
     18 C          -6.9126  -14.9784   24.7533 C.3     1  UNL1        0.0197
     19 C          -7.2301  -20.3508   19.4379 C.3     1  UNL1        0.1585
     20 C          -5.9447  -20.1361   20.1808 C.2     1  UNL1        0.2388
     21 O          -5.2523  -21.2963   20.8323 O.2     1  UNL1       -0.2736
     22 N          -5.3519  -18.7613   20.2722 N.am    1  UNL1       -0.3063
     23 H          -5.8064  -17.9998   19.8446 H       1  UNL1        0.1493
     24 C          -4.0666  -18.5466   21.0152 C.3     1  UNL1        0.0568
     25 C          -2.7670  -18.5003   20.2676 C.3     1  UNL1        0.0180
     26 C          -1.4817  -18.2856   21.0106 C.3     1  UNL1        0.0016
     27 C          -1.4961  -18.1172   22.5010 C.3     1  UNL1        0.0001
     28 C          -2.7957  -18.1636   23.2486 C.3     1  UNL1        0.0016
     29 C          -3.5112  -18.5982   20.0692 C.3     1  UNL1        0.0001
     30 C          -2.7526  -18.6686   18.7772 C.3     1  UNL1        0.0016
     31 C          -1.4674  -18.4539   19.5201 C.3     1  UNL1        0.0001
     32 C          -4.0522  -18.7149   19.5247 C.3     1  UNL1        0.0180
     33 C          -4.0809  -18.3782   22.5056 C.3     1  UNL1        0.0180
@<TRIPOS>BOND
     1    15    16    1
     2    16    17    1
     3    16    18    1
     4    16     9    1
     5     9    10   am
     6    10    11    2
     7    10    12   am
     8    12     8    1
     9     8     7    1
    10     7     1    1
    11     1     2    1
    12     2     3    1
    13     3     4    1
    14     4    19    1
    15    19    20    1
    16    20    21    2
    17    20    22   am
    18    22    24    1
    19    24    25    1
    20    25    26    1
    21    26    27    1
    22    27    28    1
    23    28    29    1
    24    29    30    1
    25    30    31    1
    26    30    32    1
    27    28    33    1
    28     4     5    1
    29     5     6    1
    30     6     1    1
    31    32    24    1
    32    33    24    1
    33    31    26    1
    34     9    13    1
    35    12    14    1
    36    22    23    1
