@<TRIPOS>MOLECULE
*****
 35 39 0 0 0
SMALL
GASTEIGER

@<TRIPOS>ATOM
      1 N          -8.8628  -17.9837   21.3952 N.3     1  UNL1       -0.2679
      2 C         -10.2858  -17.5108   21.3564 C.3     1  UNL1        0.0978
      3 C         -10.7711  -16.6870   20.2007 C.3     1  UNL1        0.0224
      4 C         -12.1941  -16.2141   20.1619 C.3     1  UNL1        0.0065
      5 C         -13.1317  -16.5650   21.2788 C.3     1  UNL1        0.0277
      6 C         -12.6464  -17.3888   22.4346 C.ar    1  UNL1       -0.0073
      7 C         -13.5841  -17.7397   23.5516 C.ar    1  UNL1       -0.0015
      8 C         -13.0988  -18.5635   24.7073 C.ar    1  UNL1        0.0203
      9 C         -11.6758  -19.0364   24.7461 C.ar    1  UNL1        0.0985
     10 N         -10.7381  -18.6855   23.6292 N.ar    1  UNL1       -0.2471
     11 C         -11.2234  -17.8617   22.4734 C.ar    1  UNL1        0.0695
     12 C          -8.5578  -19.4507   21.3257 C.3     1  UNL1        0.0738
     13 C          -7.7546  -20.1021   22.4122 C.3     1  UNL1        0.0347
     14 C          -6.4398  -20.7476   22.0887 C.3     1  UNL1        0.0736
     15 N          -2.9919  -18.2351   20.6571 N.3     1  UNL1       -0.2716
     16 C          -3.1724  -18.4952   22.1233 C.3     1  UNL1        0.0896
     17 C          -4.3217  -19.3327   22.6005 C.3     1  UNL1        0.0897
     18 N          -5.2905  -19.9101   21.6115 N.3     1  UNL1       -0.2703
     19 C          -5.1099  -19.6499   20.1453 C.3     1  UNL1        0.0897
     20 C          -3.9606  -18.8125   19.6681 C.3     1  UNL1        0.0896
     21 C          -1.3075  -16.2954   21.0453 C.3     1  UNL1        0.0173
     22 C          -1.8425  -17.3976   20.1799 C.3     1  UNL1        0.0577
     23 C          -1.2283  -17.6623   18.8373 C.3     1  UNL1        0.0173
     24 C          -7.7448  -16.9896   21.5035 C.3     1  UNL1        0.0886
     25 C          -7.2888  -16.5177   22.8524 C.3     1  UNL1        0.0748
     26 C          -8.2942  -16.2523   23.9335 C.3     1  UNL1        0.0432
     27 C          -7.8383  -15.7804   25.2824 C.ar    1  UNL1       -0.0234
     28 C          -8.8437  -15.5151   26.3634 C.ar    1  UNL1       -0.0045
     29 C          -8.3877  -15.0432   27.7122 C.ar    1  UNL1       -0.0003
     30 C          -6.9264  -14.8366   27.9800 C.ar    1  UNL1       -0.0003
     31 C          -5.9210  -15.1019   26.8990 C.ar    1  UNL1       -0.0032
     32 C          -6.3769  -15.5738   25.5502 C.ar    1  UNL1       -0.0103
     33 C          -5.3715  -15.8392   24.4690 C.3     1  UNL1        0.0953
     34 N          -5.8275  -16.3111   23.1202 N.3     1  UNL1       -0.2934
     35 H          -5.3677  -17.2056   22.9503 H       1  UNL1        0.1236
@<TRIPOS>BOND
     1    21    22    1
     2    22    23    1
     3    22    15    1
     4    15    16    1
     5    16    17    1
     6    17    18    1
     7    18    14    1
     8    14    13    1
     9    13    12    1
    10    12     1    1
    11     1    24    1
    12    25    24    1
    13    25    26    1
    14    26    27    1
    15    27    28   ar
    16    28    29   ar
    17    29    30   ar
    18    30    31   ar
    19    31    32   ar
    20    32    33    1
    21    33    34    1
    22     2     1    1
    23     2     3    1
    24     3     4    1
    25     4     5    1
    26     5     6    1
    27     6     7   ar
    28     7     8   ar
    29     8     9   ar
    30     9    10   ar
    31    10    11   ar
    32    18    19    1
    33    19    20    1
    34    20    15    1
    35    34    25    1
    36    11     2    1
    37    32    27   ar
    38    11     6   ar
    39    34    35    1
@<TRIPOS>MOLECULE
*****
 35 39 0 0 0
SMALL
GASTEIGER

@<TRIPOS>ATOM
      1 N          -8.3429  -18.7033   21.2072 N.3     1  UNL1       -0.2679
      2 C          -9.2221  -19.0980   22.3565 C.3     1  UNL1        0.0978
      3 C          -8.7714  -20.1598   23.3154 C.3     1  UNL1        0.0224
      4 C          -9.6506  -20.5546   24.4648 C.3     1  UNL1        0.0065
      5 C         -10.9806  -19.8876   24.6553 C.3     1  UNL1        0.0277
      6 C         -11.4312  -18.8258   23.6965 C.ar    1  UNL1       -0.0073
      7 C         -12.7612  -18.1588   23.8870 C.ar    1  UNL1       -0.0015
      8 C         -13.2119  -17.0970   22.9282 C.ar    1  UNL1        0.0203
      9 C         -12.3327  -16.7022   21.7788 C.ar    1  UNL1        0.0985
     10 N         -11.0028  -17.3692   21.5882 N.ar    1  UNL1       -0.2471
     11 C         -10.5520  -18.4310   22.5471 C.ar    1  UNL1        0.0695
     12 C          -8.3178  -19.5376   19.9609 C.3     1  UNL1        0.0738
     13 C          -7.2754  -20.6030   19.7924 C.3     1  UNL1        0.0347
     14 C          -6.2049  -20.7755   20.8288 C.3     1  UNL1        0.0736
     15 N          -2.5252  -18.1877   20.7150 N.3     1  UNL1       -0.2716
     16 C          -2.9250  -18.8671   21.9910 C.3     1  UNL1        0.0896
     17 C          -4.1516  -19.7298   22.0290 C.3     1  UNL1        0.0897
     18 N          -4.9784  -19.9129   20.7909 N.3     1  UNL1       -0.2703
     19 C          -4.5785  -19.2334   19.5148 C.3     1  UNL1        0.0897
     20 C          -3.3519  -18.3708   19.4768 C.3     1  UNL1        0.0896
     21 C          -0.0880  -17.7758   19.9145 C.3     1  UNL1        0.0173
     22 C          -1.2986  -17.3250   20.6770 C.3     1  UNL1        0.0577
     23 C          -1.2826  -16.0117   21.4014 C.3     1  UNL1        0.0173
     24 C          -7.4887  -17.4741   21.3040 C.3     1  UNL1        0.0886
     25 C          -7.0886  -16.9427   22.6485 C.3     1  UNL1        0.0748
     26 C          -8.1404  -16.5697   23.6508 C.3     1  UNL1        0.0432
     27 C          -7.7403  -16.0384   24.9953 C.ar    1  UNL1       -0.0234
     28 C          -8.7921  -15.6654   25.9976 C.ar    1  UNL1       -0.0045
     29 C          -8.3920  -15.1341   27.3421 C.ar    1  UNL1       -0.0003
     30 C          -6.9402  -14.9758   27.6842 C.ar    1  UNL1       -0.0003
     31 C          -5.8884  -15.3488   26.6820 C.ar    1  UNL1       -0.0032
     32 C          -6.2885  -15.8801   25.3375 C.ar    1  UNL1       -0.0103
     33 C          -5.2367  -16.2532   24.3352 C.3     1  UNL1        0.0953
     34 N          -5.6368  -16.7845   22.9907 N.3     1  UNL1       -0.2934
     35 H          -5.2106  -17.7067   22.8998 H       1  UNL1        0.1236
@<TRIPOS>BOND
     1    21    22    1
     2    22    23    1
     3    22    15    1
     4    15    16    1
     5    16    17    1
     6    17    18    1
     7    18    14    1
     8    14    13    1
     9    13    12    1
    10    12     1    1
    11     1    24    1
    12    25    24    1
    13    25    26    1
    14    26    27    1
    15    27    28   ar
    16    28    29   ar
    17    29    30   ar
    18    30    31   ar
    19    31    32   ar
    20    32    33    1
    21    33    34    1
    22     2     1    1
    23     2     3    1
    24     3     4    1
    25     4     5    1
    26     5     6    1
    27     6     7   ar
    28     7     8   ar
    29     8     9   ar
    30     9    10   ar
    31    10    11   ar
    32    18    19    1
    33    19    20    1
    34    20    15    1
    35    34    25    1
    36    11     2    1
    37    32    27   ar
    38    11     6   ar
    39    34    35    1
@<TRIPOS>MOLECULE
*****
 35 39 0 0 0
SMALL
GASTEIGER

@<TRIPOS>ATOM
      1 N          -7.0372  -19.6941   21.4003 N.3     1  UNL1       -0.2679
      2 C          -7.9884  -19.4116   22.5251 C.3     1  UNL1        0.0978
      3 C          -8.7213  -20.5396   23.1888 C.3     1  UNL1        0.0224
      4 C          -9.6725  -20.2571   24.3137 C.3     1  UNL1        0.0065
      5 C          -9.8909  -18.8466   24.7749 C.3     1  UNL1        0.0277
      6 C          -9.1580  -17.7186   24.1113 C.ar    1  UNL1       -0.0073
      7 C          -9.3764  -16.3080   24.5725 C.ar    1  UNL1       -0.0015
      8 C          -8.6435  -15.1800   23.9089 C.ar    1  UNL1        0.0203
      9 C          -7.6922  -15.4625   22.7840 C.ar    1  UNL1        0.0985
     10 N          -7.4739  -16.8730   22.3228 N.ar    1  UNL1       -0.2471
     11 C          -8.2068  -18.0011   22.9864 C.ar    1  UNL1        0.0695
     12 C          -7.3987  -19.3064   19.9971 C.3     1  UNL1        0.0738
     13 C          -8.1509  -20.2666   19.1239 C.3     1  UNL1        0.0347
     14 C          -9.6250  -20.0893   18.9104 C.3     1  UNL1        0.0736
     15 N         -12.0664  -17.7638   21.8905 N.3     1  UNL1       -0.2716
     16 C         -11.3131  -17.0426   20.8125 C.3     1  UNL1        0.0896
     17 C         -10.4992  -17.8178   19.8190 C.3     1  UNL1        0.0897
     18 N         -10.4388  -19.3141   19.9037 N.3     1  UNL1       -0.2703
     19 C         -11.1921  -20.0354   20.9819 C.3     1  UNL1        0.0897
     20 C         -12.0059  -19.2602   21.9753 C.3     1  UNL1        0.0896
     21 C         -12.8131  -15.4902   22.9022 C.3     1  UNL1        0.0173
     22 C         -12.8802  -16.9886   22.8840 C.3     1  UNL1        0.0577
     23 C         -13.7611  -17.7118   23.8592 C.3     1  UNL1        0.0173
     24 C          -5.7244  -20.3642   21.6786 C.3     1  UNL1        0.0886
     25 C          -4.4458  -19.5895   21.5551 C.3     1  UNL1        0.0748
     26 C          -3.8218  -19.3820   20.2070 C.3     1  UNL1        0.0432
     27 C          -2.5432  -18.6074   20.0835 C.ar    1  UNL1       -0.0234
     28 C          -1.9192  -18.3999   18.7353 C.ar    1  UNL1       -0.0045
     29 C          -0.6407  -17.6253   18.6119 C.ar    1  UNL1       -0.0003
     30 C           0.0138  -17.0582   19.8367 C.ar    1  UNL1       -0.0003
     31 C          -0.6101  -17.2657   21.1848 C.ar    1  UNL1       -0.0032
     32 C          -1.8887  -18.0403   21.3082 C.ar    1  UNL1       -0.0103
     33 C          -2.5127  -18.2478   22.6564 C.3     1  UNL1        0.0953
     34 N          -3.7913  -19.0224   22.7798 N.3     1  UNL1       -0.2934
     35 H          -4.4717  -18.4001   23.2159 H       1  UNL1        0.1236
@<TRIPOS>BOND
     1    21    22    1
     2    22    23    1
     3    22    15    1
     4    15    16    1
     5    16    17    1
     6    17    18    1
     7    18    14    1
     8    14    13    1
     9    13    12    1
    10    12     1    1
    11     1    24    1
    12    25    24    1
    13    25    26    1
    14    26    27    1
    15    27    28   ar
    16    28    29   ar
    17    29    30   ar
    18    30    31   ar
    19    31    32   ar
    20    32    33    1
    21    33    34    1
    22     2     1    1
    23     2     3    1
    24     3     4    1
    25     4     5    1
    26     5     6    1
    27     6     7   ar
    28     7     8   ar
    29     8     9   ar
    30     9    10   ar
    31    10    11   ar
    32    18    19    1
    33    19    20    1
    34    20    15    1
    35    34    25    1
    36    11     2    1
    37    32    27   ar
    38    11     6   ar
    39    34    35    1
@<TRIPOS>MOLECULE
*****
 35 39 0 0 0
SMALL
GASTEIGER

@<TRIPOS>ATOM
      1 N          -7.9983  -16.7190   23.6173 N.3     1  UNL1       -0.2679
      2 C          -9.2575  -17.4804   23.9084 C.3     1  UNL1        0.0978
      3 C          -9.2916  -18.4711   25.0342 C.3     1  UNL1        0.0224
      4 C         -10.5507  -19.2325   25.3253 C.3     1  UNL1        0.0065
      5 C         -11.7758  -19.0033   24.4908 C.3     1  UNL1        0.0277
      6 C         -11.7417  -18.0126   23.3650 C.ar    1  UNL1       -0.0073
      7 C         -12.9668  -17.7832   22.5304 C.ar    1  UNL1       -0.0015
      8 C         -12.9328  -16.7926   21.4046 C.ar    1  UNL1        0.0203
      9 C         -11.6736  -16.0312   21.1135 C.ar    1  UNL1        0.0985
     10 N         -10.4485  -16.2604   21.9480 N.ar    1  UNL1       -0.2471
     11 C         -10.4826  -17.2512   23.0738 C.ar    1  UNL1        0.0695
     12 C          -7.3320  -15.9281   24.7036 C.3     1  UNL1        0.0738
     13 C          -5.8668  -15.6185   24.6152 C.3     1  UNL1        0.0347
     14 C          -4.8605  -16.7290   24.6789 C.3     1  UNL1        0.0736
     15 N          -2.1319  -17.4958   21.1836 N.3     1  UNL1       -0.2716
     16 C          -2.6723  -18.6465   21.9798 C.3     1  UNL1        0.0896
     17 C          -3.5818  -18.3909   23.1449 C.3     1  UNL1        0.0897
     18 N          -3.9510  -16.9846   23.5138 N.3     1  UNL1       -0.2703
     19 C          -3.4106  -15.8339   22.7176 C.3     1  UNL1        0.0897
     20 C          -2.5011  -16.0895   21.5525 C.3     1  UNL1        0.0896
     21 C           0.2607  -17.5901   20.1753 C.3     1  UNL1        0.0173
     22 C          -1.2224  -17.7513   20.0185 C.3     1  UNL1        0.0577
     23 C          -1.7958  -18.1681   18.6966 C.3     1  UNL1        0.0173
     24 C          -7.4055  -16.7486   22.2397 C.3     1  UNL1        0.0886
     25 C          -7.3005  -18.0471   21.4961 C.3     1  UNL1        0.0748
     26 C          -8.2850  -18.3724   20.4121 C.3     1  UNL1        0.0432
     27 C          -8.1800  -19.6709   19.6685 C.ar    1  UNL1       -0.0234
     28 C          -9.1644  -19.9961   18.5845 C.ar    1  UNL1       -0.0045
     29 C          -9.0594  -21.2946   17.8410 C.ar    1  UNL1       -0.0003
     30 C          -7.9699  -22.2678   18.1814 C.ar    1  UNL1       -0.0003
     31 C          -6.9855  -21.9426   19.2653 C.ar    1  UNL1       -0.0032
     32 C          -7.0905  -20.6441   20.0089 C.ar    1  UNL1       -0.0103
     33 C          -6.1060  -20.3188   21.0929 C.3     1  UNL1        0.0953
     34 N          -6.2111  -19.0204   21.8365 N.3     1  UNL1       -0.2934
     35 H          -5.3263  -18.5311   21.7011 H       1  UNL1        0.1236
@<TRIPOS>BOND
     1    21    22    1
     2    22    23    1
     3    22    15    1
     4    15    16    1
     5    16    17    1
     6    17    18    1
     7    18    14    1
     8    14    13    1
     9    13    12    1
    10    12     1    1
    11     1    24    1
    12    25    24    1
    13    25    26    1
    14    26    27    1
    15    27    28   ar
    16    28    29   ar
    17    29    30   ar
    18    30    31   ar
    19    31    32   ar
    20    32    33    1
    21    33    34    1
    22     2     1    1
    23     2     3    1
    24     3     4    1
    25     4     5    1
    26     5     6    1
    27     6     7   ar
    28     7     8   ar
    29     8     9   ar
    30     9    10   ar
    31    10    11   ar
    32    18    19    1
    33    19    20    1
    34    20    15    1
    35    34    25    1
    36    11     2    1
    37    32    27   ar
    38    11     6   ar
    39    34    35    1
@<TRIPOS>MOLECULE
*****
 35 39 0 0 0
SMALL
GASTEIGER

@<TRIPOS>ATOM
      1 N           7.6989   -2.8180   20.7971 N.3     1  UNL1       -0.2679
      2 C           6.3440   -2.7988   20.1538 C.3     1  UNL1        0.0978
      3 C           5.2793   -3.7473   20.6190 C.3     1  UNL1        0.0224
      4 C           3.9244   -3.7280   19.9756 C.3     1  UNL1        0.0065
      5 C           3.6343   -2.7602   18.8670 C.3     1  UNL1        0.0277
      6 C           4.6990   -1.8116   18.4018 C.ar    1  UNL1       -0.0073
      7 C           4.4089   -0.8437   17.2931 C.ar    1  UNL1       -0.0015
      8 C           5.4737    0.1048   16.8279 C.ar    1  UNL1        0.0203
      9 C           6.8286    0.0855   17.4712 C.ar    1  UNL1        0.0985
     10 N           7.1187   -0.8823   18.5798 N.ar    1  UNL1       -0.2471
     11 C           6.0539   -1.8309   19.0451 C.ar    1  UNL1        0.0695
     12 C           8.2451   -1.5740   21.4328 C.3     1  UNL1        0.0738
     13 C           7.4663   -0.8778   22.5093 C.3     1  UNL1        0.0347
     14 C           6.8274    0.4509   22.2328 C.3     1  UNL1        0.0736
     15 N           2.7286    0.6354   20.3846 N.3     1  UNL1       -0.2716
     16 C           3.0159   -0.3541   21.4747 C.3     1  UNL1        0.0896
     17 C           4.3822   -0.4156   22.0908 C.3     1  UNL1        0.0897
     18 N           5.4612    0.5124   21.6168 N.3     1  UNL1       -0.2703
     19 C           5.1738    1.5019   20.5266 C.3     1  UNL1        0.0897
     20 C           3.8075    1.5634   19.9106 C.3     1  UNL1        0.0896
     21 C           1.1817    1.2889   18.4022 C.3     1  UNL1        0.0173
     22 C           1.3623    0.6969   19.7685 C.3     1  UNL1        0.0577
     23 C           0.1767    0.1665   20.5188 C.3     1  UNL1        0.0173
     24 C           8.5076   -4.0813   20.8049 C.3     1  UNL1        0.0886
     25 C           8.4083   -5.0284   21.9639 C.3     1  UNL1        0.0748
     26 C           7.7346   -4.5940   23.2317 C.3     1  UNL1        0.0432
     27 C           7.6353   -5.5411   24.3908 C.ar    1  UNL1       -0.0234
     28 C           6.9616   -5.1067   25.6586 C.ar    1  UNL1       -0.0045
     29 C           6.8623   -6.0537   26.8176 C.ar    1  UNL1       -0.0003
     30 C           7.4368   -7.4351   26.7087 C.ar    1  UNL1       -0.0003
     31 C           8.1105   -7.8694   25.4409 C.ar    1  UNL1       -0.0032
     32 C           8.2098   -6.9224   24.2819 C.ar    1  UNL1       -0.0103
     33 C           8.8835   -7.3567   23.0140 C.3     1  UNL1        0.0953
     34 N           8.9828   -6.4097   21.8551 N.3     1  UNL1       -0.2934
     35 H           8.5189   -6.8602   21.0662 H       1  UNL1        0.1236
@<TRIPOS>BOND
     1    21    22    1
     2    22    23    1
     3    22    15    1
     4    15    16    1
     5    16    17    1
     6    17    18    1
     7    18    14    1
     8    14    13    1
     9    13    12    1
    10    12     1    1
    11     1    24    1
    12    25    24    1
    13    25    26    1
    14    26    27    1
    15    27    28   ar
    16    28    29   ar
    17    29    30   ar
    18    30    31   ar
    19    31    32   ar
    20    32    33    1
    21    33    34    1
    22     2     1    1
    23     2     3    1
    24     3     4    1
    25     4     5    1
    26     5     6    1
    27     6     7   ar
    28     7     8   ar
    29     8     9   ar
    30     9    10   ar
    31    10    11   ar
    32    18    19    1
    33    19    20    1
    34    20    15    1
    35    34    25    1
    36    11     2    1
    37    32    27   ar
    38    11     6   ar
    39    34    35    1
@<TRIPOS>MOLECULE
*****
 35 39 0 0 0
SMALL
GASTEIGER

@<TRIPOS>ATOM
      1 N           7.7159   -3.8510   24.6723 N.3     1  UNL1       -0.2679
      2 C           8.2938   -5.2284   24.5348 C.3     1  UNL1        0.0978
      3 C           8.6546   -5.7584   23.1788 C.3     1  UNL1        0.0224
      4 C           9.2325   -7.1357   23.0413 C.3     1  UNL1        0.0065
      5 C           9.4497   -7.9831   24.2598 C.3     1  UNL1        0.0277
      6 C           9.0890   -7.4530   25.6158 C.ar    1  UNL1       -0.0073
      7 C           9.3062   -8.3003   26.8344 C.ar    1  UNL1       -0.0015
      8 C           8.9454   -7.7703   28.1905 C.ar    1  UNL1        0.0203
      9 C           8.3675   -6.3930   28.3280 C.ar    1  UNL1        0.0985
     10 N           8.1503   -5.5457   27.1095 N.ar    1  UNL1       -0.2471
     11 C           8.5110   -6.0757   25.7533 C.ar    1  UNL1        0.0695
     12 C           8.6235   -2.6575   24.7135 C.3     1  UNL1        0.0738
     13 C           8.6335   -1.6832   23.5730 C.3     1  UNL1        0.0347
     14 C           8.6697   -2.1835   22.1594 C.3     1  UNL1        0.0736
     15 N           6.0579   -0.2767   19.0301 N.3     1  UNL1       -0.2716
     16 C           6.0821    0.2752   20.4247 C.3     1  UNL1        0.0896
     17 C           6.9528   -0.3604   21.4678 C.3     1  UNL1        0.0897
     18 N           7.7991   -1.5479   21.1163 N.3     1  UNL1       -0.2703
     19 C           7.7748   -2.0998   19.7217 C.3     1  UNL1        0.0897
     20 C           6.9042   -1.4642   18.6787 C.3     1  UNL1        0.0896
     21 C           5.0478    1.8514   17.9343 C.3     1  UNL1        0.0173
     22 C           5.1872    0.3589   17.9870 C.3     1  UNL1        0.0577
     23 C           4.4560   -0.4981   16.9966 C.3     1  UNL1        0.0173
     24 C           6.2304   -3.6672   24.7687 C.3     1  UNL1        0.0886
     25 C           5.4410   -3.2877   23.5509 C.3     1  UNL1        0.0748
     26 C           4.5015   -2.1194   23.6001 C.3     1  UNL1        0.0432
     27 C           3.7122   -1.7399   22.3823 C.ar    1  UNL1       -0.0234
     28 C           2.7727   -0.5716   22.4315 C.ar    1  UNL1       -0.0045
     29 C           1.9834   -0.1922   21.2138 C.ar    1  UNL1       -0.0003
     30 C           2.1336   -0.9810   19.9468 C.ar    1  UNL1       -0.0003
     31 C           3.0731   -2.1492   19.8976 C.ar    1  UNL1       -0.0032
     32 C           3.8624   -2.5287   21.1153 C.ar    1  UNL1       -0.0103
     33 C           4.8019   -3.6970   21.0661 C.3     1  UNL1        0.0953
     34 N           5.5912   -4.0765   22.2839 N.3     1  UNL1       -0.2934
     35 H           6.5761   -4.0295   22.0228 H       1  UNL1        0.1236
@<TRIPOS>BOND
     1    21    22    1
     2    22    23    1
     3    22    15    1
     4    15    16    1
     5    16    17    1
     6    17    18    1
     7    18    14    1
     8    14    13    1
     9    13    12    1
    10    12     1    1
    11     1    24    1
    12    25    24    1
    13    25    26    1
    14    26    27    1
    15    27    28   ar
    16    28    29   ar
    17    29    30   ar
    18    30    31   ar
    19    31    32   ar
    20    32    33    1
    21    33    34    1
    22     2     1    1
    23     2     3    1
    24     3     4    1
    25     4     5    1
    26     5     6    1
    27     6     7   ar
    28     7     8   ar
    29     8     9   ar
    30     9    10   ar
    31    10    11   ar
    32    18    19    1
    33    19    20    1
    34    20    15    1
    35    34    25    1
    36    11     2    1
    37    32    27   ar
    38    11     6   ar
    39    34    35    1
@<TRIPOS>MOLECULE
*****
 35 39 0 0 0
SMALL
GASTEIGER

@<TRIPOS>ATOM
      1 N           7.2032   -4.0691   23.4473 N.3     1  UNL1       -0.2679
      2 C           7.6804   -5.2814   24.1907 C.3     1  UNL1        0.0978
      3 C           8.3865   -6.3821   23.4559 C.3     1  UNL1        0.0224
      4 C           8.8637   -7.5944   24.1993 C.3     1  UNL1        0.0065
      5 C           8.6347   -7.7061   25.6775 C.3     1  UNL1        0.0277
      6 C           7.9286   -6.6054   26.4123 C.ar    1  UNL1       -0.0073
      7 C           7.6996   -6.7171   27.8905 C.ar    1  UNL1       -0.0015
      8 C           6.9934   -5.6165   28.6253 C.ar    1  UNL1        0.0203
      9 C           6.5162   -4.4042   27.8820 C.ar    1  UNL1        0.0985
     10 N           6.7452   -4.2925   26.4038 N.ar    1  UNL1       -0.2471
     11 C           7.4514   -5.3931   25.6689 C.ar    1  UNL1        0.0695
     12 C           8.1224   -2.9003   23.2501 C.3     1  UNL1        0.0738
     13 C           8.9541   -2.8019   22.0056 C.3     1  UNL1        0.0347
     14 C           8.3366   -3.0785   20.6670 C.3     1  UNL1        0.0736
     15 N           5.1689   -0.3279   19.0390 N.3     1  UNL1       -0.2716
     16 C           6.1893    0.1932   20.0071 C.3     1  UNL1        0.0896
     17 C           7.2452   -0.7237   20.5498 C.3     1  UNL1        0.0897
     18 N           7.2807   -2.1616   20.1243 N.3     1  UNL1       -0.2703
     19 C           6.2603   -2.6827   19.1562 C.3     1  UNL1        0.0897
     20 C           5.2044   -1.7658   18.6135 C.3     1  UNL1        0.0896
     21 C           4.2759    2.0752   18.6173 C.3     1  UNL1        0.0173
     22 C           4.1130    0.5890   18.4963 C.3     1  UNL1        0.0577
     23 C           2.8942    0.0197   17.8328 C.3     1  UNL1        0.0173
     24 C           5.8068   -4.0256   22.9012 C.3     1  UNL1        0.0886
     25 C           4.8942   -2.8921   23.2650 C.3     1  UNL1        0.0748
     26 C           4.0723   -2.2211   22.2047 C.3     1  UNL1        0.0432
     27 C           3.1596   -1.0876   22.5685 C.ar    1  UNL1       -0.0234
     28 C           2.3378   -0.4166   21.5082 C.ar    1  UNL1       -0.0045
     29 C           1.4252    0.7169   21.8720 C.ar    1  UNL1       -0.0003
     30 C           1.3345    1.1794   23.2960 C.ar    1  UNL1       -0.0003
     31 C           2.1564    0.5084   24.3563 C.ar    1  UNL1       -0.0032
     32 C           3.0690   -0.6251   23.9925 C.ar    1  UNL1       -0.0103
     33 C           3.8909   -1.2962   25.0528 C.3     1  UNL1        0.0953
     34 N           4.8035   -2.4296   24.6890 N.3     1  UNL1       -0.2934
     35 H           4.5082   -3.2344   25.2417 H       1  UNL1        0.1236
@<TRIPOS>BOND
     1    21    22    1
     2    22    23    1
     3    22    15    1
     4    15    16    1
     5    16    17    1
     6    17    18    1
     7    18    14    1
     8    14    13    1
     9    13    12    1
    10    12     1    1
    11     1    24    1
    12    25    24    1
    13    25    26    1
    14    26    27    1
    15    27    28   ar
    16    28    29   ar
    17    29    30   ar
    18    30    31   ar
    19    31    32   ar
    20    32    33    1
    21    33    34    1
    22     2     1    1
    23     2     3    1
    24     3     4    1
    25     4     5    1
    26     5     6    1
    27     6     7   ar
    28     7     8   ar
    29     8     9   ar
    30     9    10   ar
    31    10    11   ar
    32    18    19    1
    33    19    20    1
    34    20    15    1
    35    34    25    1
    36    11     2    1
    37    32    27   ar
    38    11     6   ar
    39    34    35    1
@<TRIPOS>MOLECULE
*****
 35 39 0 0 0
SMALL
GASTEIGER

@<TRIPOS>ATOM
      1 N          -0.1302    2.7076   20.4064 N.3     1  UNL1       -0.2679
      2 C          -1.0529    3.2141   19.3377 C.3     1  UNL1        0.0978
      3 C          -0.5084    3.5823   17.9895 C.3     1  UNL1        0.0224
      4 C          -1.4311    4.0889   16.9208 C.3     1  UNL1        0.0065
      5 C          -2.8982    4.2272   17.2004 C.3     1  UNL1        0.0277
      6 C          -3.4427    3.8590   18.5486 C.ar    1  UNL1       -0.0073
      7 C          -4.9100    3.9974   18.8283 C.ar    1  UNL1       -0.0015
      8 C          -5.4545    3.6292   20.1766 C.ar    1  UNL1        0.0203
      9 C          -4.5318    3.1227   21.2453 C.ar    1  UNL1        0.0985
     10 N          -3.0647    2.9843   20.9657 N.ar    1  UNL1       -0.2471
     11 C          -2.5201    3.3525   19.6173 C.ar    1  UNL1        0.0695
     12 C           0.5203    3.6711   21.3542 C.3     1  UNL1        0.0738
     13 C           0.3778    3.4784   22.8349 C.3     1  UNL1        0.0347
     14 C           1.5863    3.1815   23.6723 C.3     1  UNL1        0.0736
     15 N           4.1408   -0.4050   22.7441 N.3     1  UNL1       -0.2716
     16 C           2.9483   -0.5460   23.6430 C.3     1  UNL1        0.0896
     17 C           2.0967    0.6495   23.9524 C.3     1  UNL1        0.0897
     18 N           2.4378    1.9860   23.3630 N.3     1  UNL1       -0.2703
     19 C           3.6304    2.1270   22.4641 C.3     1  UNL1        0.0897
     20 C           4.4819    0.9315   22.1547 C.3     1  UNL1        0.0896
     21 C           4.6172   -2.9486   22.9751 C.3     1  UNL1        0.0173
     22 C           4.9924   -1.6005   22.4347 C.3     1  UNL1        0.0577
     23 C           6.2190   -1.4479   21.5850 C.3     1  UNL1        0.0173
     24 C           0.1419    1.2375   20.5274 C.3     1  UNL1        0.0886
     25 C           1.3569    0.6437   19.8783 C.3     1  UNL1        0.0748
     26 C           1.6714   -0.8111   20.0646 C.3     1  UNL1        0.0432
     27 C           2.8865   -1.4048   19.4156 C.ar    1  UNL1       -0.0234
     28 C           3.2010   -2.8596   19.6019 C.ar    1  UNL1       -0.0045
     29 C           4.4160   -3.4533   18.9529 C.ar    1  UNL1       -0.0003
     30 C           5.3164   -2.5922   18.1175 C.ar    1  UNL1       -0.0003
     31 C           5.0019   -1.1375   17.9311 C.ar    1  UNL1       -0.0032
     32 C           3.7869   -0.5438   18.5802 C.ar    1  UNL1       -0.0103
     33 C           3.4723    0.9110   18.3939 C.3     1  UNL1        0.0953
     34 N           2.2573    1.5047   19.0429 N.3     1  UNL1       -0.2934
     35 H           1.6829    1.8918   18.2941 H       1  UNL1        0.1236
@<TRIPOS>BOND
     1    21    22    1
     2    22    23    1
     3    22    15    1
     4    15    16    1
     5    16    17    1
     6    17    18    1
     7    18    14    1
     8    14    13    1
     9    13    12    1
    10    12     1    1
    11     1    24    1
    12    25    24    1
    13    25    26    1
    14    26    27    1
    15    27    28   ar
    16    28    29   ar
    17    29    30   ar
    18    30    31   ar
    19    31    32   ar
    20    32    33    1
    21    33    34    1
    22     2     1    1
    23     2     3    1
    24     3     4    1
    25     4     5    1
    26     5     6    1
    27     6     7   ar
    28     7     8   ar
    29     8     9   ar
    30     9    10   ar
    31    10    11   ar
    32    18    19    1
    33    19    20    1
    34    20    15    1
    35    34    25    1
    36    11     2    1
    37    32    27   ar
    38    11     6   ar
    39    34    35    1
@<TRIPOS>MOLECULE
*****
 35 39 0 0 0
SMALL
GASTEIGER

@<TRIPOS>ATOM
      1 N           7.2342   -3.2004   23.2303 N.3     1  UNL1       -0.2679
      2 C           6.9957   -3.6550   24.6398 C.3     1  UNL1        0.0978
      3 C           6.4571   -2.6933   25.6570 C.3     1  UNL1        0.0224
      4 C           6.2186   -3.1479   27.0665 C.3     1  UNL1        0.0065
      5 C           6.5188   -4.5642   27.4586 C.3     1  UNL1        0.0277
      6 C           7.0574   -5.5259   26.4413 C.ar    1  UNL1       -0.0073
      7 C           7.3577   -6.9424   26.8334 C.ar    1  UNL1       -0.0015
      8 C           7.8963   -7.9041   25.8162 C.ar    1  UNL1        0.0203
      9 C           8.1348   -7.4495   24.4067 C.ar    1  UNL1        0.0985
     10 N           7.8346   -6.0331   24.0146 N.ar    1  UNL1       -0.2471
     11 C           7.2959   -5.0713   25.0319 C.ar    1  UNL1        0.0695
     12 C           8.2776   -2.1616   22.9437 C.3     1  UNL1        0.0738
     13 C           9.2944   -2.3972   21.8664 C.3     1  UNL1        0.0347
     14 C           9.3669   -1.4718   20.6881 C.3     1  UNL1        0.0736
     15 N           5.6007   -0.2604   18.5438 N.3     1  UNL1       -0.2716
     16 C           6.0323    0.4775   19.7763 C.3     1  UNL1        0.0896
     17 C           7.2878    0.0737   20.4912 C.3     1  UNL1        0.0897
     18 N           8.1115   -1.0680   19.9734 N.3     1  UNL1       -0.2703
     19 C           7.6798   -1.8059   18.7408 C.3     1  UNL1        0.0897
     20 C           6.4244   -1.4020   18.0260 C.3     1  UNL1        0.0896
     21 C           3.7749   -0.7390   16.7584 C.3     1  UNL1        0.0173
     22 C           4.3452    0.1434   17.8290 C.3     1  UNL1        0.0577
     23 C           3.6602    1.4295   18.1847 C.3     1  UNL1        0.0173
     24 C           6.4292   -3.7845   22.1075 C.3     1  UNL1        0.0886
     25 C           5.2130   -3.0655   21.6034 C.3     1  UNL1        0.0748
     26 C           4.6286   -1.9338   22.3956 C.3     1  UNL1        0.0432
     27 C           3.4125   -1.2148   21.8914 C.ar    1  UNL1       -0.0234
     28 C           2.8281   -0.0831   22.6837 C.ar    1  UNL1       -0.0045
     29 C           1.6120    0.6358   22.1795 C.ar    1  UNL1       -0.0003
     30 C           0.9803    0.2230   20.8831 C.ar    1  UNL1       -0.0003
     31 C           1.5647   -0.9087   20.0909 C.ar    1  UNL1       -0.0032
     32 C           2.7808   -1.6276   20.5951 C.ar    1  UNL1       -0.0103
     33 C           3.3653   -2.7594   19.8029 C.3     1  UNL1        0.0953
     34 N           4.5814   -3.4783   20.3070 N.3     1  UNL1       -0.2934
     35 H           5.2981   -3.3849   19.5873 H       1  UNL1        0.1236
@<TRIPOS>BOND
     1    21    22    1
     2    22    23    1
     3    22    15    1
     4    15    16    1
     5    16    17    1
     6    17    18    1
     7    18    14    1
     8    14    13    1
     9    13    12    1
    10    12     1    1
    11     1    24    1
    12    25    24    1
    13    25    26    1
    14    26    27    1
    15    27    28   ar
    16    28    29   ar
    17    29    30   ar
    18    30    31   ar
    19    31    32   ar
    20    32    33    1
    21    33    34    1
    22     2     1    1
    23     2     3    1
    24     3     4    1
    25     4     5    1
    26     5     6    1
    27     6     7   ar
    28     7     8   ar
    29     8     9   ar
    30     9    10   ar
    31    10    11   ar
    32    18    19    1
    33    19    20    1
    34    20    15    1
    35    34    25    1
    36    11     2    1
    37    32    27   ar
    38    11     6   ar
    39    34    35    1
