@<TRIPOS>MOLECULE
*****
 34 37 0 0 0
SMALL
GASTEIGER

@<TRIPOS>ATOM
      1 C         -10.0230  -18.8803   21.7414 C.ar    1  UNL1        0.2229
      2 N         -11.4358  -18.9159   21.2384 N.ar    1  UNL1       -0.2110
      3 C         -12.3994  -17.8359   21.6318 C.ar    1  UNL1        0.1160
      4 C         -11.9504  -16.7202   22.5282 C.ar    1  UNL1        0.1085
      5 CL        -12.9141  -15.6401   22.9216 Cl      1  UNL1       -0.0777
      6 C         -10.5377  -16.6845   23.0312 C.ar    1  UNL1        0.1472
      7 N          -9.5740  -17.7646   22.6378 N.ar    1  UNL1       -0.1976
      8 N          -9.0593  -19.9603   21.3479 N.pl3   1  UNL1       -0.2679
      9 H          -9.3806  -20.8808   21.2113 H       1  UNL1        0.1565
     10 C          -4.6998  -18.9931   20.7923 C.ar    1  UNL1        0.0675
     11 C          -5.1986  -19.4687   22.1246 C.ar    1  UNL1        0.0190
     12 C          -6.6518  -19.7911   22.3098 C.ar    1  UNL1        0.0358
     13 C          -7.6062  -19.6379   21.1627 C.ar    1  UNL1        0.1344
     14 N          -7.1073  -19.1623   19.8305 N.ar    1  UNL1       -0.2277
     15 C          -5.6541  -18.8399   19.6453 C.ar    1  UNL1        0.1147
     16 C           1.1130  -17.7034   20.0515 C.3     1  UNL1        0.0897
     17 N          -0.3402  -18.0258   20.2367 N.3     1  UNL1       -0.2686
     18 C          -1.2951  -17.8699   19.0905 C.3     1  UNL1        0.0938
     19 C          -2.7483  -18.1924   19.2757 C.3     1  UNL1        0.1082
     20 N          -3.2466  -18.6707   20.6071 N.pl3   1  UNL1       -0.3034
     21 C          -2.2918  -18.8266   21.7534 C.3     1  UNL1        0.1082
     22 C          -0.8386  -18.5041   21.5682 C.3     1  UNL1        0.0938
     23 N         -10.0887  -15.5688   23.9276 N.pl3   1  UNL1       -0.2971
     24 H         -10.6602  -14.7768   24.0518 H       1  UNL1        0.1536
     25 C          -8.7689  -15.6597   24.6347 C.ar    1  UNL1        0.0493
     26 C          -8.7210  -15.6764   26.1339 C.ar    1  UNL1        0.0146
     27 C          -7.4013  -15.7673   26.8411 C.ar    1  UNL1        0.0012
     28 C          -6.1296  -15.8417   26.0491 C.ar    1  UNL1        0.0039
     29 C          -6.1776  -15.8251   24.5500 C.ar    1  UNL1        0.0726
     30 C          -7.4973  -15.7341   23.8428 C.ar    1  UNL1        0.0185
     31 C          -4.9058  -15.8994   23.7580 C.3     1  UNL1        0.4186
     32 F          -3.6341  -15.9737   22.9660 F       1  UNL1       -0.1659
     33 F          -4.5513  -17.1833   24.4477 F       1  UNL1       -0.1659
     34 F          -5.2603  -14.6155   23.0682 F       1  UNL1       -0.1659
@<TRIPOS>BOND
     1    16    17    1
     2    17    18    1
     3    18    19    1
     4    19    20    1
     5    20    10    1
     6    10    11   ar
     7    11    12   ar
     8    12    13   ar
     9    13     8    1
    10     8     1    1
    11     1     2   ar
    12     2     3   ar
    13     3     4   ar
    14     4     5    1
    15     4     6   ar
    16     6    23    1
    17    23    25    1
    18    25    26   ar
    19    26    27   ar
    20    27    28   ar
    21    28    29   ar
    22    29    31    1
    23    31    32    1
    24    31    33    1
    25    31    34    1
    26    29    30   ar
    27     6     7   ar
    28    13    14   ar
    29    14    15   ar
    30    20    21    1
    31    21    22    1
    32    22    17    1
    33    15    10   ar
    34     7     1   ar
    35    30    25   ar
    36     8     9    1
    37    23    24    1
@<TRIPOS>MOLECULE
*****
 34 37 0 0 0
SMALL
GASTEIGER

@<TRIPOS>ATOM
      1 C           8.2703   -4.6312   21.3563 C.ar    1  UNL1        0.2229
      2 N           9.2829   -3.7433   20.6957 N.ar    1  UNL1       -0.2110
      3 C           8.8513   -2.7701   19.6390 C.ar    1  UNL1        0.1160
      4 C           7.4070   -2.6847   19.2429 C.ar    1  UNL1        0.1085
      5 CL          6.9754   -1.7115   18.1862 Cl      1  UNL1       -0.0777
      6 C           6.3944   -3.5726   19.9034 C.ar    1  UNL1        0.1472
      7 N           6.8260   -4.5458   20.9602 N.ar    1  UNL1       -0.1976
      8 N           8.7019   -5.6043   22.4129 N.pl3   1  UNL1       -0.2679
      9 H           9.2135   -6.4075   22.1630 H       1  UNL1        0.1565
     10 C           7.6586   -4.8529   26.7253 C.ar    1  UNL1        0.0675
     11 C           7.5516   -6.2373   26.1580 C.ar    1  UNL1        0.0190
     12 C           7.8993   -6.4878   24.7206 C.ar    1  UNL1        0.0358
     13 C           8.3541   -5.3538   23.8504 C.ar    1  UNL1        0.1344
     14 N           8.4611   -3.9694   24.4176 N.ar    1  UNL1       -0.2277
     15 C           8.1134   -3.7189   25.8551 C.ar    1  UNL1        0.1147
     16 C           6.2674   -3.8509   32.4752 C.3     1  UNL1        0.0897
     17 N           6.6152   -4.1014   31.0377 N.3     1  UNL1       -0.2686
     18 C           6.9655   -5.4866   30.5812 C.3     1  UNL1        0.0938
     19 C           7.3133   -5.7371   29.1437 C.3     1  UNL1        0.1082
     20 N           7.3108   -4.6024   28.1628 N.pl3   1  UNL1       -0.3034
     21 C           6.9605   -3.2171   28.6193 C.3     1  UNL1        0.1082
     22 C           6.6127   -2.9666   30.0567 C.3     1  UNL1        0.0938
     23 N           4.9502   -3.4872   19.5073 N.pl3   1  UNL1       -0.2971
     24 H           4.5829   -4.1179   18.8466 H       1  UNL1        0.1536
     25 C           4.0656   -2.4409   20.1179 C.ar    1  UNL1        0.0493
     26 C           4.0521   -2.2450   21.6050 C.ar    1  UNL1        0.0146
     27 C           3.1675   -1.1987   22.2157 C.ar    1  UNL1        0.0012
     28 C           2.2965   -0.3484   21.3392 C.ar    1  UNL1        0.0039
     29 C           2.3101   -0.5443   19.8521 C.ar    1  UNL1        0.0726
     30 C           3.1946   -1.5906   19.2415 C.ar    1  UNL1        0.0185
     31 C           1.4390    0.3061   18.9756 C.3     1  UNL1        0.4186
     32 F           0.5679    1.1564   18.0992 F       1  UNL1       -0.1659
     33 F           2.5993    0.5470   18.0561 F       1  UNL1       -0.1659
     34 F           0.2787    0.0652   19.8952 F       1  UNL1       -0.1659
@<TRIPOS>BOND
     1    16    17    1
     2    17    18    1
     3    18    19    1
     4    19    20    1
     5    20    10    1
     6    10    11   ar
     7    11    12   ar
     8    12    13   ar
     9    13     8    1
    10     8     1    1
    11     1     2   ar
    12     2     3   ar
    13     3     4   ar
    14     4     5    1
    15     4     6   ar
    16     6    23    1
    17    23    25    1
    18    25    26   ar
    19    26    27   ar
    20    27    28   ar
    21    28    29   ar
    22    29    31    1
    23    31    32    1
    24    31    33    1
    25    31    34    1
    26    29    30   ar
    27     6     7   ar
    28    13    14   ar
    29    14    15   ar
    30    20    21    1
    31    21    22    1
    32    22    17    1
    33    15    10   ar
    34     7     1   ar
    35    30    25   ar
    36     8     9    1
    37    23    24    1
@<TRIPOS>MOLECULE
*****
 34 37 0 0 0
SMALL
GASTEIGER

@<TRIPOS>ATOM
      1 C          -2.8022    3.7545   21.4944 C.ar    1  UNL1        0.2229
      2 N          -4.2289    3.2912   21.4964 N.ar    1  UNL1       -0.2110
      3 C          -4.9925    3.2198   22.7855 C.ar    1  UNL1        0.1160
      4 C          -4.3295    3.6117   24.0726 C.ar    1  UNL1        0.1085
      5 CL         -5.0932    3.5403   25.3618 Cl      1  UNL1       -0.0777
      6 C          -2.9029    4.0750   24.0707 C.ar    1  UNL1        0.1472
      7 N          -2.1392    4.1464   22.7816 N.ar    1  UNL1       -0.1976
      8 N          -2.0386    3.8258   20.2054 N.pl3   1  UNL1       -0.2679
      9 H          -2.2461    4.5294   19.5487 H       1  UNL1        0.1565
     10 C           1.2003    0.8242   19.3396 C.ar    1  UNL1        0.0675
     11 C           0.9699    1.9709   18.4005 C.ar    1  UNL1        0.0190
     12 C          -0.1097    2.9715   18.6891 C.ar    1  UNL1        0.0358
     13 C          -0.9590    2.8253   19.9168 C.ar    1  UNL1        0.1344
     14 N          -0.7286    1.6786   20.8559 N.ar    1  UNL1       -0.2277
     15 C           0.3510    0.6781   20.5673 C.ar    1  UNL1        0.1147
     16 C           5.5189   -3.1780   18.1852 C.3     1  UNL1        0.0897
     17 N           4.4392   -2.1774   18.4738 N.3     1  UNL1       -0.2686
     18 C           4.2339   -1.0096   17.5552 C.3     1  UNL1        0.0938
     19 C           3.1543   -0.0091   17.8437 C.3     1  UNL1        0.1082
     20 N           2.2799   -0.1763   19.0510 N.pl3   1  UNL1       -0.3034
     21 C           2.4853   -1.3441   19.9697 C.3     1  UNL1        0.1082
     22 C           3.5649   -2.3447   19.6811 C.3     1  UNL1        0.0938
     23 N          -2.2398    4.4669   25.3579 N.pl3   1  UNL1       -0.2971
     24 H          -2.5437    5.2669   25.8445 H       1  UNL1        0.1536
     25 C          -1.1137    3.6397   25.9037 C.ar    1  UNL1        0.0493
     26 C           0.3047    3.9800   25.5540 C.ar    1  UNL1        0.0146
     27 C           1.4308    3.1529   26.0998 C.ar    1  UNL1        0.0012
     28 C           1.1384    1.9856   26.9951 C.ar    1  UNL1        0.0039
     29 C          -0.2800    1.6453   27.3448 C.ar    1  UNL1        0.0726
     30 C          -1.4061    2.4724   26.7991 C.ar    1  UNL1        0.0185
     31 C          -0.5723    0.4779   28.2402 C.3     1  UNL1        0.4186
     32 F          -0.8647   -0.6895   29.1356 F       1  UNL1       -0.1659
     33 F           0.8417    0.0029   28.0827 F       1  UNL1       -0.1659
     34 F          -1.9864    0.9528   28.3977 F       1  UNL1       -0.1659
@<TRIPOS>BOND
     1    16    17    1
     2    17    18    1
     3    18    19    1
     4    19    20    1
     5    20    10    1
     6    10    11   ar
     7    11    12   ar
     8    12    13   ar
     9    13     8    1
    10     8     1    1
    11     1     2   ar
    12     2     3   ar
    13     3     4   ar
    14     4     5    1
    15     4     6   ar
    16     6    23    1
    17    23    25    1
    18    25    26   ar
    19    26    27   ar
    20    27    28   ar
    21    28    29   ar
    22    29    31    1
    23    31    32    1
    24    31    33    1
    25    31    34    1
    26    29    30   ar
    27     6     7   ar
    28    13    14   ar
    29    14    15   ar
    30    20    21    1
    31    21    22    1
    32    22    17    1
    33    15    10   ar
    34     7     1   ar
    35    30    25   ar
    36     8     9    1
    37    23    24    1
@<TRIPOS>MOLECULE
*****
 34 37 0 0 0
SMALL
GASTEIGER

@<TRIPOS>ATOM
      1 C           6.5471   -3.8093   25.0458 C.ar    1  UNL1        0.2229
      2 N           6.7618   -5.1347   25.7148 N.ar    1  UNL1       -0.2110
      3 C           7.5699   -6.1975   25.0313 C.ar    1  UNL1        0.1160
      4 C           8.1634   -5.9351   23.6789 C.ar    1  UNL1        0.1085
      5 CL          8.9715   -6.9981   22.9954 Cl      1  UNL1       -0.0777
      6 C           7.9487   -4.6099   23.0100 C.ar    1  UNL1        0.1472
      7 N           7.1405   -3.5469   23.6934 N.ar    1  UNL1       -0.1976
      8 N           5.7389   -2.7464   25.7293 N.pl3   1  UNL1       -0.2679
      9 H           5.8605   -2.5782   26.6917 H       1  UNL1        0.1565
     10 C           2.7588   -0.3269   23.3809 C.ar    1  UNL1        0.0675
     11 C           3.4987   -1.4519   22.7201 C.ar    1  UNL1        0.0190
     12 C           4.4921   -2.2584   23.5028 C.ar    1  UNL1        0.0358
     13 C           4.7456   -1.9399   24.9465 C.ar    1  UNL1        0.1344
     14 N           4.0057   -0.8149   25.6074 N.ar    1  UNL1       -0.2277
     15 C           3.0123   -0.0084   24.8246 C.ar    1  UNL1        0.1147
     16 C          -1.2147    2.8991   20.2498 C.3     1  UNL1        0.0897
     17 N          -0.2213    2.0926   21.0326 N.3     1  UNL1       -0.2686
     18 C           0.0366    2.4151   22.4746 C.3     1  UNL1        0.0938
     19 C           1.0300    1.6085   23.2574 C.3     1  UNL1        0.1082
     20 N           1.7654    0.4796   22.5982 N.pl3   1  UNL1       -0.3034
     21 C           1.5075    0.1572   21.1562 C.3     1  UNL1        0.1082
     22 C           0.5141    0.9637   20.3734 C.3     1  UNL1        0.0938
     23 N           8.5421   -4.3475   21.6576 N.pl3   1  UNL1       -0.2971
     24 H           9.4859   -4.5667   21.4832 H       1  UNL1        0.1536
     25 C           7.6975   -3.7511   20.5708 C.ar    1  UNL1        0.0493
     26 C           8.2579   -2.6724   19.6920 C.ar    1  UNL1        0.0146
     27 C           7.4134   -2.0760   18.6053 C.ar    1  UNL1        0.0012
     28 C           6.0084   -2.5583   18.3974 C.ar    1  UNL1        0.0039
     29 C           5.4479   -3.6371   19.2761 C.ar    1  UNL1        0.0726
     30 C           6.2925   -4.2334   20.3629 C.ar    1  UNL1        0.0185
     31 C           4.0429   -4.1194   19.0681 C.3     1  UNL1        0.4186
     32 F           2.6379   -4.6017   18.8602 F       1  UNL1       -0.1659
     33 F           4.5680   -5.3983   18.4863 F       1  UNL1       -0.1659
     34 F           3.5178   -2.8405   19.6500 F       1  UNL1       -0.1659
@<TRIPOS>BOND
     1    16    17    1
     2    17    18    1
     3    18    19    1
     4    19    20    1
     5    20    10    1
     6    10    11   ar
     7    11    12   ar
     8    12    13   ar
     9    13     8    1
    10     8     1    1
    11     1     2   ar
    12     2     3   ar
    13     3     4   ar
    14     4     5    1
    15     4     6   ar
    16     6    23    1
    17    23    25    1
    18    25    26   ar
    19    26    27   ar
    20    27    28   ar
    21    28    29   ar
    22    29    31    1
    23    31    32    1
    24    31    33    1
    25    31    34    1
    26    29    30   ar
    27     6     7   ar
    28    13    14   ar
    29    14    15   ar
    30    20    21    1
    31    21    22    1
    32    22    17    1
    33    15    10   ar
    34     7     1   ar
    35    30    25   ar
    36     8     9    1
    37    23    24    1
@<TRIPOS>MOLECULE
*****
 34 37 0 0 0
SMALL
GASTEIGER

@<TRIPOS>ATOM
      1 C          -1.8002    4.1803   19.1057 C.ar    1  UNL1        0.2229
      2 N          -2.5576    4.6812   17.9117 N.ar    1  UNL1       -0.2110
      3 C          -4.0367    4.4527   17.8118 C.ar    1  UNL1        0.1160
      4 C          -4.7585    3.7233   18.9058 C.ar    1  UNL1        0.1085
      5 CL         -6.2377    3.4949   18.8059 Cl      1  UNL1       -0.0777
      6 C          -4.0012    3.2225   20.0998 C.ar    1  UNL1        0.1472
      7 N          -2.5220    3.4509   20.1998 N.ar    1  UNL1       -0.1976
      8 N          -0.3211    4.4088   19.2056 N.pl3   1  UNL1       -0.2679
      9 H           0.0387    5.3247   19.1744 H       1  UNL1        0.1565
     10 C           2.4716    0.9081   19.6479 C.ar    1  UNL1        0.0675
     11 C           1.4724    0.9338   18.5294 C.ar    1  UNL1        0.0190
     12 C           0.5415    2.1007   18.3820 C.ar    1  UNL1        0.0358
     13 C           0.6098    3.2419   19.3530 C.ar    1  UNL1        0.1344
     14 N           1.6089    3.2162   20.4715 N.ar    1  UNL1       -0.2277
     15 C           2.5399    2.0493   20.6189 C.ar    1  UNL1        0.1147
     16 C           6.1952   -3.7596   20.2375 C.3     1  UNL1        0.0897
     17 N           5.2643   -2.5926   20.0901 N.3     1  UNL1       -0.2686
     18 C           3.7895   -2.8236   19.9433 C.3     1  UNL1        0.0938
     19 C           2.8586   -1.6567   19.7959 C.3     1  UNL1        0.1082
     20 N           3.4025   -0.2588   19.7953 N.pl3   1  UNL1       -0.3034
     21 C           4.8773   -0.0278   19.9421 C.3     1  UNL1        0.1082
     22 C           5.8082   -1.1948   20.0895 C.3     1  UNL1        0.0938
     23 N          -4.7230    2.4931   21.1939 N.pl3   1  UNL1       -0.2971
     24 H          -4.8945    1.5271   21.1117 H       1  UNL1        0.1536
     25 C          -5.1837    3.2355   22.4132 C.ar    1  UNL1        0.0493
     26 C          -6.4630    4.0178   22.3762 C.ar    1  UNL1        0.0146
     27 C          -6.9237    4.7602   23.5954 C.ar    1  UNL1        0.0012
     28 C          -6.1050    4.7203   24.8516 C.ar    1  UNL1        0.0039
     29 C          -4.8257    3.9381   24.8886 C.ar    1  UNL1        0.0726
     30 C          -4.3650    3.1956   23.6694 C.ar    1  UNL1        0.0185
     31 C          -4.0070    3.8982   26.1450 C.3     1  UNL1        0.4186
     32 F          -3.1884    3.8584   27.4012 F       1  UNL1       -0.1659
     33 F          -2.9055    3.1989   25.4051 F       1  UNL1       -0.1659
     34 F          -5.1085    4.5976   26.8849 F       1  UNL1       -0.1659
@<TRIPOS>BOND
     1    16    17    1
     2    17    18    1
     3    18    19    1
     4    19    20    1
     5    20    10    1
     6    10    11   ar
     7    11    12   ar
     8    12    13   ar
     9    13     8    1
    10     8     1    1
    11     1     2   ar
    12     2     3   ar
    13     3     4   ar
    14     4     5    1
    15     4     6   ar
    16     6    23    1
    17    23    25    1
    18    25    26   ar
    19    26    27   ar
    20    27    28   ar
    21    28    29   ar
    22    29    31    1
    23    31    32    1
    24    31    33    1
    25    31    34    1
    26    29    30   ar
    27     6     7   ar
    28    13    14   ar
    29    14    15   ar
    30    20    21    1
    31    21    22    1
    32    22    17    1
    33    15    10   ar
    34     7     1   ar
    35    30    25   ar
    36     8     9    1
    37    23    24    1
@<TRIPOS>MOLECULE
*****
 34 37 0 0 0
SMALL
GASTEIGER

@<TRIPOS>ATOM
      1 C         -10.0593  -19.5280   20.8330 C.ar    1  UNL1        0.2229
      2 N         -11.4401  -19.3048   20.2910 N.ar    1  UNL1       -0.2110
      3 C         -12.4360  -18.5080   21.0804 C.ar    1  UNL1        0.1160
      4 C         -12.0511  -17.9343   22.4118 C.ar    1  UNL1        0.1085
      5 CL        -13.0471  -17.1374   23.2013 Cl      1  UNL1       -0.0777
      6 C         -10.6705  -18.1574   22.9539 C.ar    1  UNL1        0.1472
      7 N          -9.6745  -18.9543   22.1644 N.ar    1  UNL1       -0.1976
      8 N          -9.0634  -20.3248   20.0436 N.pl3   1  UNL1       -0.2679
      9 H          -9.3646  -21.0857   19.4963 H       1  UNL1        0.1565
     10 C          -4.6988  -19.2373   20.1767 C.ar    1  UNL1        0.0675
     11 C          -5.1104  -20.6757   20.0698 C.ar    1  UNL1        0.0190
     12 C          -6.5653  -21.0382   20.0254 C.ar    1  UNL1        0.0358
     13 C          -7.6085  -19.9623   20.0879 C.ar    1  UNL1        0.1344
     14 N          -7.1969  -18.5239   20.1948 N.ar    1  UNL1       -0.2277
     15 C          -5.7421  -18.1614   20.2392 C.ar    1  UNL1        0.1147
     16 C           1.1206  -17.7873   20.3541 C.3     1  UNL1        0.0897
     17 N          -0.3342  -18.1498   20.3098 N.3     1  UNL1       -0.2686
     18 C          -1.1794  -17.7188   19.1480 C.3     1  UNL1        0.0938
     19 C          -2.6343  -18.0813   19.1036 C.3     1  UNL1        0.1082
     20 N          -3.2440  -18.8748   20.2210 N.pl3   1  UNL1       -0.3034
     21 C          -2.3987  -19.3057   21.3828 C.3     1  UNL1        0.1082
     22 C          -0.9439  -18.9432   21.4272 C.3     1  UNL1        0.0938
     23 N         -10.2856  -17.5837   24.2853 N.pl3   1  UNL1       -0.2971
     24 H         -10.8421  -17.7621   25.0776 H       1  UNL1        0.1536
     25 C          -9.0529  -16.7381   24.4096 C.ar    1  UNL1        0.0493
     26 C          -8.2515  -16.3965   23.1886 C.ar    1  UNL1        0.0146
     27 C          -7.0188  -15.5510   23.3128 C.ar    1  UNL1        0.0012
     28 C          -6.5875  -15.0470   24.6581 C.ar    1  UNL1        0.0039
     29 C          -7.3889  -15.3886   25.8792 C.ar    1  UNL1        0.0726
     30 C          -8.6216  -16.2341   25.7550 C.ar    1  UNL1        0.0185
     31 C          -6.9576  -14.8846   27.2246 C.3     1  UNL1        0.4186
     32 F          -6.5262  -14.3806   28.5699 F       1  UNL1       -0.1659
     33 F          -8.3908  -14.8307   27.6640 F       1  UNL1       -0.1659
     34 F          -5.5244  -14.9385   26.7853 F       1  UNL1       -0.1659
@<TRIPOS>BOND
     1    16    17    1
     2    17    18    1
     3    18    19    1
     4    19    20    1
     5    20    10    1
     6    10    11   ar
     7    11    12   ar
     8    12    13   ar
     9    13     8    1
    10     8     1    1
    11     1     2   ar
    12     2     3   ar
    13     3     4   ar
    14     4     5    1
    15     4     6   ar
    16     6    23    1
    17    23    25    1
    18    25    26   ar
    19    26    27   ar
    20    27    28   ar
    21    28    29   ar
    22    29    31    1
    23    31    32    1
    24    31    33    1
    25    31    34    1
    26    29    30   ar
    27     6     7   ar
    28    13    14   ar
    29    14    15   ar
    30    20    21    1
    31    21    22    1
    32    22    17    1
    33    15    10   ar
    34     7     1   ar
    35    30    25   ar
    36     8     9    1
    37    23    24    1
@<TRIPOS>MOLECULE
*****
 34 37 0 0 0
SMALL
GASTEIGER

@<TRIPOS>ATOM
      1 C           3.6273   -0.6453   24.7753 C.ar    1  UNL1        0.2229
      2 N           3.9462    0.7717   25.1503 N.ar    1  UNL1       -0.2110
      3 C           3.5566    1.8952   24.2361 C.ar    1  UNL1        0.1160
      4 C           2.8480    1.6019   22.9470 C.ar    1  UNL1        0.1085
      5 CL          2.4584    2.7256   22.0328 Cl      1  UNL1       -0.0777
      6 C           2.5291    0.1850   22.5720 C.ar    1  UNL1        0.1472
      7 N           2.9187   -0.9386   23.4862 N.ar    1  UNL1       -0.1976
      8 N           4.0169   -1.7689   25.6895 N.pl3   1  UNL1       -0.2679
      9 H           4.1870   -2.6662   25.3219 H       1  UNL1        0.1565
     10 C           4.4083   -1.0383   30.1125 C.ar    1  UNL1        0.0675
     11 C           5.6008   -1.4796   29.3168 C.ar    1  UNL1        0.0190
     12 C           5.4703   -1.7231   27.8425 C.ar    1  UNL1        0.0358
     13 C           4.1474   -1.5253   27.1638 C.ar    1  UNL1        0.1344
     14 N           2.9549   -1.0841   27.9595 N.ar    1  UNL1       -0.2277
     15 C           3.0854   -0.8405   29.4339 C.ar    1  UNL1        0.1147
     16 C           4.9303   -0.0641   36.0098 C.3     1  UNL1        0.0897
     17 N           4.7998   -0.3077   34.5355 N.3     1  UNL1       -0.2686
     18 C           5.0761    0.8019   33.5647 C.3     1  UNL1        0.0938
     19 C           4.9456    0.5584   32.0904 C.3     1  UNL1        0.1082
     20 N           4.5388   -0.7947   31.5868 N.pl3   1  UNL1       -0.3034
     21 C           4.2625   -1.9043   32.5576 C.3     1  UNL1        0.1082
     22 C           4.3930   -1.6608   34.0320 C.3     1  UNL1        0.0938
     23 N           1.8206   -0.1083   21.2828 N.pl3   1  UNL1       -0.2971
     24 H           0.8419   -0.0166   21.2271 H       1  UNL1        0.1536
     25 C           2.6031   -0.5413   20.0786 C.ar    1  UNL1        0.0493
     26 C           2.9258    0.4480   18.9983 C.ar    1  UNL1        0.0146
     27 C           3.7084    0.0151   17.7941 C.ar    1  UNL1        0.0012
     28 C           4.1682   -1.4073   17.6702 C.ar    1  UNL1        0.0039
     29 C           3.8455   -2.3967   18.7505 C.ar    1  UNL1        0.0726
     30 C           3.0630   -1.9637   19.9547 C.ar    1  UNL1        0.0185
     31 C           4.3054   -3.8191   18.6265 C.3     1  UNL1        0.4186
     32 F           4.7653   -5.2414   18.5026 F       1  UNL1       -0.1659
     33 F           5.6438   -3.3443   18.1437 F       1  UNL1       -0.1659
     34 F           2.9670   -4.2939   19.1094 F       1  UNL1       -0.1659
@<TRIPOS>BOND
     1    16    17    1
     2    17    18    1
     3    18    19    1
     4    19    20    1
     5    20    10    1
     6    10    11   ar
     7    11    12   ar
     8    12    13   ar
     9    13     8    1
    10     8     1    1
    11     1     2   ar
    12     2     3   ar
    13     3     4   ar
    14     4     5    1
    15     4     6   ar
    16     6    23    1
    17    23    25    1
    18    25    26   ar
    19    26    27   ar
    20    27    28   ar
    21    28    29   ar
    22    29    31    1
    23    31    32    1
    24    31    33    1
    25    31    34    1
    26    29    30   ar
    27     6     7   ar
    28    13    14   ar
    29    14    15   ar
    30    20    21    1
    31    21    22    1
    32    22    17    1
    33    15    10   ar
    34     7     1   ar
    35    30    25   ar
    36     8     9    1
    37    23    24    1
@<TRIPOS>MOLECULE
*****
 34 37 0 0 0
SMALL
GASTEIGER

@<TRIPOS>ATOM
      1 C           8.3524   -4.5401   20.5970 C.ar    1  UNL1        0.2229
      2 N           9.2645   -3.5429   19.9460 N.ar    1  UNL1       -0.2110
      3 C           8.6916   -2.4325   19.1162 C.ar    1  UNL1        0.1160
      4 C           7.2066   -2.3192   18.9374 C.ar    1  UNL1        0.1085
      5 CL          6.6336   -1.2086   18.1076 Cl      1  UNL1       -0.0777
      6 C           6.2945   -3.3163   19.5884 C.ar    1  UNL1        0.1472
      7 N           6.8675   -4.4268   20.4183 N.ar    1  UNL1       -0.1976
      8 N           8.9254   -5.6506   21.4268 N.pl3   1  UNL1       -0.2679
      9 H           9.4679   -6.3535   21.0015 H       1  UNL1        0.1565
     10 C           8.1647   -5.7693   25.8605 C.ar    1  UNL1        0.0675
     11 C           8.4691   -7.0363   25.1175 C.ar    1  UNL1        0.0190
     12 C           8.7227   -6.9968   23.6397 C.ar    1  UNL1        0.0358
     13 C           8.6718   -5.6902   22.9047 C.ar    1  UNL1        0.1344
     14 N           8.3674   -4.4232   23.6476 N.ar    1  UNL1       -0.2277
     15 C           8.1138   -4.4628   25.1255 C.ar    1  UNL1        0.1147
     16 C           7.1504   -5.9277   31.7720 C.3     1  UNL1        0.0897
     17 N           7.4039   -5.8881   30.2941 N.3     1  UNL1       -0.2686
     18 C           8.4554   -6.7707   29.6897 C.3     1  UNL1        0.0938
     19 C           8.7090   -6.7311   28.2118 C.3     1  UNL1        0.1082
     20 N           7.9111   -5.8089   27.3384 N.pl3   1  UNL1       -0.3034
     21 C           6.8596   -4.9264   27.9428 C.3     1  UNL1        0.1082
     22 C           6.6060   -4.9660   29.4207 C.3     1  UNL1        0.0938
     23 N           4.8095   -3.2030   19.4096 N.pl3   1  UNL1       -0.2971
     24 H           4.3593   -3.7115   18.6969 H       1  UNL1        0.1536
     25 C           4.0105   -2.3148   20.3168 C.ar    1  UNL1        0.0493
     26 C           2.9259   -1.4465   19.7515 C.ar    1  UNL1        0.0146
     27 C           2.1269   -0.5584   20.6585 C.ar    1  UNL1        0.0012
     28 C           2.4125   -0.5386   22.1309 C.ar    1  UNL1        0.0039
     29 C           3.4971   -1.4069   22.6962 C.ar    1  UNL1        0.0726
     30 C           4.2961   -2.2951   21.7892 C.ar    1  UNL1        0.0185
     31 C           3.7827   -1.3871   24.1687 C.3     1  UNL1        0.4186
     32 F           4.0683   -1.3673   25.6411 F       1  UNL1       -0.1659
     33 F           4.4748   -2.7128   24.0524 F       1  UNL1       -0.1659
     34 F           3.0906   -0.0615   24.2851 F       1  UNL1       -0.1659
@<TRIPOS>BOND
     1    16    17    1
     2    17    18    1
     3    18    19    1
     4    19    20    1
     5    20    10    1
     6    10    11   ar
     7    11    12   ar
     8    12    13   ar
     9    13     8    1
    10     8     1    1
    11     1     2   ar
    12     2     3   ar
    13     3     4   ar
    14     4     5    1
    15     4     6   ar
    16     6    23    1
    17    23    25    1
    18    25    26   ar
    19    26    27   ar
    20    27    28   ar
    21    28    29   ar
    22    29    31    1
    23    31    32    1
    24    31    33    1
    25    31    34    1
    26    29    30   ar
    27     6     7   ar
    28    13    14   ar
    29    14    15   ar
    30    20    21    1
    31    21    22    1
    32    22    17    1
    33    15    10   ar
    34     7     1   ar
    35    30    25   ar
    36     8     9    1
    37    23    24    1
@<TRIPOS>MOLECULE
*****
 34 37 0 0 0
SMALL
GASTEIGER

@<TRIPOS>ATOM
      1 C           3.4707   -0.2089   26.8827 C.ar    1  UNL1        0.2229
      2 N           4.5102    0.8717   26.8399 N.ar    1  UNL1       -0.2110
      3 C           5.6445    0.7829   25.8625 C.ar    1  UNL1        0.1160
      4 C           5.7394   -0.3864   24.9278 C.ar    1  UNL1        0.1085
      5 CL          6.8738   -0.4752   23.9504 Cl      1  UNL1       -0.0777
      6 C           4.6999   -1.4670   24.9705 C.ar    1  UNL1        0.1472
      7 N           3.5655   -1.3782   25.9480 N.ar    1  UNL1       -0.1976
      8 N           2.3364   -0.1201   27.8601 N.pl3   1  UNL1       -0.2679
      9 H           1.4075   -0.2053   27.5452 H       1  UNL1        0.1565
     10 C           3.1791    0.5356   32.2316 C.ar    1  UNL1        0.0675
     11 C           3.9334   -0.5149   31.4717 C.ar    1  UNL1        0.0190
     12 C           3.6525   -0.7335   30.0145 C.ar    1  UNL1        0.0358
     13 C           2.6173    0.0984   29.3173 C.ar    1  UNL1        0.1344
     14 N           1.8630    1.1489   30.0772 N.ar    1  UNL1       -0.2277
     15 C           2.1439    1.3675   31.5343 C.ar    1  UNL1        0.1147
     16 C           4.3027    1.4098   38.0602 C.3     1  UNL1        0.0897
     17 N           4.0218    1.1912   36.6031 N.3     1  UNL1       -0.2686
     18 C           3.0674    2.0943   35.8796 C.3     1  UNL1        0.0938
     19 C           2.7865    1.8757   34.4224 C.3     1  UNL1        0.1082
     20 N           3.4600    0.7541   33.6887 N.pl3   1  UNL1       -0.3034
     21 C           4.4144   -0.1489   34.4122 C.3     1  UNL1        0.1082
     22 C           4.6953    0.0696   35.8694 C.3     1  UNL1        0.0938
     23 N           4.7948   -2.6363   24.0359 N.pl3   1  UNL1       -0.2971
     24 H           5.1984   -3.4803   24.3426 H       1  UNL1        0.1536
     25 C           4.2747   -2.5198   22.6337 C.ar    1  UNL1        0.0493
     26 C           3.4266   -1.3457   22.2435 C.ar    1  UNL1        0.0146
     27 C           2.9065   -1.2292   20.8415 C.ar    1  UNL1        0.0012
     28 C           3.2345   -2.2867   19.8295 C.ar    1  UNL1        0.0039
     29 C           4.0827   -3.4608   20.2197 C.ar    1  UNL1        0.0726
     30 C           4.6028   -3.5773   21.6218 C.ar    1  UNL1        0.0185
     31 C           4.4107   -4.5183   19.2077 C.3     1  UNL1        0.4186
     32 F           4.7387   -5.5758   18.1957 F       1  UNL1       -0.1659
     33 F           5.8685   -4.3750   19.5304 F       1  UNL1       -0.1659
     34 F           2.9529   -4.6616   18.8849 F       1  UNL1       -0.1659
@<TRIPOS>BOND
     1    16    17    1
     2    17    18    1
     3    18    19    1
     4    19    20    1
     5    20    10    1
     6    10    11   ar
     7    11    12   ar
     8    12    13   ar
     9    13     8    1
    10     8     1    1
    11     1     2   ar
    12     2     3   ar
    13     3     4   ar
    14     4     5    1
    15     4     6   ar
    16     6    23    1
    17    23    25    1
    18    25    26   ar
    19    26    27   ar
    20    27    28   ar
    21    28    29   ar
    22    29    31    1
    23    31    32    1
    24    31    33    1
    25    31    34    1
    26    29    30   ar
    27     6     7   ar
    28    13    14   ar
    29    14    15   ar
    30    20    21    1
    31    21    22    1
    32    22    17    1
    33    15    10   ar
    34     7     1   ar
    35    30    25   ar
    36     8     9    1
    37    23    24    1
