@<TRIPOS>MOLECULE
*****
 21 23 0 0 0
SMALL
GASTEIGER

@<TRIPOS>ATOM
      1 C          -8.9521  -19.2990   20.6529 C.ar    1  UNL1        0.1386
      2 C          -8.3984  -19.3434   22.0463 C.ar    1  UNL1        0.0384
      3 C          -6.9147  -19.3834   22.2628 C.ar    1  UNL1        0.0207
      4 C          -5.9846  -19.3791   21.0861 C.ar    1  UNL1        0.0657
      5 C          -6.5382  -19.3348   19.6926 C.ar    1  UNL1        0.0207
      6 C          -8.0220  -19.2947   19.4761 C.ar    1  UNL1        0.0384
      7 N          -4.5008  -19.4192   21.3026 N.ar    1  UNL1       -0.2864
      8 C          -3.7253  -18.5583   22.2551 C.ar    1  UNL1        0.1022
      9 C          -2.2772  -18.9342   22.1459 C.ar    1  UNL1        0.1196
     10 N          -2.1579  -20.0275   21.1259 N.ar    1  UNL1       -0.2220
     11 C          -3.5321  -20.3273   20.6047 C.ar    1  UNL1        0.1828
     12 O         -10.4358  -19.2589   20.4364 O.3     1  UNL1       -0.4754
     13 C         -11.0890  -17.9992   19.9499 C.3     1  UNL1        0.2058
     14 C         -12.2230  -17.3952   20.7240 C.3     1  UNL1        0.0536
     15 C         -11.9416  -16.5601   21.9378 C.3     1  UNL1        0.0496
     16 C          -9.6705  -18.3188   25.4017 C.ar    1  UNL1        0.0207
     17 C         -10.8554  -19.0440   24.8361 C.ar    1  UNL1        0.0028
     18 C         -11.6125  -18.4578   23.6815 C.ar    1  UNL1        0.0147
     19 C         -11.1846  -17.1464   23.0924 C.ar    1  UNL1        0.0591
     20 N          -9.9997  -16.4211   23.6581 N.ar    1  UNL1       -0.2481
     21 C          -9.2426  -17.0074   24.8127 C.ar    1  UNL1        0.0984
@<TRIPOS>BOND
     1    16    17   ar
     2    17    18   ar
     3    18    19   ar
     4    19    15    1
     5    15    14    1
     6    14    13    1
     7    13    12    1
     8    12     1    1
     9     1     2   ar
    10     2     3   ar
    11     3     4   ar
    12     4     7    1
    13     7     8   ar
    14     8     9   ar
    15     9    10   ar
    16    10    11   ar
    17     4     5   ar
    18     5     6   ar
    19    19    20   ar
    20    20    21   ar
    21    21    16   ar
    22     6     1   ar
    23    11     7   ar
@<TRIPOS>MOLECULE
*****
 21 23 0 0 0
SMALL
GASTEIGER

@<TRIPOS>ATOM
      1 C          -6.6354  -19.1290   21.7376 C.ar    1  UNL1        0.1386
      2 C          -5.5387  -18.7096   22.6710 C.ar    1  UNL1        0.0384
      3 C          -4.1606  -18.4481   22.1396 C.ar    1  UNL1        0.0207
      4 C          -3.8791  -18.6061   20.6747 C.ar    1  UNL1        0.0657
      5 C          -4.9759  -19.0255   19.7412 C.ar    1  UNL1        0.0207
      6 C          -6.3540  -19.2869   20.2727 C.ar    1  UNL1        0.0384
      7 N          -2.5010  -18.3446   20.1433 N.ar    1  UNL1       -0.2864
      8 C          -1.2740  -18.0827   20.9654 C.ar    1  UNL1        0.1022
      9 C          -0.1226  -17.8754   20.0267 C.ar    1  UNL1        0.1196
     10 N          -0.6380  -18.0092   18.6244 N.ar    1  UNL1       -0.2220
     11 C          -2.1079  -18.2992   18.6965 C.ar    1  UNL1        0.1828
     12 O          -8.0135  -19.3904   22.2690 O.3     1  UNL1       -0.4754
     13 C          -8.7051  -18.3529   23.1031 C.3     1  UNL1        0.2058
     14 C          -8.8963  -16.9651   22.5670 C.3     1  UNL1        0.0536
     15 C          -7.9444  -15.8731   22.9559 C.3     1  UNL1        0.0496
     16 C          -6.7317  -15.3725   27.2604 C.ar    1  UNL1        0.0207
     17 C          -5.6834  -15.4587   26.1910 C.ar    1  UNL1        0.0028
     18 C          -6.0877  -15.6256   24.7562 C.ar    1  UNL1        0.0147
     19 C          -7.5402  -15.7062   24.3907 C.ar    1  UNL1        0.0591
     20 N          -8.5885  -15.6200   25.4601 N.ar    1  UNL1       -0.2481
     21 C          -8.1843  -15.4531   26.8949 C.ar    1  UNL1        0.0984
@<TRIPOS>BOND
     1    16    17   ar
     2    17    18   ar
     3    18    19   ar
     4    19    15    1
     5    15    14    1
     6    14    13    1
     7    13    12    1
     8    12     1    1
     9     1     2   ar
    10     2     3   ar
    11     3     4   ar
    12     4     7    1
    13     7     8   ar
    14     8     9   ar
    15     9    10   ar
    16    10    11   ar
    17     4     5   ar
    18     5     6   ar
    19    19    20   ar
    20    20    21   ar
    21    21    16   ar
    22     6     1   ar
    23    11     7   ar
@<TRIPOS>MOLECULE
*****
 21 23 0 0 0
SMALL
GASTEIGER

@<TRIPOS>ATOM
      1 C          -6.4542  -19.9999   21.7545 C.ar    1  UNL1        0.1386
      2 C          -5.8381  -20.6711   20.5629 C.ar    1  UNL1        0.0384
      3 C          -4.5152  -20.1988   20.0367 C.ar    1  UNL1        0.0207
      4 C          -3.8084  -19.0554   20.7021 C.ar    1  UNL1        0.0657
      5 C          -4.4244  -18.3841   21.8938 C.ar    1  UNL1        0.0207
      6 C          -5.7473  -18.8564   22.4199 C.ar    1  UNL1        0.0384
      7 N          -2.4854  -18.5831   20.1760 N.ar    1  UNL1       -0.2864
      8 C          -1.3019  -18.1767   21.0030 C.ar    1  UNL1        0.1022
      9 C          -0.1987  -17.7767   20.0685 C.ar    1  UNL1        0.1196
     10 N          -0.7005  -17.9360   18.6640 N.ar    1  UNL1       -0.2220
     11 C          -2.1138  -18.4343   18.7304 C.ar    1  UNL1        0.1828
     12 O          -7.7771  -20.4722   22.2806 O.3     1  UNL1       -0.4754
     13 C          -8.6313  -19.5498   23.0990 C.3     1  UNL1        0.2058
     14 C          -9.8307  -20.0842   23.8241 C.3     1  UNL1        0.0536
     15 C         -11.2084  -19.8138   23.2960 C.3     1  UNL1        0.0496
     16 C         -11.8932  -16.4092   20.4343 C.ar    1  UNL1        0.0207
     17 C         -12.2520  -16.2553   21.8826 C.ar    1  UNL1        0.0028
     18 C         -12.0238  -17.3902   22.8365 C.ar    1  UNL1        0.0147
     19 C         -11.4367  -18.6790   22.3421 C.ar    1  UNL1        0.0591
     20 N         -11.0778  -18.8328   20.8939 N.ar    1  UNL1       -0.2481
     21 C         -11.3061  -17.6979   19.9400 C.ar    1  UNL1        0.0984
@<TRIPOS>BOND
     1    16    17   ar
     2    17    18   ar
     3    18    19   ar
     4    19    15    1
     5    15    14    1
     6    14    13    1
     7    13    12    1
     8    12     1    1
     9     1     2   ar
    10     2     3   ar
    11     3     4   ar
    12     4     7    1
    13     7     8   ar
    14     8     9   ar
    15     9    10   ar
    16    10    11   ar
    17     4     5   ar
    18     5     6   ar
    19    19    20   ar
    20    20    21   ar
    21    21    16   ar
    22     6     1   ar
    23    11     7   ar
@<TRIPOS>MOLECULE
*****
 21 23 0 0 0
SMALL
GASTEIGER

@<TRIPOS>ATOM
      1 C          -9.0683  -18.0868   23.5883 C.ar    1  UNL1        0.1386
      2 C          -7.9947  -17.0527   23.4219 C.ar    1  UNL1        0.0384
      3 C          -6.7209  -17.4017   22.7107 C.ar    1  UNL1        0.0207
      4 C          -6.5208  -18.7849   22.1661 C.ar    1  UNL1        0.0657
      5 C          -7.5944  -19.8191   22.3326 C.ar    1  UNL1        0.0207
      6 C          -8.8682  -19.4701   23.0437 C.ar    1  UNL1        0.0384
      7 N          -5.2470  -19.1339   21.4550 N.ar    1  UNL1       -0.2864
      8 C          -3.9168  -19.3851   22.1011 C.ar    1  UNL1        0.1022
      9 C          -2.9275  -19.6994   21.0183 C.ar    1  UNL1        0.1196
     10 N          -3.6462  -19.6425   19.7030 N.ar    1  UNL1       -0.2220
     11 C          -5.0797  -19.2930   19.9729 C.ar    1  UNL1        0.1828
     12 O         -10.3421  -17.7378   24.2995 O.3     1  UNL1       -0.4754
     13 C         -11.3452  -18.8089   24.6103 C.3     1  UNL1        0.2058
     14 C         -12.8125  -18.5036   24.5466 C.3     1  UNL1        0.0536
     15 C         -13.4113  -17.9604   23.2832 C.3     1  UNL1        0.0496
     16 C         -10.7718  -17.0379   19.7573 C.ar    1  UNL1        0.0207
     17 C         -11.1032  -18.4615   20.0939 C.ar    1  UNL1        0.0028
     18 C         -11.9831  -18.7690   21.2692 C.ar    1  UNL1        0.0147
     19 C         -12.5315  -17.6529   22.1079 C.ar    1  UNL1        0.0591
     20 N         -12.2001  -16.2292   21.7712 N.ar    1  UNL1       -0.2481
     21 C         -11.3202  -15.9217   20.5959 C.ar    1  UNL1        0.0984
@<TRIPOS>BOND
     1    16    17   ar
     2    17    18   ar
     3    18    19   ar
     4    19    15    1
     5    15    14    1
     6    14    13    1
     7    13    12    1
     8    12     1    1
     9     1     2   ar
    10     2     3   ar
    11     3     4   ar
    12     4     7    1
    13     7     8   ar
    14     8     9   ar
    15     9    10   ar
    16    10    11   ar
    17     4     5   ar
    18     5     6   ar
    19    19    20   ar
    20    20    21   ar
    21    21    16   ar
    22     6     1   ar
    23    11     7   ar
@<TRIPOS>MOLECULE
*****
 21 23 0 0 0
SMALL
GASTEIGER

@<TRIPOS>ATOM
      1 C          -8.6485  -19.4797   20.6392 C.ar    1  UNL1        0.1386
      2 C          -8.0945  -19.5007   22.0330 C.ar    1  UNL1        0.0384
      3 C          -6.6116  -19.4436   22.2517 C.ar    1  UNL1        0.0207
      4 C          -5.6827  -19.3656   21.0766 C.ar    1  UNL1        0.0657
      5 C          -6.2366  -19.3447   19.6827 C.ar    1  UNL1        0.0207
      6 C          -7.7195  -19.4017   19.4640 C.ar    1  UNL1        0.0384
      7 N          -4.1998  -19.3085   21.2952 N.ar    1  UNL1       -0.2864
      8 C          -3.4749  -18.3311   22.1722 C.ar    1  UNL1        0.1022
      9 C          -2.0085  -18.6374   22.0943 C.ar    1  UNL1        0.1196
     10 N          -1.8272  -19.8041   21.1691 N.ar    1  UNL1       -0.2220
     11 C          -3.1815  -20.2188   20.6753 C.ar    1  UNL1        0.1828
     12 O         -10.1313  -19.5368   20.4206 O.3     1  UNL1       -0.4754
     13 C         -10.8077  -18.4877   19.5886 C.3     1  UNL1        0.2058
     14 C         -10.8513  -17.0659   20.0647 C.3     1  UNL1        0.0536
     15 C         -10.5707  -16.7478   21.5034 C.3     1  UNL1        0.0496
     16 C         -12.9944  -18.7001   24.7536 C.ar    1  UNL1        0.0207
     17 C         -13.6772  -17.8846   23.6959 C.ar    1  UNL1        0.0028
     18 C         -12.8693  -17.2339   22.6125 C.ar    1  UNL1        0.0147
     19 C         -11.3786  -17.3986   22.5868 C.ar    1  UNL1        0.0591
     20 N         -10.6958  -18.2141   23.6445 N.ar    1  UNL1       -0.2481
     21 C         -11.5037  -18.8648   24.7279 C.ar    1  UNL1        0.0984
@<TRIPOS>BOND
     1    16    17   ar
     2    17    18   ar
     3    18    19   ar
     4    19    15    1
     5    15    14    1
     6    14    13    1
     7    13    12    1
     8    12     1    1
     9     1     2   ar
    10     2     3   ar
    11     3     4   ar
    12     4     7    1
    13     7     8   ar
    14     8     9   ar
    15     9    10   ar
    16    10    11   ar
    17     4     5   ar
    18     5     6   ar
    19    19    20   ar
    20    20    21   ar
    21    21    16   ar
    22     6     1   ar
    23    11     7   ar
@<TRIPOS>MOLECULE
*****
 21 23 0 0 0
SMALL
GASTEIGER

@<TRIPOS>ATOM
      1 C         -13.3087   -3.0051   18.8523 C.ar    1  UNL1        0.1386
      2 C         -12.9471   -3.9327   19.9742 C.ar    1  UNL1        0.0384
      3 C         -13.4441   -5.3480   19.9669 C.ar    1  UNL1        0.0207
      4 C         -14.3026   -5.8356   18.8377 C.ar    1  UNL1        0.0657
      5 C         -14.6643   -4.9079   17.7157 C.ar    1  UNL1        0.0207
      6 C         -14.1673   -3.4926   17.7230 C.ar    1  UNL1        0.0384
      7 N         -14.7996   -7.2508   18.8304 N.ar    1  UNL1       -0.2864
      8 C         -16.0836   -7.7376   19.4340 C.ar    1  UNL1        0.1022
      9 C         -16.1774   -9.2154   19.1949 C.ar    1  UNL1        0.1196
     10 N         -14.9514   -9.6421   18.4434 N.ar    1  UNL1       -0.2220
     11 C         -14.0998   -8.4279   18.2181 C.ar    1  UNL1        0.1828
     12 O         -12.8117   -1.5898   18.8596 O.3     1  UNL1       -0.4754
     13 C         -11.4615   -1.2661   18.2919 C.3     1  UNL1        0.2058
     14 C         -11.0808   -1.7667   16.9302 C.3     1  UNL1        0.0536
     15 C          -9.9671   -2.7603   16.7806 C.3     1  UNL1        0.0496
     16 C         -10.3200   -6.8351   18.6570 C.ar    1  UNL1        0.0207
     17 C         -10.9595   -6.5637   17.3276 C.ar    1  UNL1        0.0028
     18 C         -10.8418   -5.2054   16.7022 C.ar    1  UNL1        0.0147
     19 C         -10.0847   -4.1186   17.4061 C.ar    1  UNL1        0.0591
     20 N          -9.4452   -4.3900   18.7355 N.ar    1  UNL1       -0.2481
     21 C          -9.5629   -5.7483   19.3610 C.ar    1  UNL1        0.0984
@<TRIPOS>BOND
     1    16    17   ar
     2    17    18   ar
     3    18    19   ar
     4    19    15    1
     5    15    14    1
     6    14    13    1
     7    13    12    1
     8    12     1    1
     9     1     2   ar
    10     2     3   ar
    11     3     4   ar
    12     4     7    1
    13     7     8   ar
    14     8     9   ar
    15     9    10   ar
    16    10    11   ar
    17     4     5   ar
    18     5     6   ar
    19    19    20   ar
    20    20    21   ar
    21    21    16   ar
    22     6     1   ar
    23    11     7   ar
@<TRIPOS>MOLECULE
*****
 21 23 0 0 0
SMALL
GASTEIGER

@<TRIPOS>ATOM
      1 C          -7.5045  -16.4672   23.6314 C.ar    1  UNL1        0.1386
      2 C          -6.1740  -15.9418   24.0828 C.ar    1  UNL1        0.0384
      3 C          -4.9094  -16.5883   23.6002 C.ar    1  UNL1        0.0207
      4 C          -4.9753  -17.7602   22.6663 C.ar    1  UNL1        0.0657
      5 C          -6.3058  -18.2856   22.2149 C.ar    1  UNL1        0.0207
      6 C          -7.5704  -17.6391   22.6974 C.ar    1  UNL1        0.0384
      7 N          -3.7107  -18.4067   22.1837 N.ar    1  UNL1       -0.2864
      8 C          -2.4519  -17.6940   21.7871 C.ar    1  UNL1        0.1022
      9 C          -1.4461  -18.7262   21.3713 C.ar    1  UNL1        0.1196
     10 N          -2.0833  -20.0769   21.5110 N.ar    1  UNL1       -0.2220
     11 C          -3.4829  -19.8794   22.0131 C.ar    1  UNL1        0.1828
     12 O          -8.7690  -15.8206   24.1140 O.3     1  UNL1       -0.4754
     13 C         -10.0902  -16.4923   23.8828 C.3     1  UNL1        0.2058
     14 C         -11.1941  -15.7554   23.1838 C.3     1  UNL1        0.0536
     15 C         -11.7117  -16.2533   21.8670 C.3     1  UNL1        0.0496
     16 C         -10.1368  -20.0981   20.1386 C.ar    1  UNL1        0.0207
     17 C         -11.0328  -20.1279   21.3412 C.ar    1  UNL1        0.0028
     18 C         -11.5577  -18.8463   21.9173 C.ar    1  UNL1        0.0147
     19 C         -11.1867  -17.5349   21.2908 C.ar    1  UNL1        0.0591
     20 N         -10.2908  -17.5051   20.0882 N.ar    1  UNL1       -0.2481
     21 C          -9.7658  -18.7867   19.5121 C.ar    1  UNL1        0.0984
@<TRIPOS>BOND
     1    16    17   ar
     2    17    18   ar
     3    18    19   ar
     4    19    15    1
     5    15    14    1
     6    14    13    1
     7    13    12    1
     8    12     1    1
     9     1     2   ar
    10     2     3   ar
    11     3     4   ar
    12     4     7    1
    13     7     8   ar
    14     8     9   ar
    15     9    10   ar
    16    10    11   ar
    17     4     5   ar
    18     5     6   ar
    19    19    20   ar
    20    20    21   ar
    21    21    16   ar
    22     6     1   ar
    23    11     7   ar
@<TRIPOS>MOLECULE
*****
 21 23 0 0 0
SMALL
GASTEIGER

@<TRIPOS>ATOM
      1 C          -4.6617  -19.6818   21.2668 C.ar    1  UNL1        0.1386
      2 C          -5.2439  -19.1250   20.0015 C.ar    1  UNL1        0.0384
      3 C          -6.7310  -18.9980   19.8526 C.ar    1  UNL1        0.0207
      4 C          -7.6360  -19.4276   20.9690 C.ar    1  UNL1        0.0657
      5 C          -7.0538  -19.9844   22.2344 C.ar    1  UNL1        0.0207
      6 C          -5.5666  -20.1115   22.3833 C.ar    1  UNL1        0.0384
      7 N          -9.1232  -19.3005   20.8201 N.ar    1  UNL1       -0.2864
      8 C          -9.8642  -19.0698   19.5366 C.ar    1  UNL1        0.1022
      9 C         -11.3295  -19.0085   19.8518 C.ar    1  UNL1        0.1196
     10 N         -11.4940  -19.2013   21.3302 N.ar    1  UNL1       -0.2220
     11 C         -10.1304  -19.3818   21.9287 C.ar    1  UNL1        0.1828
     12 O          -3.1745  -19.8089   21.4157 O.3     1  UNL1       -0.4754
     13 C          -2.3929  -18.7222   22.0928 C.3     1  UNL1        0.2058
     14 C          -2.9890  -17.9810   23.2527 C.3     1  UNL1        0.0536
     15 C          -3.6595  -16.6575   23.0322 C.3     1  UNL1        0.0496
     16 C          -7.5377  -15.7253   25.1156 C.ar    1  UNL1        0.0207
     17 C          -6.2331  -15.4752   25.8123 C.ar    1  UNL1        0.0028
     18 C          -4.9404  -15.7859   25.1178 C.ar    1  UNL1        0.0147
     19 C          -4.9523  -16.3468   23.7267 C.ar    1  UNL1        0.0591
     20 N          -6.2569  -16.5969   23.0301 N.ar    1  UNL1       -0.2481
     21 C          -7.5496  -16.2862   23.7245 C.ar    1  UNL1        0.0984
@<TRIPOS>BOND
     1    16    17   ar
     2    17    18   ar
     3    18    19   ar
     4    19    15    1
     5    15    14    1
     6    14    13    1
     7    13    12    1
     8    12     1    1
     9     1     2   ar
    10     2     3   ar
    11     3     4   ar
    12     4     7    1
    13     7     8   ar
    14     8     9   ar
    15     9    10   ar
    16    10    11   ar
    17     4     5   ar
    18     5     6   ar
    19    19    20   ar
    20    20    21   ar
    21    21    16   ar
    22     6     1   ar
    23    11     7   ar
@<TRIPOS>MOLECULE
*****
 21 23 0 0 0
SMALL
GASTEIGER

@<TRIPOS>ATOM
      1 C         -14.0598   -4.3309   19.9301 C.ar    1  UNL1        0.1386
      2 C         -15.5584   -4.2679   19.9339 C.ar    1  UNL1        0.0384
      3 C         -16.3615   -5.4955   19.6210 C.ar    1  UNL1        0.0207
      4 C         -15.6660   -6.7862   19.3042 C.ar    1  UNL1        0.0657
      5 C         -14.1673   -6.8493   19.3003 C.ar    1  UNL1        0.0207
      6 C         -13.3642   -5.6216   19.6133 C.ar    1  UNL1        0.0384
      7 N         -16.4691   -8.0138   18.9913 N.ar    1  UNL1       -0.2864
      8 C         -17.2693   -8.2499   17.7447 C.ar    1  UNL1        0.1022
      9 C         -17.9078   -9.6029   17.8530 C.ar    1  UNL1        0.1196
     10 N         -17.5023  -10.2030   19.1666 N.ar    1  UNL1       -0.2220
     11 C         -16.6131   -9.2209   19.8700 C.ar    1  UNL1        0.1828
     12 O         -13.2566   -3.1033   20.2430 O.3     1  UNL1       -0.4754
     13 C         -12.9918   -2.0871   19.1718 C.3     1  UNL1        0.2058
     14 C         -11.5911   -1.6157   18.9150 C.3     1  UNL1        0.0536
     15 C         -10.7525   -2.2902   17.8703 C.3     1  UNL1        0.0496
     16 C         -10.2795   -6.7651   17.9086 C.ar    1  UNL1        0.0207
     17 C          -9.6593   -5.9361   18.9939 C.ar    1  UNL1        0.0028
     18 C          -9.8169   -4.4444   18.9811 C.ar    1  UNL1        0.0147
     19 C         -10.5948   -3.7818   17.8830 C.ar    1  UNL1        0.0591
     20 N         -11.2150   -4.6109   16.7977 N.ar    1  UNL1       -0.2481
     21 C         -11.0574   -6.1025   16.8105 C.ar    1  UNL1        0.0984
@<TRIPOS>BOND
     1    16    17   ar
     2    17    18   ar
     3    18    19   ar
     4    19    15    1
     5    15    14    1
     6    14    13    1
     7    13    12    1
     8    12     1    1
     9     1     2   ar
    10     2     3   ar
    11     3     4   ar
    12     4     7    1
    13     7     8   ar
    14     8     9   ar
    15     9    10   ar
    16    10    11   ar
    17     4     5   ar
    18     5     6   ar
    19    19    20   ar
    20    20    21   ar
    21    21    16   ar
    22     6     1   ar
    23    11     7   ar
