@<TRIPOS>MOLECULE
*****
 18 19 0 0 0
SMALL
GASTEIGER

@<TRIPOS>ATOM
      1 O          -7.6586  -17.0620   21.2723 O.2     1  UNL1       -0.2698
      2 C          -8.4147  -18.2664   21.7494 C.2     1  UNL1        0.2511
      3 N          -7.7089  -19.5802   21.9094 N.am    1  UNL1       -0.2803
      4 H          -8.2053  -20.3707   22.2226 H       1  UNL1        0.1552
      5 C          -9.8768  -18.1569   22.0666 C.ar    1  UNL1        0.0748
      6 C         -10.8935  -18.2850   20.9712 C.ar    1  UNL1        0.0628
      7 CL        -10.4482  -18.5226   19.5586 Cl      1  UNL1       -0.0821
      8 C         -12.3554  -18.1755   21.2884 C.ar    1  UNL1        0.0116
      9 C         -12.8007  -17.9379   22.7009 C.ar    1  UNL1        0.0017
     10 C         -11.7840  -17.8098   23.7963 C.ar    1  UNL1        0.0116
     11 C         -10.3221  -17.9193   23.4791 C.ar    1  UNL1        0.0628
     12 CL         -9.3053  -17.7913   24.5745 Cl      1  UNL1       -0.0821
     13 C          -6.2469  -19.6897   21.5923 C.ar    1  UNL1        0.0537
     14 C          -5.7947  -20.4859   20.4042 C.ar    1  UNL1        0.0353
     15 C          -4.3328  -20.5954   20.0871 C.ar    1  UNL1        0.1002
     16 N          -3.3229  -19.9086   20.9581 N.ar    1  UNL1       -0.2422
     17 C          -3.7751  -19.1125   22.1462 C.ar    1  UNL1        0.1002
     18 C          -5.2371  -19.0030   22.4633 C.ar    1  UNL1        0.0353
@<TRIPOS>BOND
     1     1     2    2
     2     2     3   am
     3     3    13    1
     4    13    14   ar
     5    14    15   ar
     6    15    16   ar
     7    16    17   ar
     8    17    18   ar
     9     2     5    1
    10     5     6   ar
    11     6     7    1
    12     6     8   ar
    13     8     9   ar
    14     9    10   ar
    15    10    11   ar
    16    11    12    1
    17    18    13   ar
    18    11     5   ar
    19     3     4    1
@<TRIPOS>MOLECULE
*****
 18 19 0 0 0
SMALL
GASTEIGER

@<TRIPOS>ATOM
      1 O          -7.6516  -17.0680   21.2762 O.2     1  UNL1       -0.2698
      2 C          -8.4124  -18.2723   21.7463 C.2     1  UNL1        0.2511
      3 N          -7.7111  -19.5893   21.9004 N.am    1  UNL1       -0.2803
      4 H          -8.2104  -20.3797   22.2089 H       1  UNL1        0.1552
      5 C          -9.8744  -18.1596   22.0623 C.ar    1  UNL1        0.0748
      6 C         -10.3201  -17.9170   23.4739 C.ar    1  UNL1        0.0628
      7 CL         -9.3038  -17.7872   24.5695 Cl      1  UNL1       -0.0821
      8 C         -11.7820  -17.8043   23.7898 C.ar    1  UNL1        0.0116
      9 C         -12.7983  -17.9342   22.6943 C.ar    1  UNL1        0.0017
     10 C         -12.3527  -18.1768   21.2827 C.ar    1  UNL1        0.0116
     11 C         -10.8907  -18.2895   20.9668 C.ar    1  UNL1        0.0628
     12 CL        -10.4449  -18.5320   19.5552 Cl      1  UNL1       -0.0821
     13 C          -6.2490  -19.7020   21.5843 C.ar    1  UNL1        0.0537
     14 C          -5.7982  -20.4928   20.3922 C.ar    1  UNL1        0.0353
     15 C          -4.3362  -20.6055   20.0762 C.ar    1  UNL1        0.1002
     16 N          -3.3251  -19.9273   20.9524 N.ar    1  UNL1       -0.2422
     17 C          -3.7759  -19.1365   22.1445 C.ar    1  UNL1        0.1002
     18 C          -5.2379  -19.0238   22.4605 C.ar    1  UNL1        0.0353
@<TRIPOS>BOND
     1     1     2    2
     2     2     3   am
     3     3    13    1
     4    13    14   ar
     5    14    15   ar
     6    15    16   ar
     7    16    17   ar
     8    17    18   ar
     9     2     5    1
    10     5     6   ar
    11     6     7    1
    12     6     8   ar
    13     8     9   ar
    14     9    10   ar
    15    10    11   ar
    16    11    12    1
    17    18    13   ar
    18    11     5   ar
    19     3     4    1
@<TRIPOS>MOLECULE
*****
 18 19 0 0 0
SMALL
GASTEIGER

@<TRIPOS>ATOM
      1 O          -8.0526  -19.9371   22.7147 O.2     1  UNL1       -0.2698
      2 C          -8.2318  -18.7198   21.8568 C.2     1  UNL1        0.2511
      3 N          -7.0733  -18.1768   21.0740 N.am    1  UNL1       -0.2803
      4 H          -7.1909  -17.3778   20.5109 H       1  UNL1        0.1552
      5 C          -9.5696  -18.0454   21.7819 C.ar    1  UNL1        0.0748
      6 C          -9.9675  -17.0499   22.8310 C.ar    1  UNL1        0.0628
      7 CL         -9.0277  -16.7288   23.9551 Cl      1  UNL1       -0.0821
      8 C         -11.3053  -16.3756   22.7560 C.ar    1  UNL1        0.0116
      9 C         -12.2451  -16.6968   21.6318 C.ar    1  UNL1        0.0017
     10 C         -11.8472  -17.6922   20.5828 C.ar    1  UNL1        0.0116
     11 C         -10.5094  -18.3666   20.6578 C.ar    1  UNL1        0.0628
     12 CL        -10.1114  -19.3621   19.6086 Cl      1  UNL1       -0.0821
     13 C          -5.7354  -18.8512   21.1489 C.ar    1  UNL1        0.0537
     14 C          -4.8481  -18.6270   22.3373 C.ar    1  UNL1        0.0353
     15 C          -3.5103  -19.3013   22.4122 C.ar    1  UNL1        0.1002
     16 N          -3.0600  -20.1999   21.2988 N.ar    1  UNL1       -0.2422
     17 C          -3.9473  -20.4240   20.1104 C.ar    1  UNL1        0.1002
     18 C          -5.2850  -19.7497   20.0355 C.ar    1  UNL1        0.0353
@<TRIPOS>BOND
     1     1     2    2
     2     2     3   am
     3     3    13    1
     4    13    14   ar
     5    14    15   ar
     6    15    16   ar
     7    16    17   ar
     8    17    18   ar
     9     2     5    1
    10     5     6   ar
    11     6     7    1
    12     6     8   ar
    13     8     9   ar
    14     9    10   ar
    15    10    11   ar
    16    11    12    1
    17    18    13   ar
    18    11     5   ar
    19     3     4    1
@<TRIPOS>MOLECULE
*****
 18 19 0 0 0
SMALL
GASTEIGER

@<TRIPOS>ATOM
      1 O          -8.0495  -19.9538   22.7085 O.2     1  UNL1       -0.2698
      2 C          -8.2295  -18.7309   21.8587 C.2     1  UNL1        0.2511
      3 N          -7.0710  -18.1813   21.0803 N.am    1  UNL1       -0.2803
      4 H          -7.1892  -17.3786   20.5226 H       1  UNL1        0.1552
      5 C          -9.5680  -18.0575   21.7873 C.ar    1  UNL1        0.0748
      6 C         -10.5111  -18.3802   20.6664 C.ar    1  UNL1        0.0628
      7 CL        -10.1156  -19.3762   19.6168 Cl      1  UNL1       -0.0821
      8 C         -11.8495  -17.7069   20.5950 C.ar    1  UNL1        0.0116
      9 C         -12.2450  -16.7109   21.6446 C.ar    1  UNL1        0.0017
     10 C         -11.3019  -16.3882   22.7656 C.ar    1  UNL1        0.0116
     11 C          -9.9635  -17.0616   22.8369 C.ar    1  UNL1        0.0628
     12 CL         -9.0204  -16.7389   23.9579 Cl      1  UNL1       -0.0821
     13 C          -5.7325  -18.8546   21.1517 C.ar    1  UNL1        0.0537
     14 C          -5.2826  -19.7495   20.0352 C.ar    1  UNL1        0.0353
     15 C          -3.9441  -20.4227   20.1066 C.ar    1  UNL1        0.1002
     16 N          -3.0555  -20.2011   21.2946 N.ar    1  UNL1       -0.2422
     17 C          -3.5054  -19.3062   22.4111 C.ar    1  UNL1        0.1002
     18 C          -4.8439  -18.6330   22.3397 C.ar    1  UNL1        0.0353
@<TRIPOS>BOND
     1     1     2    2
     2     2     3   am
     3     3    13    1
     4    13    14   ar
     5    14    15   ar
     6    15    16   ar
     7    16    17   ar
     8    17    18   ar
     9     2     5    1
    10     5     6   ar
    11     6     7    1
    12     6     8   ar
    13     8     9   ar
    14     9    10   ar
    15    10    11   ar
    16    11    12    1
    17    18    13   ar
    18    11     5   ar
    19     3     4    1
@<TRIPOS>MOLECULE
*****
 18 19 0 0 0
SMALL
GASTEIGER

@<TRIPOS>ATOM
      1 O          -7.3685  -17.3156   21.4780 O.2     1  UNL1       -0.2698
      2 C          -6.8455  -18.6433   21.9402 C.2     1  UNL1        0.2511
      3 N          -7.7659  -19.6199   22.6103 N.am    1  UNL1       -0.2803
      4 H          -7.4227  -20.4913   22.9137 H       1  UNL1        0.1552
      5 C          -5.4020  -18.9945   21.7323 C.ar    1  UNL1        0.0748
      6 C          -4.3368  -18.2797   22.5096 C.ar    1  UNL1        0.0628
      7 CL         -4.7149  -17.2138   23.4949 Cl      1  UNL1       -0.0821
      8 C          -2.8934  -18.6309   22.3017 C.ar    1  UNL1        0.0116
      9 C          -2.5153  -19.6968   21.3164 C.ar    1  UNL1        0.0017
     10 C          -3.5805  -20.4116   20.5390 C.ar    1  UNL1        0.0116
     11 C          -5.0239  -20.0604   20.7470 C.ar    1  UNL1        0.0628
     12 CL         -6.0892  -20.7752   19.9696 Cl      1  UNL1       -0.0821
     13 C          -9.2094  -19.2687   22.8183 C.ar    1  UNL1        0.0537
     14 C         -10.1488  -19.2342   21.6494 C.ar    1  UNL1        0.0353
     15 C         -11.5922  -18.8831   21.8573 C.ar    1  UNL1        0.1002
     16 N         -12.0962  -18.5665   23.2342 N.ar    1  UNL1       -0.2422
     17 C         -11.1568  -18.6010   24.4031 C.ar    1  UNL1        0.1002
     18 C          -9.7134  -18.9522   24.1951 C.ar    1  UNL1        0.0353
@<TRIPOS>BOND
     1     1     2    2
     2     2     3   am
     3     3    13    1
     4    13    14   ar
     5    14    15   ar
     6    15    16   ar
     7    16    17   ar
     8    17    18   ar
     9     2     5    1
    10     5     6   ar
    11     6     7    1
    12     6     8   ar
    13     8     9   ar
    14     9    10   ar
    15    10    11   ar
    16    11    12    1
    17    18    13   ar
    18    11     5   ar
    19     3     4    1
@<TRIPOS>MOLECULE
*****
 18 19 0 0 0
SMALL
GASTEIGER

@<TRIPOS>ATOM
      1 O          -7.3664  -17.3202   21.4767 O.2     1  UNL1       -0.2698
      2 C          -6.8443  -18.6490   21.9366 C.2     1  UNL1        0.2511
      3 N          -7.7645  -19.6248   22.6081 N.am    1  UNL1       -0.2803
      4 H          -7.4218  -20.4970   22.9100 H       1  UNL1        0.1552
      5 C          -5.4018  -19.0021   21.7249 C.ar    1  UNL1        0.0748
      6 C          -5.0275  -20.0671   20.7372 C.ar    1  UNL1        0.0628
      7 CL         -6.0956  -20.7791   19.9611 Cl      1  UNL1       -0.0821
      8 C          -3.5851  -20.4201   20.5255 C.ar    1  UNL1        0.0116
      9 C          -2.5170  -19.7081   21.3016 C.ar    1  UNL1        0.0017
     10 C          -2.8913  -18.6431   22.2893 C.ar    1  UNL1        0.0116
     11 C          -4.3337  -18.2901   22.5009 C.ar    1  UNL1        0.0628
     12 CL         -4.7081  -17.2250   23.4887 Cl      1  UNL1       -0.0821
     13 C          -9.2069  -19.2718   22.8198 C.ar    1  UNL1        0.0537
     14 C          -9.7071  -18.9551   24.1980 C.ar    1  UNL1        0.0353
     15 C         -11.1495  -18.6020   24.4097 C.ar    1  UNL1        0.1002
     16 N         -12.0917  -18.5657   23.2431 N.ar    1  UNL1       -0.2422
     17 C         -11.5916  -18.8824   21.8649 C.ar    1  UNL1        0.1002
     18 C         -10.1492  -19.2354   21.6533 C.ar    1  UNL1        0.0353
@<TRIPOS>BOND
     1     1     2    2
     2     2     3   am
     3     3    13    1
     4    13    14   ar
     5    14    15   ar
     6    15    16   ar
     7    16    17   ar
     8    17    18   ar
     9     2     5    1
    10     5     6   ar
    11     6     7    1
    12     6     8   ar
    13     8     9   ar
    14     9    10   ar
    15    10    11   ar
    16    11    12    1
    17    18    13   ar
    18    11     5   ar
    19     3     4    1
@<TRIPOS>MOLECULE
*****
 18 19 0 0 0
SMALL
GASTEIGER

@<TRIPOS>ATOM
      1 O          -6.7635  -20.4286   22.3841 O.2     1  UNL1       -0.2698
      2 C          -6.1699  -19.1959   21.7693 C.2     1  UNL1        0.2511
      3 N          -7.0607  -18.1768   21.1229 N.am    1  UNL1       -0.2803
      4 H          -6.6711  -17.3677   20.7193 H       1  UNL1        0.1552
      5 C          -4.6855  -18.9823   21.8008 C.ar    1  UNL1        0.0748
      6 C          -3.7925  -19.7895   20.9059 C.ar    1  UNL1        0.0628
      7 CL         -4.3838  -20.8103   19.9794 Cl      1  UNL1       -0.0821
      8 C          -2.3081  -19.5760   20.9374 C.ar    1  UNL1        0.0116
      9 C          -1.7168  -18.5552   21.8639 C.ar    1  UNL1        0.0017
     10 C          -2.6098  -17.7480   22.7588 C.ar    1  UNL1        0.0116
     11 C          -4.0942  -17.9615   22.7272 C.ar    1  UNL1        0.0628
     12 CL         -4.9873  -17.1543   23.6222 Cl      1  UNL1       -0.0821
     13 C          -8.5452  -18.3903   21.0913 C.ar    1  UNL1        0.0537
     14 C          -9.1525  -19.2829   20.0501 C.ar    1  UNL1        0.0353
     15 C         -10.6369  -19.4964   20.0186 C.ar    1  UNL1        0.1002
     16 N         -11.5139  -18.8173   21.0284 N.ar    1  UNL1       -0.2422
     17 C         -10.9065  -17.9247   22.0697 C.ar    1  UNL1        0.1002
     18 C          -9.4222  -17.7112   22.1012 C.ar    1  UNL1        0.0353
@<TRIPOS>BOND
     1     1     2    2
     2     2     3   am
     3     3    13    1
     4    13    14   ar
     5    14    15   ar
     6    15    16   ar
     7    16    17   ar
     8    17    18   ar
     9     2     5    1
    10     5     6   ar
    11     6     7    1
    12     6     8   ar
    13     8     9   ar
    14     9    10   ar
    15    10    11   ar
    16    11    12    1
    17    18    13   ar
    18    11     5   ar
    19     3     4    1
@<TRIPOS>MOLECULE
*****
 18 19 0 0 0
SMALL
GASTEIGER

@<TRIPOS>ATOM
      1 O          -8.3601  -17.9054   23.2468 O.2     1  UNL1       -0.2698
      2 C          -9.4603  -16.9134   23.4826 C.2     1  UNL1        0.2511
      3 N          -9.2257  -15.7316   24.3761 N.am    1  UNL1       -0.2803
      4 H          -9.9478  -15.0805   24.5309 H       1  UNL1        0.1552
      5 C         -10.7950  -17.1032   22.8249 C.ar    1  UNL1        0.0748
      6 C         -11.8215  -17.9968   23.4555 C.ar    1  UNL1        0.0628
      7 CL        -11.5134  -18.7006   24.7438 Cl      1  UNL1       -0.0821
      8 C         -13.1562  -18.1865   22.7978 C.ar    1  UNL1        0.0116
      9 C         -13.4644  -17.4827   21.5095 C.ar    1  UNL1        0.0017
     10 C         -12.4378  -16.5891   20.8790 C.ar    1  UNL1        0.0116
     11 C         -11.1032  -16.3993   21.5367 C.ar    1  UNL1        0.0628
     12 CL        -10.0766  -15.5057   20.9061 Cl      1  UNL1       -0.0821
     13 C          -7.8909  -15.5418   25.0338 C.ar    1  UNL1        0.0537
     14 C          -6.6708  -15.2953   24.1970 C.ar    1  UNL1        0.0353
     15 C          -5.3361  -15.1055   24.8547 C.ar    1  UNL1        0.1002
     16 N          -5.2216  -15.1623   26.3492 N.ar    1  UNL1       -0.2422
     17 C          -6.4418  -15.4089   27.1860 C.ar    1  UNL1        0.1002
     18 C          -7.7764  -15.5986   26.5283 C.ar    1  UNL1        0.0353
@<TRIPOS>BOND
     1     1     2    2
     2     2     3   am
     3     3    13    1
     4    13    14   ar
     5    14    15   ar
     6    15    16   ar
     7    16    17   ar
     8    17    18   ar
     9     2     5    1
    10     5     6   ar
    11     6     7    1
    12     6     8   ar
    13     8     9   ar
    14     9    10   ar
    15    10    11   ar
    16    11    12    1
    17    18    13   ar
    18    11     5   ar
    19     3     4    1
@<TRIPOS>MOLECULE
*****
 18 19 0 0 0
SMALL
GASTEIGER

@<TRIPOS>ATOM
      1 O          -6.7852  -18.2181   20.5956 O.2     1  UNL1       -0.2698
      2 C          -7.0993  -18.0922   22.0569 C.2     1  UNL1        0.2511
      3 N          -5.9933  -18.1438   23.0689 N.am    1  UNL1       -0.2803
      4 H          -6.1994  -18.0612   24.0280 H       1  UNL1        0.1552
      5 C          -8.5194  -17.9147   22.5063 C.ar    1  UNL1        0.0748
      6 C          -9.1814  -16.5739   22.3881 C.ar    1  UNL1        0.0628
      7 CL         -8.4234  -15.4106   21.8205 Cl      1  UNL1       -0.0821
      8 C         -10.6015  -16.3965   22.8374 C.ar    1  UNL1        0.0116
      9 C         -11.3594  -17.5598   23.4050 C.ar    1  UNL1        0.0017
     10 C         -10.6974  -18.9006   23.5232 C.ar    1  UNL1        0.0116
     11 C          -9.2773  -19.0780   23.0739 C.ar    1  UNL1        0.0628
     12 CL         -8.6152  -20.4188   23.1921 Cl      1  UNL1       -0.0821
     13 C          -4.5732  -18.3213   22.6195 C.ar    1  UNL1        0.0537
     14 C          -3.5844  -17.2080   22.8007 C.ar    1  UNL1        0.0353
     15 C          -2.1644  -17.3855   22.3514 C.ar    1  UNL1        0.1002
     16 N          -1.7331  -18.6763   21.7207 N.ar    1  UNL1       -0.2422
     17 C          -2.7218  -19.7896   21.5395 C.ar    1  UNL1        0.1002
     18 C          -4.1419  -19.6121   21.9889 C.ar    1  UNL1        0.0353
@<TRIPOS>BOND
     1     1     2    2
     2     2     3   am
     3     3    13    1
     4    13    14   ar
     5    14    15   ar
     6    15    16   ar
     7    16    17   ar
     8    17    18   ar
     9     2     5    1
    10     5     6   ar
    11     6     7    1
    12     6     8   ar
    13     8     9   ar
    14     9    10   ar
    15    10    11   ar
    16    11    12    1
    17    18    13   ar
    18    11     5   ar
    19     3     4    1
