@<TRIPOS>MOLECULE
*****
 42 43 0 0 0
SMALL
GASTEIGER

@<TRIPOS>ATOM
      1 O          -9.5198  -19.6071   22.0548 O.3     1  UNL1       -0.2925
      2 P          -9.6698  -20.2378   23.4074 P.3     1  UNL1        0.3697
      3 O          -8.1938  -20.5020   23.4479 O.2     1  UNL1       -0.2553
      4 O          -9.8198  -20.8685   24.7600 O.3     1  UNL1       -0.3218
      5 H          -8.9523  -21.1655   25.0763 H       1  UNL1        0.2198
      6 C         -11.1458  -19.9736   23.3669 C.3     1  UNL1        0.2579
      7 O         -11.7350  -18.8784   24.2055 O.3     1  UNL1       -0.3426
      8 C         -12.9956  -18.1938   23.7672 C.3     1  UNL1        0.1387
      9 C         -14.1272  -18.0144   24.7353 C.3     1  UNL1        0.0342
     10 C         -13.1247  -17.6885   22.3607 C.3     1  UNL1        0.1384
     11 N         -11.9984  -16.9223   21.7327 N.ar    1  UNL1       -0.2918
     12 C         -11.9152  -16.4951   20.2972 C.ar    1  UNL1        0.1798
     13 N         -10.6229  -15.7576   20.1073 N.ar    1  UNL1       -0.2195
     14 C          -9.9074  -15.7290   21.4254 C.ar    1  UNL1        0.1481
     15 C          -8.5917  -15.1405   21.8407 C.ar    1  UNL1        0.1480
     16 N          -7.7416  -14.4206   20.8361 N.pl3   1  UNL1       -0.3413
     17 N          -8.1261  -15.2718   23.2605 N.ar    1  UNL1       -0.2078
     18 C          -8.9762  -15.9917   24.2650 C.ar    1  UNL1        0.2015
     19 N         -10.2920  -16.5802   23.8498 N.ar    1  UNL1       -0.2048
     20 C         -10.7575  -16.4488   22.4299 C.ar    1  UNL1        0.1674
     21 H          -8.0472  -14.3344   19.9043 H       1  UNL1        0.1438
     22 H          -6.8780  -14.0343   21.1087 H       1  UNL1        0.1438
     23 C         -10.4986  -19.9284   20.9646 C.3     1  UNL1        0.1540
     24 C         -10.2108  -19.5141   19.5520 C.3     1  UNL1        0.0646
     25 C          -8.9045  -19.8828   18.9136 C.3     1  UNL1        0.1448
     26 O          -7.6277  -19.2733   19.4119 O.3     1  UNL1       -0.3537
     27 C          -6.6131  -20.1264   20.1137 C.3     1  UNL1        0.1422
     28 C          -5.6472  -19.5036   21.0776 C.3     1  UNL1        0.0321
     29 C          -4.1706  -19.6173   20.8386 C.3     1  UNL1        0.0026
     30 C          -3.6179  -19.4302   19.4567 C.3     1  UNL1        0.0001
     31 C          -2.6860  -18.2905   19.1696 C.3     1  UNL1        0.0000
     32 C          -1.4862  -18.0648   20.0412 C.3     1  UNL1        0.0000
     33 C          -1.3614  -16.7961   20.8317 C.3     1  UNL1        0.0000
     34 C          -2.2721  -16.5459   21.9970 C.3     1  UNL1        0.0000
     35 C          -2.4691  -17.6089   23.0368 C.3     1  UNL1        0.0000
     36 C          -3.6795  -17.5770   23.9222 C.3     1  UNL1        0.0000
     37 C          -4.8849  -16.7820   23.5162 C.3     1  UNL1        0.0000
     38 C          -5.1470  -15.4445   24.1424 C.3     1  UNL1        0.0000
     39 C          -5.0658  -15.2847   25.6317 C.3     1  UNL1        0.0000
     40 C          -6.0548  -15.9843   26.5161 C.3     1  UNL1        0.0000
     41 C          -8.3282  -15.2023   27.5012 C.3     1  UNL1        0.0000
     42 C          -6.8287  -15.2059   27.5386 C.3     1  UNL1        0.0000
@<TRIPOS>BOND
     1    41    42    1
     2    42    40    1
     3    40    39    1
     4    39    38    1
     5    38    37    1
     6    37    36    1
     7    36    35    1
     8    35    34    1
     9    34    33    1
    10    33    32    1
    11    32    31    1
    12    31    30    1
    13    30    29    1
    14    29    28    1
    15    28    27    1
    16    27    26    1
    17    26    25    1
    18    25    24    1
    19    24    23    1
    20    23     1    1
    21     1     2    1
    22     2     3    2
    23     2     4    1
    24     2     6    1
    25     6     7    1
    26     7     8    1
    27     8     9    1
    28     8    10    1
    29    10    11    1
    30    11    12   ar
    31    12    13   ar
    32    13    14   ar
    33    14    15   ar
    34    15    16    1
    35    15    17   ar
    36    17    18   ar
    37    18    19   ar
    38    19    20   ar
    39    20    11   ar
    40    20    14   ar
    41     4     5    1
    42    16    21    1
    43    16    22    1
@<TRIPOS>MOLECULE
*****
 42 43 0 0 0
SMALL
GASTEIGER

@<TRIPOS>ATOM
      1 O          -8.0094  -15.3639   25.6861 O.3     1  UNL1       -0.2925
      2 P          -7.3109  -15.5822   26.9955 P.3     1  UNL1        0.3697
      3 O          -8.6063  -16.0171   27.6141 O.2     1  UNL1       -0.2553
      4 O          -6.6123  -15.8004   28.3048 O.3     1  UNL1       -0.3218
      5 H          -7.2516  -16.1126   28.9642 H       1  UNL1        0.2198
      6 C          -6.0154  -15.1473   26.3769 C.3     1  UNL1        0.2579
      7 O          -5.0483  -16.1721   25.8629 O.3     1  UNL1       -0.3426
      8 C          -4.7809  -16.2794   24.3909 C.3     1  UNL1        0.1387
      9 C          -5.2830  -15.2174   23.4580 C.3     1  UNL1        0.0342
     10 C          -4.0114  -17.4487   23.8515 C.3     1  UNL1        0.1384
     11 N          -3.2280  -17.3089   22.5801 N.ar    1  UNL1       -0.2918
     12 C          -2.2705  -16.2019   22.2517 C.ar    1  UNL1        0.1798
     13 N          -1.7152  -16.4604   20.8824 N.ar    1  UNL1       -0.2195
     14 C          -2.3296  -17.7270   20.3645 C.ar    1  UNL1        0.1481
     15 C          -2.1585  -18.4707   19.0732 C.ar    1  UNL1        0.1480
     16 N          -1.2235  -17.9463   18.0239 N.pl3   1  UNL1       -0.3413
     17 N          -2.9223  -19.7387   18.8310 N.ar    1  UNL1       -0.2078
     18 C          -3.8572  -20.2631   19.8803 C.ar    1  UNL1        0.2015
     19 N          -4.0284  -19.5195   21.1716 N.ar    1  UNL1       -0.2048
     20 C          -3.2645  -18.2514   21.4138 C.ar    1  UNL1        0.1674
     21 H          -0.7222  -17.1140   18.1829 H       1  UNL1        0.1438
     22 H          -1.1112  -18.4343   17.1763 H       1  UNL1        0.1438
     23 C          -8.4909  -16.5390   24.8879 C.3     1  UNL1        0.1540
     24 C          -9.3576  -16.3228   23.6829 C.3     1  UNL1        0.0646
     25 C          -8.7307  -16.0630   22.3451 C.3     1  UNL1        0.1448
     26 O          -9.5880  -15.6694   21.1789 O.3     1  UNL1       -0.3537
     27 C         -11.0805  -15.7872   21.2715 C.3     1  UNL1        0.1422
     28 C         -11.8354  -16.5801   20.2462 C.3     1  UNL1        0.0321
     29 C         -11.1729  -17.7341   19.5536 C.3     1  UNL1        0.0026
     30 C         -11.0570  -19.0589   20.2476 C.3     1  UNL1        0.0001
     31 C          -9.9802  -20.0234   19.8475 C.3     1  UNL1        0.0000
     32 C          -8.7088  -19.5161   19.2342 C.3     1  UNL1        0.0000
     33 C          -7.4925  -19.3141   20.0886 C.3     1  UNL1        0.0000
     34 C          -7.3649  -20.0395   21.3952 C.3     1  UNL1        0.0000
     35 C          -8.1249  -19.5605   22.5964 C.3     1  UNL1        0.0000
     36 C          -8.7654  -20.5512   23.5229 C.3     1  UNL1        0.0000
     37 C          -9.9319  -20.1393   24.3711 C.3     1  UNL1        0.0000
     38 C         -11.2142  -19.7071   23.7239 C.3     1  UNL1        0.0000
     39 C         -11.8827  -18.4366   24.1585 C.3     1  UNL1        0.0000
     40 C         -13.1963  -18.0359   23.5553 C.3     1  UNL1        0.0000
     41 C         -14.4207  -18.4482   25.8095 C.3     1  UNL1        0.0000
     42 C         -14.4679  -18.2380   24.3250 C.3     1  UNL1        0.0000
@<TRIPOS>BOND
     1    41    42    1
     2    42    40    1
     3    40    39    1
     4    39    38    1
     5    38    37    1
     6    37    36    1
     7    36    35    1
     8    35    34    1
     9    34    33    1
    10    33    32    1
    11    32    31    1
    12    31    30    1
    13    30    29    1
    14    29    28    1
    15    28    27    1
    16    27    26    1
    17    26    25    1
    18    25    24    1
    19    24    23    1
    20    23     1    1
    21     1     2    1
    22     2     3    2
    23     2     4    1
    24     2     6    1
    25     6     7    1
    26     7     8    1
    27     8     9    1
    28     8    10    1
    29    10    11    1
    30    11    12   ar
    31    12    13   ar
    32    13    14   ar
    33    14    15   ar
    34    15    16    1
    35    15    17   ar
    36    17    18   ar
    37    18    19   ar
    38    19    20   ar
    39    20    11   ar
    40    20    14   ar
    41     4     5    1
    42    16    21    1
    43    16    22    1
@<TRIPOS>MOLECULE
*****
 42 43 0 0 0
SMALL
GASTEIGER

@<TRIPOS>ATOM
      1 O          -7.4017  -17.4964   21.3580 O.3     1  UNL1       -0.2925
      2 P          -7.1600  -18.9710   21.2271 P.3     1  UNL1        0.3697
      3 O          -6.8753  -18.7946   19.7650 O.2     1  UNL1       -0.2553
      4 O          -6.9184  -20.4456   21.0962 O.3     1  UNL1       -0.3218
      5 H          -6.6927  -20.6559   20.1765 H       1  UNL1        0.2198
      6 C          -7.4448  -19.1475   22.6892 C.3     1  UNL1        0.2579
      7 O          -8.1049  -20.4023   23.1787 O.3     1  UNL1       -0.3426
      8 C          -9.5406  -20.3745   23.6123 C.3     1  UNL1        0.1387
      9 C          -9.8861  -20.0959   25.0451 C.3     1  UNL1        0.0342
     10 C         -10.6309  -20.6253   22.6130 C.3     1  UNL1        0.1384
     11 N         -10.9123  -19.6149   21.5406 N.ar    1  UNL1       -0.2918
     12 C         -10.6267  -19.7794   20.0773 C.ar    1  UNL1        0.1798
     13 N         -11.0667  -18.5287   19.3757 N.ar    1  UNL1       -0.2195
     14 C         -11.6243  -17.5913   20.4054 C.ar    1  UNL1        0.1481
     15 C         -12.2066  -16.2132   20.2975 C.ar    1  UNL1        0.1480
     16 N         -12.3019  -15.5419   18.9595 N.pl3   1  UNL1       -0.3413
     17 N         -12.6934  -15.5063   21.5277 N.ar    1  UNL1       -0.2078
     18 C         -12.5981  -16.1776   22.8657 C.ar    1  UNL1        0.2015
     19 N         -12.0158  -17.5557   22.9736 N.ar    1  UNL1       -0.2048
     20 C         -11.5289  -18.2626   21.7434 C.ar    1  UNL1        0.1674
     21 H         -11.9824  -16.0058   18.1521 H       1  UNL1        0.1438
     22 H         -12.6841  -14.6373   18.8887 H       1  UNL1        0.1438
     23 C          -8.5172  -16.9933   22.2253 C.3     1  UNL1        0.1540
     24 C          -8.3624  -15.7019   22.9725 C.3     1  UNL1        0.0646
     25 C          -8.8884  -15.5772   24.3716 C.3     1  UNL1        0.1448
     26 O          -9.0320  -16.7985   25.2305 O.3     1  UNL1       -0.3537
     27 C          -8.4345  -16.8226   26.6061 C.3     1  UNL1        0.1422
     28 C          -8.0627  -15.5377   27.2850 C.3     1  UNL1        0.0321
     29 C          -6.6426  -15.0556   27.2521 C.3     1  UNL1        0.0026
     30 C          -5.6162  -15.8002   26.4508 C.3     1  UNL1        0.0001
     31 C          -5.3635  -15.4241   25.0209 C.3     1  UNL1        0.0000
     32 C          -4.9345  -16.4698   24.0348 C.3     1  UNL1        0.0000
     33 C          -3.8555  -16.1637   23.0388 C.3     1  UNL1        0.0000
     34 C          -2.9498  -17.2569   22.5546 C.3     1  UNL1        0.0000
     35 C          -3.3110  -18.6925   22.7966 C.3     1  UNL1        0.0000
     36 C          -2.8193  -19.7575   21.8618 C.3     1  UNL1        0.0000
     37 C          -3.6733  -20.1964   20.7093 C.3     1  UNL1        0.0000
     38 C          -3.3984  -19.6737   19.3305 C.3     1  UNL1        0.0000
     39 C          -3.3251  -18.1950   19.0897 C.3     1  UNL1        0.0000
     40 C          -1.9929  -17.5295   18.9100 C.3     1  UNL1        0.0000
     41 C           0.2903  -17.2662   20.1216 C.3     1  UNL1        0.0000
     42 C          -0.7614  -18.1424   19.5084 C.3     1  UNL1        0.0000
@<TRIPOS>BOND
     1    41    42    1
     2    42    40    1
     3    40    39    1
     4    39    38    1
     5    38    37    1
     6    37    36    1
     7    36    35    1
     8    35    34    1
     9    34    33    1
    10    33    32    1
    11    32    31    1
    12    31    30    1
    13    30    29    1
    14    29    28    1
    15    28    27    1
    16    27    26    1
    17    26    25    1
    18    25    24    1
    19    24    23    1
    20    23     1    1
    21     1     2    1
    22     2     3    2
    23     2     4    1
    24     2     6    1
    25     6     7    1
    26     7     8    1
    27     8     9    1
    28     8    10    1
    29    10    11    1
    30    11    12   ar
    31    12    13   ar
    32    13    14   ar
    33    14    15   ar
    34    15    16    1
    35    15    17   ar
    36    17    18   ar
    37    18    19   ar
    38    19    20   ar
    39    20    11   ar
    40    20    14   ar
    41     4     5    1
    42    16    21    1
    43    16    22    1
@<TRIPOS>MOLECULE
*****
 42 43 0 0 0
SMALL
GASTEIGER

@<TRIPOS>ATOM
      1 O          -9.7752  -19.9038   21.9368 O.3     1  UNL1       -0.2925
      2 P         -10.3797  -20.0623   23.3004 P.3     1  UNL1        0.3697
      3 O         -11.7417  -20.1799   22.6828 O.2     1  UNL1       -0.2553
      4 O         -10.9843  -20.2209   24.6639 O.3     1  UNL1       -0.3218
      5 H         -11.9450  -20.3267   24.5814 H       1  UNL1        0.2198
      6 C          -9.0178  -19.9448   23.9179 C.3     1  UNL1        0.2579
      7 O          -8.3144  -18.6201   23.9364 O.3     1  UNL1       -0.3426
      8 C          -8.8119  -17.5190   24.8253 C.3     1  UNL1        0.1387
      9 C          -9.2260  -17.8222   26.2347 C.3     1  UNL1        0.0342
     10 C          -8.8954  -16.1146   24.3047 C.3     1  UNL1        0.1384
     11 N          -9.4083  -15.8578   22.9187 N.ar    1  UNL1       -0.2918
     12 C          -8.6700  -15.1480   21.8228 C.ar    1  UNL1        0.1798
     13 N          -9.5550  -15.1172   20.6121 N.ar    1  UNL1       -0.2195
     14 C         -10.8403  -15.8079   20.9598 C.ar    1  UNL1        0.1481
     15 C         -12.0815  -16.0792   20.1624 C.ar    1  UNL1        0.1480
     16 N         -12.1722  -15.6215   18.7369 N.pl3   1  UNL1       -0.3413
     17 N         -13.2321  -16.8083   20.7907 N.ar    1  UNL1       -0.2078
     18 C         -13.1414  -17.2660   22.2163 C.ar    1  UNL1        0.2015
     19 N         -11.9002  -16.9947   23.0136 N.ar    1  UNL1       -0.2048
     20 C         -10.7497  -16.2657   22.3853 C.ar    1  UNL1        0.1674
     21 H         -11.4170  -15.1430   18.3245 H       1  UNL1        0.1438
     22 H         -12.9869  -15.7996   18.2136 H       1  UNL1        0.1438
     23 C         -10.6549  -19.6272   20.7538 C.3     1  UNL1        0.1540
     24 C         -10.0462  -19.2133   19.4469 C.3     1  UNL1        0.0646
     25 C          -8.7332  -19.7948   19.0135 C.3     1  UNL1        0.1448
     26 O          -7.4597  -19.0449   19.2699 O.3     1  UNL1       -0.3537
     27 C          -6.9412  -18.9040   20.6704 C.3     1  UNL1        0.1422
     28 C          -6.0535  -19.9641   21.2518 C.3     1  UNL1        0.0321
     29 C          -5.0363  -20.6479   20.3868 C.3     1  UNL1        0.0026
     30 C          -3.6896  -20.0223   20.1752 C.3     1  UNL1        0.0001
     31 C          -3.5470  -18.8389   19.2646 C.3     1  UNL1        0.0000
     32 C          -2.1839  -18.3105   18.9291 C.3     1  UNL1        0.0000
     33 C          -1.2263  -17.9546   20.0274 C.3     1  UNL1        0.0000
     34 C          -1.3585  -16.6422   20.7416 C.3     1  UNL1        0.0000
     35 C          -2.1811  -16.5484   21.9924 C.3     1  UNL1        0.0000
     36 C          -2.4262  -17.7735   22.8225 C.3     1  UNL1        0.0000
     37 C          -3.7606  -17.9827   23.4749 C.3     1  UNL1        0.0000
     38 C          -4.8627  -16.9873   23.2642 C.3     1  UNL1        0.0000
     39 C          -5.0028  -15.8161   24.1908 C.3     1  UNL1        0.0000
     40 C          -5.3201  -16.0398   25.6397 C.3     1  UNL1        0.0000
     41 C          -6.9909  -15.4154   27.5289 C.3     1  UNL1        0.0000
     42 C          -6.0820  -15.0019   26.4096 C.3     1  UNL1        0.0000
@<TRIPOS>BOND
     1    41    42    1
     2    42    40    1
     3    40    39    1
     4    39    38    1
     5    38    37    1
     6    37    36    1
     7    36    35    1
     8    35    34    1
     9    34    33    1
    10    33    32    1
    11    32    31    1
    12    31    30    1
    13    30    29    1
    14    29    28    1
    15    28    27    1
    16    27    26    1
    17    26    25    1
    18    25    24    1
    19    24    23    1
    20    23     1    1
    21     1     2    1
    22     2     3    2
    23     2     4    1
    24     2     6    1
    25     6     7    1
    26     7     8    1
    27     8     9    1
    28     8    10    1
    29    10    11    1
    30    11    12   ar
    31    12    13   ar
    32    13    14   ar
    33    14    15   ar
    34    15    16    1
    35    15    17   ar
    36    17    18   ar
    37    18    19   ar
    38    19    20   ar
    39    20    11   ar
    40    20    14   ar
    41     4     5    1
    42    16    21    1
    43    16    22    1
@<TRIPOS>MOLECULE
*****
 42 43 0 0 0
SMALL
GASTEIGER

@<TRIPOS>ATOM
      1 O          -8.7925  -15.2241   25.7155 O.3     1  UNL1       -0.2925
      2 P          -7.8180  -15.5495   26.8084 P.3     1  UNL1        0.3697
      3 O          -8.6331  -14.7430   27.7754 O.2     1  UNL1       -0.2553
      4 O          -6.8435  -15.8749   27.9012 O.3     1  UNL1       -0.3218
      5 H          -7.1304  -15.4534   28.7264 H       1  UNL1        0.2198
      6 C          -7.0029  -16.3560   25.8414 C.3     1  UNL1        0.2579
      7 O          -5.5421  -16.0643   25.6660 O.3     1  UNL1       -0.3426
      8 C          -4.9288  -16.1016   24.2976 C.3     1  UNL1        0.1387
      9 C          -5.2860  -15.0526   23.2867 C.3     1  UNL1        0.0342
     10 C          -3.9582  -17.1881   23.9401 C.3     1  UNL1        0.1384
     11 N          -3.2093  -17.1274   22.6418 N.ar    1  UNL1       -0.2918
     12 C          -2.2946  -16.0228   22.2024 C.ar    1  UNL1        0.1798
     13 N          -1.7637  -16.3735   20.8440 N.ar    1  UNL1       -0.2195
     14 C          -2.3503  -17.6947   20.4439 C.ar    1  UNL1        0.1481
     15 C          -2.1864  -18.5338   19.2114 C.ar    1  UNL1        0.1480
     16 N          -1.2929  -18.0678   18.1003 N.pl3   1  UNL1       -0.3413
     17 N          -2.9159  -19.8387   19.0900 N.ar    1  UNL1       -0.2078
     18 C          -3.8094  -20.3047   20.2011 C.ar    1  UNL1        0.2015
     19 N          -3.9733  -19.4657   21.4336 N.ar    1  UNL1       -0.2048
     20 C          -3.2438  -18.1607   21.5550 C.ar    1  UNL1        0.1674
     21 H          -0.8141  -17.2113   18.1800 H       1  UNL1        0.1438
     22 H          -1.1853  -18.6185   17.2913 H       1  UNL1        0.1438
     23 C          -8.8316  -16.0613   24.4716 C.3     1  UNL1        0.1540
     24 C          -9.9445  -17.0454   24.2644 C.3     1  UNL1        0.0646
     25 C          -9.9836  -18.3130   25.0654 C.3     1  UNL1        0.1448
     26 O         -10.2680  -19.6203   24.3871 O.3     1  UNL1       -0.3537
     27 C          -9.1354  -20.5109   23.9700 C.3     1  UNL1        0.1422
     28 C          -8.4508  -20.2872   22.6542 C.3     1  UNL1        0.0321
     29 C          -7.5513  -19.1012   22.4687 C.3     1  UNL1        0.0026
     30 C          -7.1951  -18.6388   21.0869 C.3     1  UNL1        0.0001
     31 C          -7.1986  -19.6126   19.9460 C.3     1  UNL1        0.0000
     32 C          -8.2666  -19.5336   18.8958 C.3     1  UNL1        0.0000
     33 C          -9.6366  -20.0758   19.1771 C.3     1  UNL1        0.0000
     34 C         -10.7492  -19.1433   19.5548 C.3     1  UNL1        0.0000
     35 C         -10.6296  -18.2917   20.7837 C.3     1  UNL1        0.0000
     36 C         -10.7791  -16.8027   20.6819 C.3     1  UNL1        0.0000
     37 C         -12.1457  -16.1900   20.5998 C.3     1  UNL1        0.0000
     38 C         -13.1170  -16.3692   21.7288 C.3     1  UNL1        0.0000
     39 C         -13.3230  -17.7267   22.3326 C.3     1  UNL1        0.0000
     40 C         -13.2978  -17.8965   23.8227 C.3     1  UNL1        0.0000
     41 C         -14.5088  -18.5295   26.0325 C.3     1  UNL1        0.0000
     42 C         -14.5539  -18.2605   24.5575 C.3     1  UNL1        0.0000
@<TRIPOS>BOND
     1    41    42    1
     2    42    40    1
     3    40    39    1
     4    39    38    1
     5    38    37    1
     6    37    36    1
     7    36    35    1
     8    35    34    1
     9    34    33    1
    10    33    32    1
    11    32    31    1
    12    31    30    1
    13    30    29    1
    14    29    28    1
    15    28    27    1
    16    27    26    1
    17    26    25    1
    18    25    24    1
    19    24    23    1
    20    23     1    1
    21     1     2    1
    22     2     3    2
    23     2     4    1
    24     2     6    1
    25     6     7    1
    26     7     8    1
    27     8     9    1
    28     8    10    1
    29    10    11    1
    30    11    12   ar
    31    12    13   ar
    32    13    14   ar
    33    14    15   ar
    34    15    16    1
    35    15    17   ar
    36    17    18   ar
    37    18    19   ar
    38    19    20   ar
    39    20    11   ar
    40    20    14   ar
    41     4     5    1
    42    16    21    1
    43    16    22    1
@<TRIPOS>MOLECULE
*****
 42 43 0 0 0
SMALL
GASTEIGER

@<TRIPOS>ATOM
      1 O           7.2007   -3.8526   29.8094 O.3     1  UNL1       -0.2925
      2 P           6.8393   -4.5960   31.0611 P.3     1  UNL1        0.3697
      3 O           6.9415   -5.8955   30.3189 O.2     1  UNL1       -0.2553
      4 O           6.4780   -5.3394   32.3128 O.3     1  UNL1       -0.3218
      5 H           6.4624   -6.2920   32.1301 H       1  UNL1        0.2198
      6 C           6.7371   -3.2966   31.8034 C.3     1  UNL1        0.2579
      7 O           5.5169   -2.9942   32.6217 O.3     1  UNL1       -0.3426
      8 C           5.0469   -1.5777   32.7722 C.3     1  UNL1        0.1387
      9 C           4.4737   -1.1124   34.0779 C.3     1  UNL1        0.0342
     10 C           5.1500   -0.6265   31.6169 C.3     1  UNL1        0.1384
     11 N           4.0901   -0.6180   30.5555 N.ar    1  UNL1       -0.2918
     12 C           4.1519   -1.3395   29.2419 C.ar    1  UNL1        0.1798
     13 N           2.8823   -1.0539   28.4960 N.ar    1  UNL1       -0.2195
     14 C           2.0358   -0.1557   29.3485 C.ar    1  UNL1        0.1481
     15 C           0.6818    0.4515   29.1302 C.ar    1  UNL1        0.1480
     16 N          -0.0647    0.1821   27.8573 N.pl3   1  UNL1       -0.3413
     17 N           0.0742    1.3283   30.1848 N.ar    1  UNL1       -0.2078
     18 C           0.8206    1.5977   31.4576 C.ar    1  UNL1        0.2015
     19 N           2.1747    0.9904   31.6759 N.ar    1  UNL1       -0.2048
     20 C           2.7823    0.1137   30.6214 C.ar    1  UNL1        0.1674
     21 H           0.3341   -0.3933   27.1652 H       1  UNL1        0.1438
     22 H          -0.9534    0.5807   27.7141 H       1  UNL1        0.1438
     23 C           7.1701   -4.5552   28.4845 C.3     1  UNL1        0.1540
     24 C           6.5689   -3.8766   27.2894 C.3     1  UNL1        0.0646
     25 C           6.6028   -4.5493   25.9491 C.3     1  UNL1        0.1448
     26 O           7.1895   -3.8364   24.7669 O.3     1  UNL1       -0.3537
     27 C           6.3311   -3.5257   23.5767 C.3     1  UNL1        0.1422
     28 C           5.0196   -2.8215   23.7611 C.3     1  UNL1        0.0321
     29 C           4.1491   -2.5342   22.5737 C.3     1  UNL1        0.0026
     30 C           3.8917   -1.1162   22.1580 C.3     1  UNL1        0.0001
     31 C           2.5067   -0.6866   21.7744 C.3     1  UNL1        0.0000
     32 C           1.9628   -1.0308   20.4196 C.3     1  UNL1        0.0000
     33 C           1.2877    0.0229   19.5926 C.3     1  UNL1        0.0000
     34 C           1.9765    0.5829   18.3835 C.3     1  UNL1        0.0000
     35 C           2.9624    1.7033   18.5335 C.3     1  UNL1        0.0000
     36 C           4.4284    1.4033   18.6386 C.3     1  UNL1        0.0000
     37 C           5.1440    0.7491   17.4942 C.3     1  UNL1        0.0000
     38 C           5.6362   -0.6617   17.6255 C.3     1  UNL1        0.0000
     39 C           4.6553   -1.7902   17.7453 C.3     1  UNL1        0.0000
     40 C           4.6150   -2.6195   18.9946 C.3     1  UNL1        0.0000
     41 C           4.5926   -5.2062   18.7525 C.3     1  UNL1        0.0000
     42 C           3.8660   -3.9191   19.0082 C.3     1  UNL1        0.0000
@<TRIPOS>BOND
     1    41    42    1
     2    42    40    1
     3    40    39    1
     4    39    38    1
     5    38    37    1
     6    37    36    1
     7    36    35    1
     8    35    34    1
     9    34    33    1
    10    33    32    1
    11    32    31    1
    12    31    30    1
    13    30    29    1
    14    29    28    1
    15    28    27    1
    16    27    26    1
    17    26    25    1
    18    25    24    1
    19    24    23    1
    20    23     1    1
    21     1     2    1
    22     2     3    2
    23     2     4    1
    24     2     6    1
    25     6     7    1
    26     7     8    1
    27     8     9    1
    28     8    10    1
    29    10    11    1
    30    11    12   ar
    31    12    13   ar
    32    13    14   ar
    33    14    15   ar
    34    15    16    1
    35    15    17   ar
    36    17    18   ar
    37    18    19   ar
    38    19    20   ar
    39    20    11   ar
    40    20    14   ar
    41     4     5    1
    42    16    21    1
    43    16    22    1
@<TRIPOS>MOLECULE
*****
 42 43 0 0 0
SMALL
GASTEIGER

@<TRIPOS>ATOM
      1 O           7.6286   -4.1658   29.9797 O.3     1  UNL1       -0.2925
      2 P           7.1290   -4.8827   31.1989 P.3     1  UNL1        0.3697
      3 O           6.7375   -6.0551   30.3491 O.2     1  UNL1       -0.2553
      4 O           6.6294   -5.5996   32.4181 O.3     1  UNL1       -0.3218
      5 H           6.2830   -6.4689   32.1627 H       1  UNL1        0.2198
      6 C           7.5205   -3.7103   32.0487 C.3     1  UNL1        0.2579
      7 O           6.4661   -2.7913   32.5905 O.3     1  UNL1       -0.3426
      8 C           6.7270   -1.3165   32.6732 C.3     1  UNL1        0.1387
      9 C           7.4590   -0.7494   33.8533 C.3     1  UNL1        0.0342
     10 C           6.2558   -0.4087   31.5759 C.3     1  UNL1        0.1384
     11 N           4.8324   -0.4747   31.1072 N.ar    1  UNL1       -0.2918
     12 C           3.6324   -0.7401   31.9672 C.ar    1  UNL1        0.1798
     13 N           2.4175   -0.7163   31.0877 N.ar    1  UNL1       -0.2195
     14 C           2.8667   -0.4362   29.6842 C.ar    1  UNL1        0.1481
     15 C           2.1094   -0.2978   28.3968 C.ar    1  UNL1        0.1480
     16 N           0.6169   -0.4471   28.3848 N.pl3   1  UNL1       -0.3413
     17 N           2.8447   -0.0101   27.1215 N.ar    1  UNL1       -0.2078
     18 C           4.3372    0.1392   27.1335 C.ar    1  UNL1        0.2015
     19 N           5.0944    0.0008   28.4209 N.ar    1  UNL1       -0.2048
     20 C           4.3592   -0.2869   29.6963 C.ar    1  UNL1        0.1674
     21 H           0.1343   -0.6360   29.2219 H       1  UNL1        0.1438
     22 H           0.1199   -0.3563   27.5398 H       1  UNL1        0.1438
     23 C           6.6657   -3.4331   29.0931 C.3     1  UNL1        0.1540
     24 C           7.0044   -3.1975   27.6510 C.3     1  UNL1        0.0646
     25 C           6.9227   -4.3269   26.6672 C.3     1  UNL1        0.1448
     26 O           6.4187   -4.0756   25.2770 O.3     1  UNL1       -0.3537
     27 C           5.8779   -2.7261   24.9078 C.3     1  UNL1        0.1422
     28 C           4.8637   -2.5992   23.8099 C.3     1  UNL1        0.0321
     29 C           4.9091   -3.5314   22.6355 C.3     1  UNL1        0.0026
     30 C           5.9315   -3.3294   21.5566 C.3     1  UNL1        0.0001
     31 C           5.7046   -3.9063   20.1908 C.3     1  UNL1        0.0000
     32 C           4.3875   -3.7064   19.5014 C.3     1  UNL1        0.0000
     33 C           4.2452   -2.6477   18.4484 C.3     1  UNL1        0.0000
     34 C           4.9846   -1.3498   18.5852 C.3     1  UNL1        0.0000
     35 C           4.3294   -0.1807   19.2590 C.3     1  UNL1        0.0000
     36 C           3.9593   -0.2622   20.7103 C.3     1  UNL1        0.0000
     37 C           2.6698   -0.9096   21.1203 C.3     1  UNL1        0.0000
     38 C           1.5021   -0.9178   20.1787 C.3     1  UNL1        0.0000
     39 C           0.3507    0.0168   20.4036 C.3     1  UNL1        0.0000
     40 C           0.4495    1.4479   19.9652 C.3     1  UNL1        0.0000
     41 C           2.1988    2.5920   18.4220 C.3     1  UNL1        0.0000
     42 C           0.9499    1.7783   18.5902 C.3     1  UNL1        0.0000
@<TRIPOS>BOND
     1    41    42    1
     2    42    40    1
     3    40    39    1
     4    39    38    1
     5    38    37    1
     6    37    36    1
     7    36    35    1
     8    35    34    1
     9    34    33    1
    10    33    32    1
    11    32    31    1
    12    31    30    1
    13    30    29    1
    14    29    28    1
    15    28    27    1
    16    27    26    1
    17    26    25    1
    18    25    24    1
    19    24    23    1
    20    23     1    1
    21     1     2    1
    22     2     3    2
    23     2     4    1
    24     2     6    1
    25     6     7    1
    26     7     8    1
    27     8     9    1
    28     8    10    1
    29    10    11    1
    30    11    12   ar
    31    12    13   ar
    32    13    14   ar
    33    14    15   ar
    34    15    16    1
    35    15    17   ar
    36    17    18   ar
    37    18    19   ar
    38    19    20   ar
    39    20    11   ar
    40    20    14   ar
    41     4     5    1
    42    16    21    1
    43    16    22    1
@<TRIPOS>MOLECULE
*****
 42 43 0 0 0
SMALL
GASTEIGER

@<TRIPOS>ATOM
      1 O           7.8662   -4.1855   30.1167 O.3     1  UNL1       -0.2925
      2 P           7.1568   -4.8622   31.2520 P.3     1  UNL1        0.3697
      3 O           7.4756   -6.2002   30.6537 O.2     1  UNL1       -0.2553
      4 O           6.4474   -5.5389   32.3873 O.3     1  UNL1       -0.3218
      5 H           6.4889   -6.5005   32.2672 H       1  UNL1        0.2198
      6 C           6.8380   -3.5241   31.8503 C.3     1  UNL1        0.2579
      7 O           5.7964   -2.6490   31.2186 O.3     1  UNL1       -0.3426
      8 C           4.9017   -1.8071   32.0793 C.3     1  UNL1        0.1387
      9 C           4.5508   -2.2607   33.4653 C.3     1  UNL1        0.0342
     10 C           4.3577   -0.5116   31.5538 C.3     1  UNL1        0.1384
     11 N           3.6739   -0.4716   30.2194 N.ar    1  UNL1       -0.2918
     12 C           2.1985   -0.5988   29.9805 C.ar    1  UNL1        0.1798
     13 N           1.9582   -0.5031   28.5030 N.ar    1  UNL1       -0.2195
     14 C           3.2851   -0.3167   27.8287 C.ar    1  UNL1        0.1481
     15 C           3.6647   -0.1622   26.3858 C.ar    1  UNL1        0.1480
     16 N           2.6043   -0.1817   25.3250 N.pl3   1  UNL1       -0.3413
     17 N           5.1047    0.0118   26.0037 N.ar    1  UNL1       -0.2078
     18 C           6.1651    0.0313   27.0645 C.ar    1  UNL1        0.2015
     19 N           5.7854   -0.1232   28.5073 N.ar    1  UNL1       -0.2048
     20 C           4.3454   -0.2972   28.8894 C.ar    1  UNL1        0.1674
     21 H           1.6592   -0.2959   25.5758 H       1  UNL1        0.1438
     22 H           2.8535   -0.0803   24.3780 H       1  UNL1        0.1438
     23 C           7.4683   -4.4809   28.7010 C.3     1  UNL1        0.1540
     24 C           7.3601   -3.3654   27.7040 C.3     1  UNL1        0.0646
     25 C           6.5994   -3.5714   26.4277 C.3     1  UNL1        0.1448
     26 O           7.2128   -3.1770   25.1170 O.3     1  UNL1       -0.3537
     27 C           6.4373   -3.3476   23.8444 C.3     1  UNL1        0.1422
     28 C           5.0359   -2.8221   23.7438 C.3     1  UNL1        0.0321
     29 C           4.7074   -1.7474   22.7502 C.3     1  UNL1        0.0026
     30 C           3.8134   -2.0513   21.5848 C.3     1  UNL1        0.0001
     31 C           4.1231   -3.2101   20.6840 C.3     1  UNL1        0.0000
     32 C           3.9759   -3.0655   19.1983 C.3     1  UNL1        0.0000
     33 C           5.1879   -3.1169   18.3161 C.3     1  UNL1        0.0000
     34 C           6.4736   -2.4921   18.7708 C.3     1  UNL1        0.0000
     35 C           6.7240   -1.0327   18.5317 C.3     1  UNL1        0.0000
     36 C           6.2778   -0.0194   19.5437 C.3     1  UNL1        0.0000
     37 C           4.9452    0.6529   19.3945 C.3     1  UNL1        0.0000
     38 C           4.2740    0.6982   18.0538 C.3     1  UNL1        0.0000
     39 C           2.9505    0.0210   17.8544 C.3     1  UNL1        0.0000
     40 C           1.7406    0.5055   18.5969 C.3     1  UNL1        0.0000
     41 C           0.5795    0.3474   20.9157 C.3     1  UNL1        0.0000
     42 C           1.1594   -0.3218   19.7050 C.3     1  UNL1        0.0000
@<TRIPOS>BOND
     1    41    42    1
     2    42    40    1
     3    40    39    1
     4    39    38    1
     5    38    37    1
     6    37    36    1
     7    36    35    1
     8    35    34    1
     9    34    33    1
    10    33    32    1
    11    32    31    1
    12    31    30    1
    13    30    29    1
    14    29    28    1
    15    28    27    1
    16    27    26    1
    17    26    25    1
    18    25    24    1
    19    24    23    1
    20    23     1    1
    21     1     2    1
    22     2     3    2
    23     2     4    1
    24     2     6    1
    25     6     7    1
    26     7     8    1
    27     8     9    1
    28     8    10    1
    29    10    11    1
    30    11    12   ar
    31    12    13   ar
    32    13    14   ar
    33    14    15   ar
    34    15    16    1
    35    15    17   ar
    36    17    18   ar
    37    18    19   ar
    38    19    20   ar
    39    20    11   ar
    40    20    14   ar
    41     4     5    1
    42    16    21    1
    43    16    22    1
@<TRIPOS>MOLECULE
*****
 42 43 0 0 0
SMALL
GASTEIGER

@<TRIPOS>ATOM
      1 O           7.2021   -4.2806   26.7562 O.3     1  UNL1       -0.2925
      2 P           6.8700   -5.0551   27.9971 P.3     1  UNL1        0.3697
      3 O           6.1318   -6.0649   27.1693 O.2     1  UNL1       -0.2553
      4 O           6.5379   -5.8296   29.2381 O.3     1  UNL1       -0.3218
      5 H           6.0162   -6.6122   29.0008 H       1  UNL1        0.2198
      6 C           7.6082   -4.0453   28.8249 C.3     1  UNL1        0.2579
      7 O           7.3402   -3.9421   30.2972 O.3     1  UNL1       -0.3426
      8 C           6.6634   -2.7241   30.8527 C.3     1  UNL1        0.1387
      9 C           6.2186   -2.7010   32.2851 C.3     1  UNL1        0.0342
     10 C           6.4315   -1.5293   29.9759 C.3     1  UNL1        0.1384
     11 N           5.1088   -1.3458   29.2928 N.ar    1  UNL1       -0.2918
     12 C           4.7428   -1.8529   27.9294 C.ar    1  UNL1        0.1798
     13 N           3.3276   -1.4434   27.6471 N.ar    1  UNL1       -0.2195
     14 C           2.8190   -0.6833   28.8360 C.ar    1  UNL1        0.1481
     15 C           1.4958   -0.0382   29.1238 C.ar    1  UNL1        0.1480
     16 N           0.3949   -0.0986   28.1067 N.pl3   1  UNL1       -0.3413
     17 N           1.2734    0.6672   30.4288 N.ar    1  UNL1       -0.2078
     18 C           2.3742    0.7275   31.4459 C.ar    1  UNL1        0.2015
     19 N           3.6975    0.0825   31.1580 N.ar    1  UNL1       -0.2048
     20 C           3.9199   -0.6229   29.8531 C.ar    1  UNL1        0.1674
     21 H           0.5409   -0.5616   27.2502 H       1  UNL1        0.1438
     22 H          -0.4736    0.3248   28.2956 H       1  UNL1        0.1438
     23 C           7.1220   -4.9448   25.4137 C.3     1  UNL1        0.1540
     24 C           8.3718   -5.4307   24.7415 C.3     1  UNL1        0.0646
     25 C           8.7229   -4.9421   23.3675 C.3     1  UNL1        0.1448
     26 O           7.7951   -5.2044   22.2184 O.3     1  UNL1       -0.3537
     27 C           7.3749   -4.0780   21.3214 C.3     1  UNL1        0.1422
     28 C           7.3199   -2.6764   21.8529 C.3     1  UNL1        0.0321
     29 C           6.0119   -2.0953   22.3020 C.3     1  UNL1        0.0026
     30 C           4.7344   -2.8397   22.0493 C.3     1  UNL1        0.0001
     31 C           3.6829   -2.2447   21.1603 C.3     1  UNL1        0.0000
     32 C           3.5164   -2.7459   19.7563 C.3     1  UNL1        0.0000
     33 C           4.6684   -3.3984   19.0513 C.3     1  UNL1        0.0000
     34 C           5.3635   -2.6841   17.9303 C.3     1  UNL1        0.0000
     35 C           6.7589   -2.1679   18.1208 C.3     1  UNL1        0.0000
     36 C           6.9803   -0.7859   18.6604 C.3     1  UNL1        0.0000
     37 C           5.8279   -0.0060   19.2206 C.3     1  UNL1        0.0000
     38 C           5.0561    0.9298   18.3383 C.3     1  UNL1        0.0000
     39 C           3.6453    0.6014   17.9489 C.3     1  UNL1        0.0000
     40 C           2.5026    1.0863   18.7908 C.3     1  UNL1        0.0000
     41 C           0.4758    0.4017   20.2652 C.3     1  UNL1        0.0000
     42 C           1.3278    0.1899   19.0490 C.3     1  UNL1        0.0000
@<TRIPOS>BOND
     1    41    42    1
     2    42    40    1
     3    40    39    1
     4    39    38    1
     5    38    37    1
     6    37    36    1
     7    36    35    1
     8    35    34    1
     9    34    33    1
    10    33    32    1
    11    32    31    1
    12    31    30    1
    13    30    29    1
    14    29    28    1
    15    28    27    1
    16    27    26    1
    17    26    25    1
    18    25    24    1
    19    24    23    1
    20    23     1    1
    21     1     2    1
    22     2     3    2
    23     2     4    1
    24     2     6    1
    25     6     7    1
    26     7     8    1
    27     8     9    1
    28     8    10    1
    29    10    11    1
    30    11    12   ar
    31    12    13   ar
    32    13    14   ar
    33    14    15   ar
    34    15    16    1
    35    15    17   ar
    36    17    18   ar
    37    18    19   ar
    38    19    20   ar
    39    20    11   ar
    40    20    14   ar
    41     4     5    1
    42    16    21    1
    43    16    22    1
