@<TRIPOS>MOLECULE
*****
 41 46 0 0 0
SMALL
GASTEIGER

@<TRIPOS>ATOM
      1 N           2.7067    2.7823   35.0884 N.3     1  UNL1       -0.2676
      2 C           3.4668    1.6424   34.4779 C.3     1  UNL1        0.0746
      3 C           3.2115    1.2483   33.0533 C.3     1  UNL1        0.0450
      4 C           2.1961    1.9942   32.2392 C.3     1  UNL1        0.1405
      5 C           1.4361    3.1341   32.8497 C.3     1  UNL1        0.0450
      6 C           1.6914    3.5282   34.2743 C.3     1  UNL1        0.0746
      7 C           1.2168    2.6433   31.3068 C.2     1  UNL1        0.2529
      8 O           0.3208    3.8006   31.6352 O.2     1  UNL1       -0.2724
      9 N           1.2908    1.9320   29.9881 N.am    1  UNL1       -0.1907
     10 C           2.3159    0.8432   30.1057 C.2     1  UNL1        0.3231
     11 O           2.7118   -0.1155   29.0223 O.2     1  UNL1       -0.2511
     12 N           2.8754    0.8816   31.4969 N.am    1  UNL1       -0.2071
     13 C           0.4817    2.2532   28.7665 C.ar    1  UNL1        0.0622
     14 C           0.3103    3.6791   28.3340 C.ar    1  UNL1        0.0154
     15 C          -0.4988    4.0002   27.1124 C.ar    1  UNL1        0.0013
     16 C          -1.1363    2.8954   26.3233 C.ar    1  UNL1        0.0001
     17 C          -0.9649    1.4694   26.7559 C.ar    1  UNL1        0.0013
     18 C          -0.1558    1.1482   27.9774 C.ar    1  UNL1        0.0154
     19 C          -1.9454    3.2165   25.1017 C.ar    1  UNL1        0.0000
     20 C          -1.2845    3.2656   23.7560 C.ar    1  UNL1        0.0000
     21 C          -2.0936    3.5867   22.5344 C.ar    1  UNL1        0.0011
     22 C          -3.5635    3.8588   22.6585 C.ar    1  UNL1        0.0140
     23 C          -4.2244    3.8097   24.0042 C.ar    1  UNL1        0.0011
     24 C          -3.4153    3.4886   25.2258 C.ar    1  UNL1        0.0000
     25 C          -4.3725    4.1799   21.4369 C.2     1  UNL1        0.0729
     26 O          -5.1366    5.4684   21.3608 O.co2   1  UNL1       -0.5446
     27 O          -4.4175    3.2125   20.2914 O.co2   1  UNL1       -0.5446
     28 C           3.9291   -0.0320   32.0489 C.ar    1  UNL1        0.2276
     29 N           3.5359   -1.3311   32.6876 N.ar    1  UNL1       -0.2117
     30 C           4.5897   -2.2447   33.2396 C.ar    1  UNL1        0.1034
     31 C           6.0368   -1.8593   33.1530 C.ar    1  UNL1        0.0414
     32 C           6.4301   -0.5603   32.5143 C.ar    1  UNL1        0.1034
     33 N           5.3762    0.3533   31.9623 N.ar    1  UNL1       -0.2117
     34 C           2.9620    3.1765   36.5130 C.3     1  UNL1        0.1183
     35 C           3.9909    0.6357   37.7319 C.3     1  UNL1        0.0323
     36 C           2.7143    1.2440   38.2319 C.ar    1  UNL1       -0.0069
     37 C           1.9521    0.5821   39.3413 C.ar    1  UNL1       -0.0015
     38 C           0.6755    1.1905   39.8413 C.ar    1  UNL1        0.0203
     39 C           0.1610    2.4608   39.2319 C.ar    1  UNL1        0.0985
     40 N           0.9232    3.1229   38.1224 N.ar    1  UNL1       -0.2471
     41 C           2.1998    2.5145   37.6224 C.ar    1  UNL1        0.0712
@<TRIPOS>UNITY_ATOM_ATTR
26 1
charge -1
@<TRIPOS>BOND
     1    35    36    1
     2    36    37   ar
     3    37    38   ar
     4    38    39   ar
     5    39    40   ar
     6    40    41   ar
     7    41    34    1
     8    34     1    1
     9     1     2    1
    10     2     3    1
    11     3     4    1
    12     4     5    1
    13     5     6    1
    14     4     7    1
    15     7     8    2
    16     7     9   am
    17     9    13    1
    18    13    14   ar
    19    14    15   ar
    20    15    16   ar
    21    16    19    1
    22    19    20   ar
    23    20    21   ar
    24    21    22   ar
    25    22    25    1
    26    25    26   ar
    27    25    27   ar
    28    22    23   ar
    29    23    24   ar
    30    16    17   ar
    31    17    18   ar
    32     9    10   am
    33    10    11    2
    34    10    12   am
    35    12    28    1
    36    28    29   ar
    37    29    30   ar
    38    30    31   ar
    39    31    32   ar
    40    32    33   ar
    41    41    36   ar
    42     6     1    1
    43    18    13   ar
    44    33    28   ar
    45    12     4    1
    46    24    19   ar
@<TRIPOS>MOLECULE
*****
 41 46 0 0 0
SMALL
GASTEIGER

@<TRIPOS>ATOM
      1 N           6.5002   -2.5833   24.1134 N.3     1  UNL1       -0.2676
      2 C           6.0758   -2.5338   22.6756 C.3     1  UNL1        0.0746
      3 C           4.8470   -1.7689   22.2823 C.3     1  UNL1        0.0450
      4 C           4.0425   -1.0535   23.3267 C.3     1  UNL1        0.1405
      5 C           4.4669   -1.1030   24.7646 C.3     1  UNL1        0.0450
      6 C           5.6957   -1.8678   25.1579 C.3     1  UNL1        0.0746
      7 C           3.1426   -0.2928   24.2550 C.2     1  UNL1        0.2529
      8 O           3.3136   -0.1635   25.7396 O.2     1  UNL1       -0.2724
      9 N           2.0416    0.3159   23.4380 N.am    1  UNL1       -0.1907
     10 C           2.2611   -0.0687   22.0048 C.2     1  UNL1        0.3231
     11 O           1.3959    0.3241   20.8442 O.2     1  UNL1       -0.2511
     12 N           3.4976   -0.9149   21.9360 N.am    1  UNL1       -0.2071
     13 C           0.9184    1.1607   23.9621 C.ar    1  UNL1        0.0622
     14 C           0.4108    0.9514   25.3579 C.ar    1  UNL1        0.0154
     15 C          -0.7124    1.7962   25.8821 C.ar    1  UNL1        0.0013
     16 C          -1.3279    2.8502   25.0104 C.ar    1  UNL1        0.0001
     17 C          -0.8203    3.0596   23.6145 C.ar    1  UNL1        0.0013
     18 C           0.3029    2.2148   23.0904 C.ar    1  UNL1        0.0154
     19 C          -2.4511    3.6950   25.5346 C.ar    1  UNL1        0.0000
     20 C          -2.2148    4.6260   26.6868 C.ar    1  UNL1        0.0000
     21 C          -3.3380    5.4708   27.2109 C.ar    1  UNL1        0.0011
     22 C          -4.6976    5.3847   26.5829 C.ar    1  UNL1        0.0140
     23 C          -4.9338    4.4537   25.4307 C.ar    1  UNL1        0.0011
     24 C          -3.8106    3.6089   24.9066 C.ar    1  UNL1        0.0000
     25 C          -5.8207    6.2295   27.1071 C.2     1  UNL1        0.0729
     26 O          -6.2131    7.4858   26.3876 O.co2   1  UNL1       -0.5446
     27 O          -6.5516    5.8179   28.3506 O.co2   1  UNL1       -0.5446
     28 C           4.0861   -1.5170   20.6946 C.ar    1  UNL1        0.2276
     29 N           5.1226   -0.7639   19.9144 N.ar    1  UNL1       -0.2117
     30 C           5.7110   -1.3660   18.6730 C.ar    1  UNL1        0.1034
     31 C           5.2630   -2.7212   18.2117 C.ar    1  UNL1        0.0414
     32 C           4.2266   -3.4743   18.9918 C.ar    1  UNL1        0.1034
     33 N           3.6381   -2.8722   20.2332 N.ar    1  UNL1       -0.2117
     34 C           7.7292   -3.3482   24.5068 C.3     1  UNL1        0.1183
     35 C           8.7845   -5.5503   22.7641 C.3     1  UNL1        0.0323
     36 C           8.1413   -5.8775   24.0792 C.ar    1  UNL1       -0.0069
     37 C           8.0258   -7.3056   24.5228 C.ar    1  UNL1       -0.0015
     38 C           7.3827   -7.6328   25.8379 C.ar    1  UNL1        0.0203
     39 C           6.8550   -6.5318   26.7092 C.ar    1  UNL1        0.0985
     40 N           6.9705   -5.1035   26.2655 N.ar    1  UNL1       -0.2471
     41 C           7.6137   -4.7764   24.9505 C.ar    1  UNL1        0.0712
@<TRIPOS>UNITY_ATOM_ATTR
26 1
charge -1
@<TRIPOS>BOND
     1    35    36    1
     2    36    37   ar
     3    37    38   ar
     4    38    39   ar
     5    39    40   ar
     6    40    41   ar
     7    41    34    1
     8    34     1    1
     9     1     2    1
    10     2     3    1
    11     3     4    1
    12     4     5    1
    13     5     6    1
    14     4     7    1
    15     7     8    2
    16     7     9   am
    17     9    13    1
    18    13    14   ar
    19    14    15   ar
    20    15    16   ar
    21    16    19    1
    22    19    20   ar
    23    20    21   ar
    24    21    22   ar
    25    22    25    1
    26    25    26   ar
    27    25    27   ar
    28    22    23   ar
    29    23    24   ar
    30    16    17   ar
    31    17    18   ar
    32     9    10   am
    33    10    11    2
    34    10    12   am
    35    12    28    1
    36    28    29   ar
    37    29    30   ar
    38    30    31   ar
    39    31    32   ar
    40    32    33   ar
    41    41    36   ar
    42     6     1    1
    43    18    13   ar
    44    33    28   ar
    45    12     4    1
    46    24    19   ar
@<TRIPOS>MOLECULE
*****
 41 46 0 0 0
SMALL
GASTEIGER

@<TRIPOS>ATOM
      1 N           6.5276   -2.1561   28.8028 N.3     1  UNL1       -0.2676
      2 C           6.1068   -1.7732   30.1907 C.3     1  UNL1        0.0746
      3 C           4.8604   -0.9655   30.4005 C.3     1  UNL1        0.0450
      4 C           4.0348   -0.5407   29.2224 C.3     1  UNL1        0.1405
      5 C           4.4556   -0.9235   27.8345 C.3     1  UNL1        0.0450
      6 C           5.7020   -1.7312   27.6247 C.3     1  UNL1        0.0746
      7 C           3.1131   -0.0463   28.1472 C.2     1  UNL1        0.2529
      8 O           3.2760   -0.2729   26.6734 O.2     1  UNL1       -0.2724
      9 N           1.9998    0.7144   28.8046 N.am    1  UNL1       -0.1907
     10 C           2.2336    0.6902   30.2861 C.2     1  UNL1        0.3231
     11 O           1.3626    1.3294   31.3266 O.2     1  UNL1       -0.2511
     12 N           3.4912   -0.0854   30.5444 N.am    1  UNL1       -0.2071
     13 C           0.8541    1.3821   28.1036 C.ar    1  UNL1        0.0622
     14 C           1.1159    2.4856   27.1220 C.ar    1  UNL1        0.0154
     15 C          -0.0299    3.1533   26.4210 C.ar    1  UNL1        0.0013
     16 C          -1.4374    2.7175   26.7015 C.ar    1  UNL1        0.0001
     17 C          -1.6992    1.6139   27.6832 C.ar    1  UNL1        0.0013
     18 C          -0.5535    0.9462   28.3842 C.ar    1  UNL1        0.0154
     19 C          -2.5831    3.3851   26.0005 C.ar    1  UNL1        0.0000
     20 C          -2.5650    3.5343   24.5080 C.ar    1  UNL1        0.0000
     21 C          -3.7107    4.2019   23.8070 C.ar    1  UNL1        0.0011
     22 C          -4.8747    4.7205   24.5985 C.ar    1  UNL1        0.0140
     23 C          -4.8929    4.5714   26.0910 C.ar    1  UNL1        0.0011
     24 C          -3.7471    3.9037   26.7920 C.ar    1  UNL1        0.0000
     25 C          -6.0205    5.3882   23.8975 C.2     1  UNL1        0.0729
     26 O          -6.1403    6.8833   23.9125 O.co2   1  UNL1       -0.5446
     27 O          -7.0464    4.5607   23.1814 O.co2   1  UNL1       -0.5446
     28 C           4.0987   -0.3581   31.8884 C.ar    1  UNL1        0.2276
     29 N           3.7468   -1.6136   32.6299 N.ar    1  UNL1       -0.2117
     30 C           4.3543   -1.8862   33.9739 C.ar    1  UNL1        0.1034
     31 C           5.3138   -0.9033   34.5767 C.ar    1  UNL1        0.0414
     32 C           5.6657    0.3523   33.8352 C.ar    1  UNL1        0.1034
     33 N           5.0582    0.6249   32.4912 N.ar    1  UNL1       -0.2117
     34 C           7.7741   -2.9638   28.5929 C.3     1  UNL1        0.1183
     35 C           6.9062   -5.6760   29.5367 C.3     1  UNL1        0.0323
     36 C           7.3316   -5.4783   28.1119 C.ar    1  UNL1       -0.0069
     37 C           7.3231   -6.6367   27.1591 C.ar    1  UNL1       -0.0015
     38 C           7.7485   -6.4391   25.7343 C.ar    1  UNL1        0.0203
     39 C           8.1824   -5.0830   25.2624 C.ar    1  UNL1        0.0985
     40 N           8.1910   -3.9245   26.2153 N.ar    1  UNL1       -0.2471
     41 C           7.7656   -4.1222   27.6400 C.ar    1  UNL1        0.0712
@<TRIPOS>UNITY_ATOM_ATTR
26 1
charge -1
@<TRIPOS>BOND
     1    35    36    1
     2    36    37   ar
     3    37    38   ar
     4    38    39   ar
     5    39    40   ar
     6    40    41   ar
     7    41    34    1
     8    34     1    1
     9     1     2    1
    10     2     3    1
    11     3     4    1
    12     4     5    1
    13     5     6    1
    14     4     7    1
    15     7     8    2
    16     7     9   am
    17     9    13    1
    18    13    14   ar
    19    14    15   ar
    20    15    16   ar
    21    16    19    1
    22    19    20   ar
    23    20    21   ar
    24    21    22   ar
    25    22    25    1
    26    25    26   ar
    27    25    27   ar
    28    22    23   ar
    29    23    24   ar
    30    16    17   ar
    31    17    18   ar
    32     9    10   am
    33    10    11    2
    34    10    12   am
    35    12    28    1
    36    28    29   ar
    37    29    30   ar
    38    30    31   ar
    39    31    32   ar
    40    32    33   ar
    41    41    36   ar
    42     6     1    1
    43    18    13   ar
    44    33    28   ar
    45    12     4    1
    46    24    19   ar
@<TRIPOS>MOLECULE
*****
 41 46 0 0 0
SMALL
GASTEIGER

@<TRIPOS>ATOM
      1 N           6.8387   -2.3935   23.9641 N.3     1  UNL1       -0.2676
      2 C           7.2450   -3.6975   24.5841 C.3     1  UNL1        0.0746
      3 C           7.1150   -3.8964   26.0651 C.3     1  UNL1        0.0450
      4 C           6.5787   -2.7914   26.9261 C.3     1  UNL1        0.1405
      5 C           6.1724   -1.4874   26.3061 C.3     1  UNL1        0.0450
      6 C           6.3024   -1.2885   24.8250 C.3     1  UNL1        0.0746
      7 C           6.0620   -1.7831   27.9092 C.2     1  UNL1        0.2529
      8 O           5.5846   -0.3988   27.5838 O.2     1  UNL1       -0.2724
      9 N           6.1065   -2.4022   29.2748 N.am    1  UNL1       -0.1907
     10 C           6.6508   -3.7931   29.1357 C.2     1  UNL1        0.3231
     11 O           6.8655   -4.7715   30.2521 O.2     1  UNL1       -0.2511
     12 N           6.9426   -4.0336   27.6842 N.am    1  UNL1       -0.2071
     13 C           5.6815   -1.7456   30.5548 C.ar    1  UNL1        0.0622
     14 C           4.2731   -1.2549   30.7143 C.ar    1  UNL1        0.0154
     15 C           3.8481   -0.5984   31.9942 C.ar    1  UNL1        0.0013
     16 C           4.8314   -0.4325   33.1146 C.ar    1  UNL1        0.0001
     17 C           6.2399   -0.9232   32.9551 C.ar    1  UNL1        0.0013
     18 C           6.6649   -1.5798   31.6752 C.ar    1  UNL1        0.0154
     19 C           4.4064    0.2240   34.3946 C.ar    1  UNL1        0.0000
     20 C           3.5907    1.4823   34.3572 C.ar    1  UNL1        0.0000
     21 C           3.1656    2.1389   35.6372 C.ar    1  UNL1        0.0011
     22 C           3.5563    1.5371   36.9546 C.ar    1  UNL1        0.0140
     23 C           4.3720    0.2788   36.9919 C.ar    1  UNL1        0.0011
     24 C           4.7970   -0.3777   35.7119 C.ar    1  UNL1        0.0000
     25 C           3.1312    2.1937   38.2345 C.2     1  UNL1        0.0729
     26 O           1.7904    2.8598   38.3264 O.co2   1  UNL1       -0.5446
     27 O           4.0470    2.1841   39.4225 O.co2   1  UNL1       -0.5446
     28 C           7.5003   -5.2949   27.0942 C.ar    1  UNL1        0.2276
     29 N           8.9783   -5.4323   26.8782 N.ar    1  UNL1       -0.2117
     30 C           9.5360   -6.6936   26.2882 C.ar    1  UNL1        0.1034
     31 C           8.6157   -7.8175   25.9141 C.ar    1  UNL1        0.0414
     32 C           7.1377   -7.6801   26.1301 C.ar    1  UNL1        0.1034
     33 N           6.5800   -6.4188   26.7201 N.ar    1  UNL1       -0.2117
     34 C           6.9687   -2.1945   22.4830 C.3     1  UNL1        0.1183
     35 C           5.4405    0.0028   21.1276 C.3     1  UNL1        0.0323
     36 C           5.0559   -1.4291   20.9001 C.ar    1  UNL1       -0.0069
     37 C           3.9072   -1.7624   19.9949 C.ar    1  UNL1       -0.0015
     38 C           3.5226   -3.1943   19.7673 C.ar    1  UNL1        0.0203
     39 C           4.2866   -4.2929   20.4450 C.ar    1  UNL1        0.0985
     40 N           5.4354   -3.9596   21.3503 N.ar    1  UNL1       -0.2471
     41 C           5.8200   -2.5278   21.5778 C.ar    1  UNL1        0.0712
@<TRIPOS>UNITY_ATOM_ATTR
26 1
charge -1
@<TRIPOS>BOND
     1    35    36    1
     2    36    37   ar
     3    37    38   ar
     4    38    39   ar
     5    39    40   ar
     6    40    41   ar
     7    41    34    1
     8    34     1    1
     9     1     2    1
    10     2     3    1
    11     3     4    1
    12     4     5    1
    13     5     6    1
    14     4     7    1
    15     7     8    2
    16     7     9   am
    17     9    13    1
    18    13    14   ar
    19    14    15   ar
    20    15    16   ar
    21    16    19    1
    22    19    20   ar
    23    20    21   ar
    24    21    22   ar
    25    22    25    1
    26    25    26   ar
    27    25    27   ar
    28    22    23   ar
    29    23    24   ar
    30    16    17   ar
    31    17    18   ar
    32     9    10   am
    33    10    11    2
    34    10    12   am
    35    12    28    1
    36    28    29   ar
    37    29    30   ar
    38    30    31   ar
    39    31    32   ar
    40    32    33   ar
    41    41    36   ar
    42     6     1    1
    43    18    13   ar
    44    33    28   ar
    45    12     4    1
    46    24    19   ar
@<TRIPOS>MOLECULE
*****
 41 46 0 0 0
SMALL
GASTEIGER

@<TRIPOS>ATOM
      1 N           4.1150   -1.6791   23.0223 N.3     1  UNL1       -0.2676
      2 C           5.2922   -2.5351   23.3847 C.3     1  UNL1        0.0746
      3 C           5.7487   -2.6175   24.8112 C.3     1  UNL1        0.0450
      4 C           5.0279   -1.8441   25.8752 C.3     1  UNL1        0.1405
      5 C           3.8506   -0.9882   25.5128 C.3     1  UNL1        0.0450
      6 C           3.3941   -0.9057   24.0864 C.3     1  UNL1        0.0746
      7 C           4.4096   -1.1315   27.0414 C.2     1  UNL1        0.2529
      8 O           3.2263   -0.2113   26.9859 O.2     1  UNL1       -0.2724
      9 N           5.1824   -1.5007   28.2730 N.am    1  UNL1       -0.1907
     10 C           6.2783   -2.4414   27.8678 C.2     1  UNL1        0.3231
     11 O           7.2917   -3.0611   28.7837 O.2     1  UNL1       -0.2511
     12 N           6.1828   -2.6537   26.3860 N.am    1  UNL1       -0.2071
     13 C           4.9076   -1.0145   29.6651 C.ar    1  UNL1        0.0622
     14 C           6.0454   -0.6287   30.5631 C.ar    1  UNL1        0.0154
     15 C           5.7706   -0.1425   31.9552 C.ar    1  UNL1        0.0013
     16 C           4.3579   -0.0421   32.4494 C.ar    1  UNL1        0.0001
     17 C           3.2201   -0.4279   31.5514 C.ar    1  UNL1        0.0013
     18 C           3.4949   -0.9141   30.1592 C.ar    1  UNL1        0.0154
     19 C           4.0831    0.4441   33.8415 C.ar    1  UNL1        0.0000
     20 C           3.2172    1.6498   34.0576 C.ar    1  UNL1        0.0000
     21 C           2.9424    2.1360   35.4497 C.ar    1  UNL1        0.0011
     22 C           3.5334    1.4165   36.6259 C.ar    1  UNL1        0.0140
     23 C           4.3994    0.2109   36.4097 C.ar    1  UNL1        0.0011
     24 C           4.6742   -0.2753   35.0175 C.ar    1  UNL1        0.0000
     25 C           3.2586    1.9027   38.0180 C.2     1  UNL1        0.0729
     26 O           2.7037    3.2792   38.2358 O.co2   1  UNL1       -0.5446
     27 O           3.5387    1.0125   39.1923 O.co2   1  UNL1       -0.5446
     28 C           7.0839   -3.5228   25.5599 C.ar    1  UNL1        0.2276
     29 N           8.3093   -2.9396   24.9210 N.ar    1  UNL1       -0.2117
     30 C           9.2104   -3.8088   24.0950 C.ar    1  UNL1        0.1034
     31 C           8.8862   -5.2614   23.9077 C.ar    1  UNL1        0.0414
     32 C           7.6608   -5.8446   24.5466 C.ar    1  UNL1        0.1034
     33 N           6.7597   -4.9754   25.3726 N.ar    1  UNL1       -0.2117
     34 C           3.6584   -1.5966   21.5958 C.3     1  UNL1        0.1183
     35 C           3.5360   -3.7930   19.5560 C.3     1  UNL1        0.0323
     36 C           4.6018   -2.7417   19.4630 C.ar    1  UNL1       -0.0069
     37 C           5.6064   -2.7885   18.3501 C.ar    1  UNL1       -0.0015
     38 C           6.6723   -1.7372   18.2571 C.ar    1  UNL1        0.0203
     39 C           6.7335   -0.6390   19.2770 C.ar    1  UNL1        0.0985
     40 N           5.7289   -0.5921   20.3900 N.ar    1  UNL1       -0.2471
     41 C           4.6630   -1.6435   20.4830 C.ar    1  UNL1        0.0712
@<TRIPOS>UNITY_ATOM_ATTR
26 1
charge -1
@<TRIPOS>BOND
     1    35    36    1
     2    36    37   ar
     3    37    38   ar
     4    38    39   ar
     5    39    40   ar
     6    40    41   ar
     7    41    34    1
     8    34     1    1
     9     1     2    1
    10     2     3    1
    11     3     4    1
    12     4     5    1
    13     5     6    1
    14     4     7    1
    15     7     8    2
    16     7     9   am
    17     9    13    1
    18    13    14   ar
    19    14    15   ar
    20    15    16   ar
    21    16    19    1
    22    19    20   ar
    23    20    21   ar
    24    21    22   ar
    25    22    25    1
    26    25    26   ar
    27    25    27   ar
    28    22    23   ar
    29    23    24   ar
    30    16    17   ar
    31    17    18   ar
    32     9    10   am
    33    10    11    2
    34    10    12   am
    35    12    28    1
    36    28    29   ar
    37    29    30   ar
    38    30    31   ar
    39    31    32   ar
    40    32    33   ar
    41    41    36   ar
    42     6     1    1
    43    18    13   ar
    44    33    28   ar
    45    12     4    1
    46    24    19   ar
@<TRIPOS>MOLECULE
*****
 41 46 0 0 0
SMALL
GASTEIGER

@<TRIPOS>ATOM
      1 N           2.5338   -0.6219   21.2589 N.3     1  UNL1       -0.2676
      2 C           1.8127    0.6841   21.4144 C.3     1  UNL1        0.0746
      3 C           1.6991    1.3216   22.7674 C.3     1  UNL1        0.0450
      4 C           2.3067    0.6531   23.9649 C.3     1  UNL1        0.1405
      5 C           3.0278   -0.6529   23.8094 C.3     1  UNL1        0.0450
      6 C           3.1414   -1.2904   22.4564 C.3     1  UNL1        0.0746
      7 C           2.8605    0.1056   25.2469 C.2     1  UNL1        0.2529
      8 O           3.6252   -1.1756   25.4009 O.2     1  UNL1       -0.2724
      9 N           2.5154    1.0642   26.3479 N.am    1  UNL1       -0.1907
     10 C           1.7483    2.2043   25.7462 C.2     1  UNL1        0.3231
     11 O           1.2055    3.3901   26.4872 O.2     1  UNL1       -0.2511
     12 N           1.6192    1.9502   24.2736 N.am    1  UNL1       -0.2071
     13 C           2.8745    0.9100   27.7960 C.ar    1  UNL1        0.0622
     14 C           3.8026    1.8919   28.4474 C.ar    1  UNL1        0.0154
     15 C           4.1616    1.7376   29.8955 C.ar    1  UNL1        0.0013
     16 C           3.5925    0.6014   30.6924 C.ar    1  UNL1        0.0001
     17 C           2.6643   -0.3806   30.0411 C.ar    1  UNL1        0.0013
     18 C           2.3053   -0.2263   28.5929 C.ar    1  UNL1        0.0154
     19 C           3.9515    0.4471   32.1406 C.ar    1  UNL1        0.0000
     20 C           4.1441    1.6620   32.9991 C.ar    1  UNL1        0.0000
     21 C           4.5031    1.5077   34.4473 C.ar    1  UNL1        0.0011
     22 C           4.6696    0.1385   35.0371 C.ar    1  UNL1        0.0140
     23 C           4.4770   -1.0764   34.1785 C.ar    1  UNL1        0.0011
     24 C           4.1180   -0.9220   32.7303 C.ar    1  UNL1        0.0000
     25 C           5.0286   -0.0158   36.4852 C.2     1  UNL1        0.0729
     26 O           4.0985    0.4923   37.5467 O.co2   1  UNL1       -0.5446
     27 O           6.3177   -0.6781   36.8719 O.co2   1  UNL1       -0.5446
     28 C           0.9248    2.8373   23.2833 C.ar    1  UNL1        0.2276
     29 N           1.6948    3.9040   22.5627 N.ar    1  UNL1       -0.2117
     30 C           1.0002    4.7910   21.5724 C.ar    1  UNL1        0.1034
     31 C          -0.4644    4.6116   21.3027 C.ar    1  UNL1        0.0414
     32 C          -1.2344    3.5449   22.0233 C.ar    1  UNL1        0.1034
     33 N          -0.5399    2.6578   23.0136 N.ar    1  UNL1       -0.2117
     34 C           2.6474   -1.2595   19.9059 C.3     1  UNL1        0.1183
     35 C           3.4066   -4.0756   19.2032 C.3     1  UNL1        0.0323
     36 C           4.3791   -2.9569   18.9729 C.ar    1  UNL1       -0.0069
     37 C           5.7311   -3.2463   18.3913 C.ar    1  UNL1       -0.0015
     38 C           6.7035   -2.1276   18.1610 C.ar    1  UNL1        0.0203
     39 C           6.3239   -0.7197   18.5123 C.ar    1  UNL1        0.0985
     40 N           4.9718   -0.4302   19.0940 N.ar    1  UNL1       -0.2471
     41 C           3.9994   -1.5489   19.3243 C.ar    1  UNL1        0.0712
@<TRIPOS>UNITY_ATOM_ATTR
26 1
charge -1
@<TRIPOS>BOND
     1    35    36    1
     2    36    37   ar
     3    37    38   ar
     4    38    39   ar
     5    39    40   ar
     6    40    41   ar
     7    41    34    1
     8    34     1    1
     9     1     2    1
    10     2     3    1
    11     3     4    1
    12     4     5    1
    13     5     6    1
    14     4     7    1
    15     7     8    2
    16     7     9   am
    17     9    13    1
    18    13    14   ar
    19    14    15   ar
    20    15    16   ar
    21    16    19    1
    22    19    20   ar
    23    20    21   ar
    24    21    22   ar
    25    22    25    1
    26    25    26   ar
    27    25    27   ar
    28    22    23   ar
    29    23    24   ar
    30    16    17   ar
    31    17    18   ar
    32     9    10   am
    33    10    11    2
    34    10    12   am
    35    12    28    1
    36    28    29   ar
    37    29    30   ar
    38    30    31   ar
    39    31    32   ar
    40    32    33   ar
    41    41    36   ar
    42     6     1    1
    43    18    13   ar
    44    33    28   ar
    45    12     4    1
    46    24    19   ar
@<TRIPOS>MOLECULE
*****
 41 46 0 0 0
SMALL
GASTEIGER

@<TRIPOS>ATOM
      1 N           4.5516    0.5540   35.3586 N.3     1  UNL1       -0.2676
      2 C           5.2827   -0.3447   34.4059 C.3     1  UNL1        0.0746
      3 C           4.8516   -0.4265   32.9715 C.3     1  UNL1        0.0450
      4 C           3.6895    0.3905   32.4898 C.3     1  UNL1        0.1405
      5 C           2.9584    1.2893   33.4425 C.3     1  UNL1        0.0450
      6 C           3.3894    1.3710   34.8769 C.3     1  UNL1        0.0746
      7 C           2.5519    1.1439   31.8667 C.2     1  UNL1        0.2529
      8 O           1.6455    2.1112   32.5686 O.2     1  UNL1       -0.2724
      9 N           2.4797    0.7600   30.4184 N.am    1  UNL1       -0.1907
     10 C           3.5728   -0.2306   30.1464 C.2     1  UNL1        0.3231
     11 O           3.8666   -0.8790   28.8262 O.2     1  UNL1       -0.2511
     12 N           4.3205   -0.4590   31.4266 N.am    1  UNL1       -0.2071
     13 C           1.4885    1.2760   29.4178 C.ar    1  UNL1        0.0622
     14 C           1.7411    2.5762   28.7139 C.ar    1  UNL1        0.0154
     15 C           0.7500    3.0923   27.7133 C.ar    1  UNL1        0.0013
     16 C          -0.4938    2.3082   27.4166 C.ar    1  UNL1        0.0001
     17 C          -0.7465    1.0080   28.1206 C.ar    1  UNL1        0.0013
     18 C           0.2447    0.4919   29.1212 C.ar    1  UNL1        0.0154
     19 C          -1.4850    2.8243   26.4160 C.ar    1  UNL1        0.0000
     20 C          -2.8291    3.3087   26.8730 C.ar    1  UNL1        0.0000
     21 C          -3.8203    3.8247   25.8724 C.ar    1  UNL1        0.0011
     22 C          -3.4674    3.8565   24.4148 C.ar    1  UNL1        0.0140
     23 C          -2.1233    3.3721   23.9578 C.ar    1  UNL1        0.0011
     24 C          -1.1321    2.8560   24.9585 C.ar    1  UNL1        0.0000
     25 C          -4.4586    4.3726   23.4142 C.2     1  UNL1        0.0729
     26 O          -4.5955    5.8489   23.1870 O.co2   1  UNL1       -0.5446
     27 O          -5.3128    3.4123   22.6408 O.co2   1  UNL1       -0.5446
     28 C           5.4932   -1.3758   31.6112 C.ar    1  UNL1        0.2276
     29 N           5.2781   -2.7827   32.0846 N.ar    1  UNL1       -0.2117
     30 C           6.4509   -3.6995   32.2693 C.ar    1  UNL1        0.1034
     31 C           7.8389   -3.2093   31.9805 C.ar    1  UNL1        0.0414
     32 C           8.0540   -1.8023   31.5071 C.ar    1  UNL1        0.1034
     33 N           6.8812   -0.8856   31.3225 N.ar    1  UNL1       -0.2117
     34 C           4.9826    0.6358   36.7931 C.3     1  UNL1        0.1183
     35 C           6.7895    2.9889   37.2384 C.3     1  UNL1        0.0323
     36 C           5.4301    2.9567   37.8718 C.ar    1  UNL1       -0.0069
     37 C           4.9742    4.1009   38.7278 C.ar    1  UNL1       -0.0015
     38 C           3.6148    4.0686   39.3612 C.ar    1  UNL1        0.0203
     39 C           2.7114    2.8921   39.1385 C.ar    1  UNL1        0.0985
     40 N           3.1673    1.7478   38.2824 N.ar    1  UNL1       -0.2471
     41 C           4.5267    1.7801   37.6491 C.ar    1  UNL1        0.0712
@<TRIPOS>UNITY_ATOM_ATTR
26 1
charge -1
@<TRIPOS>BOND
     1    35    36    1
     2    36    37   ar
     3    37    38   ar
     4    38    39   ar
     5    39    40   ar
     6    40    41   ar
     7    41    34    1
     8    34     1    1
     9     1     2    1
    10     2     3    1
    11     3     4    1
    12     4     5    1
    13     5     6    1
    14     4     7    1
    15     7     8    2
    16     7     9   am
    17     9    13    1
    18    13    14   ar
    19    14    15   ar
    20    15    16   ar
    21    16    19    1
    22    19    20   ar
    23    20    21   ar
    24    21    22   ar
    25    22    25    1
    26    25    26   ar
    27    25    27   ar
    28    22    23   ar
    29    23    24   ar
    30    16    17   ar
    31    17    18   ar
    32     9    10   am
    33    10    11    2
    34    10    12   am
    35    12    28    1
    36    28    29   ar
    37    29    30   ar
    38    30    31   ar
    39    31    32   ar
    40    32    33   ar
    41    41    36   ar
    42     6     1    1
    43    18    13   ar
    44    33    28   ar
    45    12     4    1
    46    24    19   ar
@<TRIPOS>MOLECULE
*****
 41 46 0 0 0
SMALL
GASTEIGER

@<TRIPOS>ATOM
      1 N           2.5342   -0.2862   29.8937 N.3     1  UNL1       -0.2676
      2 C           3.8409   -1.0059   30.0497 C.3     1  UNL1        0.0746
      3 C           4.6477   -0.8325   31.3023 C.3     1  UNL1        0.0450
      4 C           4.1477    0.0605   32.3989 C.3     1  UNL1        0.1405
      5 C           2.8410    0.7802   32.2429 C.3     1  UNL1        0.0450
      6 C           2.0342    0.6068   30.9903 C.3     1  UNL1        0.0746
      7 C           3.7780    0.9157   33.5745 C.2     1  UNL1        0.2529
      8 O           2.5367    1.7477   33.7039 O.2     1  UNL1       -0.2724
      9 N           4.8678    0.7929   34.5981 N.am    1  UNL1       -0.1907
     10 C           5.9109   -0.1383   34.0550 C.2     1  UNL1        0.3231
     11 O           7.1767   -0.5453   34.7491 O.2     1  UNL1       -0.2511
     12 N           5.4659   -0.5909   32.6959 N.am    1  UNL1       -0.2071
     13 C           4.9073    1.4804   35.9306 C.ar    1  UNL1        0.0622
     14 C           3.9951    1.0316   37.0334 C.ar    1  UNL1        0.0154
     15 C           4.0347    1.7192   38.3660 C.ar    1  UNL1        0.0013
     16 C           4.9865    2.8555   38.5957 C.ar    1  UNL1        0.0001
     17 C           5.8988    3.3042   37.4928 C.ar    1  UNL1        0.0013
     18 C           5.8592    2.6167   36.1602 C.ar    1  UNL1        0.0154
     19 C           5.0261    3.5430   39.9282 C.ar    1  UNL1        0.0000
     20 C           6.1737    3.3008   40.8634 C.ar    1  UNL1        0.0000
     21 C           6.2133    3.9884   42.1959 C.ar    1  UNL1        0.0011
     22 C           5.1052    4.9181   42.5934 C.ar    1  UNL1        0.0140
     23 C           3.9576    5.1603   41.6583 C.ar    1  UNL1        0.0011
     24 C           3.9181    4.4727   40.3257 C.ar    1  UNL1        0.0000
     25 C           5.1448    5.6056   43.9259 C.2     1  UNL1        0.0729
     26 O           4.7596    7.0512   44.0358 O.co2   1  UNL1       -0.5446
     27 O           5.5696    4.8477   45.1487 O.co2   1  UNL1       -0.5446
     28 C           6.2087   -1.5300   31.7923 C.ar    1  UNL1        0.2276
     29 N           5.9722   -3.0081   31.8890 N.ar    1  UNL1       -0.2117
     30 C           6.7150   -3.9471   30.9854 C.ar    1  UNL1        0.1034
     31 C           7.6942   -3.4081   29.9851 C.ar    1  UNL1        0.0414
     32 C           7.9307   -1.9300   29.8884 C.ar    1  UNL1        0.1034
     33 N           7.1879   -0.9910   30.7920 N.ar    1  UNL1       -0.2117
     34 C           1.7273   -0.4595   28.6411 C.3     1  UNL1        0.1183
     35 C          -1.2713   -0.4713   28.7309 C.3     1  UNL1        0.0323
     36 C          -0.5437    0.6920   28.1247 C.ar    1  UNL1       -0.0069
     37 C          -1.3153    1.8493   27.5635 C.ar    1  UNL1       -0.0015
     38 C          -0.5877    3.0126   26.9573 C.ar    1  UNL1        0.0203
     39 C           0.9116    3.0185   26.9125 C.ar    1  UNL1        0.0985
     40 N           1.6833    1.8611   27.4737 N.ar    1  UNL1       -0.2471
     41 C           0.9557    0.6978   28.0799 C.ar    1  UNL1        0.0712
@<TRIPOS>UNITY_ATOM_ATTR
26 1
charge -1
@<TRIPOS>BOND
     1    35    36    1
     2    36    37   ar
     3    37    38   ar
     4    38    39   ar
     5    39    40   ar
     6    40    41   ar
     7    41    34    1
     8    34     1    1
     9     1     2    1
    10     2     3    1
    11     3     4    1
    12     4     5    1
    13     5     6    1
    14     4     7    1
    15     7     8    2
    16     7     9   am
    17     9    13    1
    18    13    14   ar
    19    14    15   ar
    20    15    16   ar
    21    16    19    1
    22    19    20   ar
    23    20    21   ar
    24    21    22   ar
    25    22    25    1
    26    25    26   ar
    27    25    27   ar
    28    22    23   ar
    29    23    24   ar
    30    16    17   ar
    31    17    18   ar
    32     9    10   am
    33    10    11    2
    34    10    12   am
    35    12    28    1
    36    28    29   ar
    37    29    30   ar
    38    30    31   ar
    39    31    32   ar
    40    32    33   ar
    41    41    36   ar
    42     6     1    1
    43    18    13   ar
    44    33    28   ar
    45    12     4    1
    46    24    19   ar
@<TRIPOS>MOLECULE
*****
 41 46 0 0 0
SMALL
GASTEIGER

@<TRIPOS>ATOM
      1 N           4.2264   -2.2523   22.8010 N.3     1  UNL1       -0.2676
      2 C           3.4264   -1.1394   22.1914 C.3     1  UNL1        0.0746
      3 C           2.8384   -0.0722   23.0661 C.3     1  UNL1        0.0450
      4 C           3.0503   -0.1178   24.5504 C.3     1  UNL1        0.1405
      5 C           3.8502   -1.2306   25.1599 C.3     1  UNL1        0.0450
      6 C           4.4383   -2.2979   24.2852 C.3     1  UNL1        0.0746
      7 C           3.1773   -0.0316   26.0425 C.2     1  UNL1        0.2529
      8 O           3.9146   -0.9975   26.9219 O.2     1  UNL1       -0.2724
      9 N           2.4374    1.1902   26.5009 N.am    1  UNL1       -0.1907
     10 C           1.8532    1.8591   25.2919 C.2     1  UNL1        0.3231
     11 O           1.0341    3.1156   25.2890 O.2     1  UNL1       -0.2511
     12 N           2.2320    1.0507   24.0865 N.am    1  UNL1       -0.2071
     13 C           2.3051    1.6605   27.9191 C.ar    1  UNL1        0.0622
     14 C           1.1896    1.1450   28.7792 C.ar    1  UNL1        0.0154
     15 C           1.0573    1.6153   30.1973 C.ar    1  UNL1        0.0013
     16 C           2.0403    2.6011   30.7554 C.ar    1  UNL1        0.0001
     17 C           3.1558    3.1167   29.8953 C.ar    1  UNL1        0.0013
     18 C           3.2882    2.6464   28.4771 C.ar    1  UNL1        0.0154
     19 C           1.9080    3.0714   32.1736 C.ar    1  UNL1        0.0000
     20 C           1.2751    4.3993   32.4675 C.ar    1  UNL1        0.0000
     21 C           1.1427    4.8696   33.8857 C.ar    1  UNL1        0.0011
     22 C           1.6432    4.0120   35.0101 C.ar    1  UNL1        0.0140
     23 C           2.2761    2.6842   34.7162 C.ar    1  UNL1        0.0011
     24 C           2.4084    2.2139   33.2979 C.ar    1  UNL1        0.0000
     25 C           1.5109    4.4823   36.4283 C.2     1  UNL1        0.0729
     26 O           1.6248    5.9435   36.7476 O.co2   1  UNL1       -0.5446
     27 O           1.2646    3.4914   37.5271 O.co2   1  UNL1       -0.5446
     28 C           1.8581    1.3570   22.6665 C.ar    1  UNL1        0.2276
     29 N           0.5709    0.8349   22.1005 N.ar    1  UNL1       -0.2117
     30 C           0.1971    1.1413   20.6805 C.ar    1  UNL1        0.1034
     31 C           1.1106    1.9696   19.8264 C.ar    1  UNL1        0.0414
     32 C           2.3978    2.4917   20.3924 C.ar    1  UNL1        0.1034
     33 N           2.7716    2.1854   21.8124 N.ar    1  UNL1       -0.2117
     34 C           4.8144   -3.3196   21.9262 C.3     1  UNL1        0.1183
     35 C           3.4919   -3.8714   19.2906 C.3     1  UNL1        0.0323
     36 C           4.8433   -3.2217   19.3301 C.ar    1  UNL1       -0.0069
     37 C           5.5335   -2.8480   18.0519 C.ar    1  UNL1       -0.0015
     38 C           6.8849   -2.1983   18.0914 C.ar    1  UNL1        0.0203
     39 C           7.5462   -1.9224   19.4092 C.ar    1  UNL1        0.0985
     40 N           6.8560   -2.2962   20.6875 N.ar    1  UNL1       -0.2471
     41 C           5.5046   -2.9458   20.6480 C.ar    1  UNL1        0.0712
@<TRIPOS>UNITY_ATOM_ATTR
26 1
charge -1
@<TRIPOS>BOND
     1    35    36    1
     2    36    37   ar
     3    37    38   ar
     4    38    39   ar
     5    39    40   ar
     6    40    41   ar
     7    41    34    1
     8    34     1    1
     9     1     2    1
    10     2     3    1
    11     3     4    1
    12     4     5    1
    13     5     6    1
    14     4     7    1
    15     7     8    2
    16     7     9   am
    17     9    13    1
    18    13    14   ar
    19    14    15   ar
    20    15    16   ar
    21    16    19    1
    22    19    20   ar
    23    20    21   ar
    24    21    22   ar
    25    22    25    1
    26    25    26   ar
    27    25    27   ar
    28    22    23   ar
    29    23    24   ar
    30    16    17   ar
    31    17    18   ar
    32     9    10   am
    33    10    11    2
    34    10    12   am
    35    12    28    1
    36    28    29   ar
    37    29    30   ar
    38    30    31   ar
    39    31    32   ar
    40    32    33   ar
    41    41    36   ar
    42     6     1    1
    43    18    13   ar
    44    33    28   ar
    45    12     4    1
    46    24    19   ar
