@<TRIPOS>MOLECULE
*****
 26 29 0 0 0
SMALL
GASTEIGER

@<TRIPOS>ATOM
      1 C          -6.8815  -20.2375   21.0186 C.ar    1  UNL1        0.1385
      2 C          -7.2725  -20.5848   22.4244 C.ar    1  UNL1        0.0384
      3 C          -8.5504  -20.0516   23.0009 C.ar    1  UNL1        0.0203
      4 C          -9.4375  -19.1711   22.1716 C.ar    1  UNL1        0.0602
      5 C          -9.0465  -18.8237   20.7658 C.ar    1  UNL1        0.0204
      6 C          -7.7686  -19.3569   20.1893 C.ar    1  UNL1        0.0384
      7 C         -10.1146  -17.9401   20.1926 C.ar    1  UNL1        0.0233
      8 C         -11.1656  -17.7414   21.2442 C.ar    1  UNL1        0.1140
      9 N         -10.7472  -18.5021   22.4673 N.ar    1  UNL1       -0.3238
     10 C         -11.6127  -18.4875   23.6922 C.3     1  UNL1        0.1052
     11 C         -11.1943  -19.2482   24.9154 C.3     1  UNL1        0.0263
     12 C         -12.8967  -17.7120   23.6941 C.3     1  UNL1        0.1122
     13 N         -13.3151  -16.9513   22.4709 N.am    1  UNL1       -0.2978
     14 C         -12.4495  -16.9659   21.2459 C.2     1  UNL1        0.2618
     15 O         -12.8680  -16.2051   20.0227 O.2     1  UNL1       -0.2686
     16 H         -14.1579  -16.4423   22.4721 H       1  UNL1        0.1498
     17 O          -5.6035  -20.7707   20.4420 O.3     1  UNL1       -0.4791
     18 N          -1.9080  -18.2031   20.4052 N.3     1  UNL1       -0.2737
     19 C          -2.1331  -19.1776   21.5231 C.3     1  UNL1        0.0758
     20 C          -3.3650  -20.0335   21.5354 C.3     1  UNL1        0.0609
     21 C          -4.3717  -19.9148   20.4297 C.3     1  UNL1        0.1687
     22 C          -4.1465  -18.9403   19.3118 C.3     1  UNL1        0.0609
     23 C          -2.9147  -18.0845   19.2996 C.3     1  UNL1        0.0758
     24 C          -0.7303  -15.9473   20.9286 C.3     1  UNL1        0.0173
     25 C          -0.6762  -17.3473   20.3930 C.3     1  UNL1        0.0576
     26 C           0.6098  -17.8916   19.8451 C.3     1  UNL1        0.0173
@<TRIPOS>BOND
     1    24    25    1
     2    25    26    1
     3    25    18    1
     4    18    19    1
     5    19    20    1
     6    20    21    1
     7    21    17    1
     8    17     1    1
     9     1     2   ar
    10     2     3   ar
    11     3     4   ar
    12     4     5   ar
    13     5     6   ar
    14     5     7   ar
    15     7     8   ar
    16     8     9   ar
    17     9    10    1
    18    10    11    1
    19    10    12    1
    20    12    13    1
    21    13    14   am
    22    14    15    2
    23    21    22    1
    24    22    23    1
    25    23    18    1
    26     6     1   ar
    27    14     8    1
    28     9     4   ar
    29    13    16    1
@<TRIPOS>MOLECULE
*****
 26 29 0 0 0
SMALL
GASTEIGER

@<TRIPOS>ATOM
      1 C          -6.7258  -20.2428   21.0160 C.ar    1  UNL1        0.1385
      2 C          -7.3603  -19.5377   19.8540 C.ar    1  UNL1        0.0384
      3 C          -8.7143  -18.9104   20.0060 C.ar    1  UNL1        0.0203
      4 C          -9.4338  -18.9882   21.3199 C.ar    1  UNL1        0.0602
      5 C          -8.7992  -19.6933   22.4818 C.ar    1  UNL1        0.0204
      6 C          -7.4452  -20.3206   22.3299 C.ar    1  UNL1        0.0384
      7 C          -9.7417  -19.6095   23.6458 C.ar    1  UNL1        0.0233
      8 C         -10.9587  -18.8525   23.2032 C.ar    1  UNL1        0.1140
      9 N         -10.7685  -18.4686   21.7657 N.ar    1  UNL1       -0.3238
     10 C         -11.8351  -17.6954   21.0485 C.3     1  UNL1        0.1052
     11 C         -11.6448  -17.3115   19.6110 C.3     1  UNL1        0.0263
     12 C         -13.0920  -17.3062   21.7687 C.3     1  UNL1        0.1122
     13 N         -13.2822  -17.6902   23.2061 N.am    1  UNL1       -0.2978
     14 C         -12.2156  -18.4634   23.9234 C.2     1  UNL1        0.2618
     15 O         -12.4059  -18.8473   25.3610 O.2     1  UNL1       -0.2686
     16 H         -14.1072  -17.4347   23.6788 H       1  UNL1        0.1498
     17 O          -5.3717  -20.8701   20.8640 O.3     1  UNL1       -0.4791
     18 N          -1.7147  -18.2716   20.5119 N.3     1  UNL1       -0.2737
     19 C          -2.1490  -18.7772   21.8557 C.3     1  UNL1        0.0758
     20 C          -3.3680  -19.6434   21.9731 C.3     1  UNL1        0.0609
     21 C          -4.1527  -20.0040   20.7467 C.3     1  UNL1        0.1687
     22 C          -3.7185  -19.4983   19.4028 C.3     1  UNL1        0.0609
     23 C          -2.4995  -18.6322   19.2855 C.3     1  UNL1        0.0758
     24 C           0.7985  -17.9930   19.9154 C.3     1  UNL1        0.0173
     25 C          -0.4958  -17.4054   20.3946 C.3     1  UNL1        0.0576
     26 C          -0.5710  -15.9516   20.7564 C.3     1  UNL1        0.0173
@<TRIPOS>BOND
     1    24    25    1
     2    25    26    1
     3    25    18    1
     4    18    19    1
     5    19    20    1
     6    20    21    1
     7    21    17    1
     8    17     1    1
     9     1     2   ar
    10     2     3   ar
    11     3     4   ar
    12     4     5   ar
    13     5     6   ar
    14     5     7   ar
    15     7     8   ar
    16     8     9   ar
    17     9    10    1
    18    10    11    1
    19    10    12    1
    20    12    13    1
    21    13    14   am
    22    14    15    2
    23    21    22    1
    24    22    23    1
    25    23    18    1
    26     6     1   ar
    27    14     8    1
    28     9     4   ar
    29    13    16    1
@<TRIPOS>MOLECULE
*****
 26 29 0 0 0
SMALL
GASTEIGER

@<TRIPOS>ATOM
      1 C           7.9080   -3.8093   25.5641 C.ar    1  UNL1        0.1385
      2 C           7.3999   -2.4820   26.0437 C.ar    1  UNL1        0.0384
      3 C           6.9789   -2.3121   27.4733 C.ar    1  UNL1        0.0203
      4 C           7.0660   -3.4696   28.4234 C.ar    1  UNL1        0.0602
      5 C           7.5741   -4.7969   27.9438 C.ar    1  UNL1        0.0204
      6 C           7.9951   -4.9668   26.5142 C.ar    1  UNL1        0.0384
      7 C           7.5477   -5.7494   29.1023 C.ar    1  UNL1        0.0233
      8 C           7.0234   -5.0107   30.2979 C.ar    1  UNL1        0.1140
      9 N           6.7256   -3.6017   29.8783 N.ar    1  UNL1       -0.3238
     10 C           6.1831   -2.6211   30.8752 C.3     1  UNL1        0.1052
     11 C           5.8853   -1.2121   30.4556 C.3     1  UNL1        0.0263
     12 C           5.9382   -3.0494   32.2917 C.3     1  UNL1        0.1122
     13 N           6.2359   -4.4584   32.7113 N.am    1  UNL1       -0.2978
     14 C           6.7785   -5.4391   31.7144 C.2     1  UNL1        0.2618
     15 O           7.0763   -6.8481   32.1340 O.2     1  UNL1       -0.2686
     16 H           6.0752   -4.7395   33.6410 H       1  UNL1        0.1498
     17 O           8.3291   -3.9792   24.1344 O.3     1  UNL1       -0.4791
     18 N           5.2526   -3.8529   20.8527 N.3     1  UNL1       -0.2737
     19 C           6.7115   -3.9220   20.5109 C.3     1  UNL1        0.0758
     20 C           7.7370   -3.9641   21.6048 C.3     1  UNL1        0.0609
     21 C           7.3036   -3.9371   23.0405 C.3     1  UNL1        0.1687
     22 C           5.8447   -3.8680   23.3824 C.3     1  UNL1        0.0609
     23 C           4.8192   -3.8259   22.2885 C.3     1  UNL1        0.0758
     24 C           3.5418   -2.5197   19.4226 C.3     1  UNL1        0.0173
     25 C           4.2272   -3.8108   19.7588 C.3     1  UNL1        0.0576
     26 C           3.8871   -5.0600   19.0011 C.3     1  UNL1        0.0173
@<TRIPOS>BOND
     1    24    25    1
     2    25    26    1
     3    25    18    1
     4    18    19    1
     5    19    20    1
     6    20    21    1
     7    21    17    1
     8    17     1    1
     9     1     2   ar
    10     2     3   ar
    11     3     4   ar
    12     4     5   ar
    13     5     6   ar
    14     5     7   ar
    15     7     8   ar
    16     8     9   ar
    17     9    10    1
    18    10    11    1
    19    10    12    1
    20    12    13    1
    21    13    14   am
    22    14    15    2
    23    21    22    1
    24    22    23    1
    25    23    18    1
    26     6     1   ar
    27    14     8    1
    28     9     4   ar
    29    13    16    1
@<TRIPOS>MOLECULE
*****
 26 29 0 0 0
SMALL
GASTEIGER

@<TRIPOS>ATOM
      1 C           7.3350   -3.2955   21.3372 C.ar    1  UNL1        0.1385
      2 C           8.2491   -4.4645   21.1184 C.ar    1  UNL1        0.0384
      3 C           8.5088   -5.4326   22.2343 C.ar    1  UNL1        0.0203
      4 C           7.8543   -5.2318   23.5690 C.ar    1  UNL1        0.0602
      5 C           6.9402   -4.0628   23.7878 C.ar    1  UNL1        0.0204
      6 C           6.6806   -3.0947   22.6719 C.ar    1  UNL1        0.0384
      7 C           6.4410   -4.1229   25.2010 C.ar    1  UNL1        0.0233
      8 C           7.0466   -5.3291   25.8556 C.ar    1  UNL1        0.1140
      9 N           7.9201   -6.0144   24.8470 N.ar    1  UNL1       -0.3238
     10 C           8.6624   -7.2624   25.2226 C.3     1  UNL1        0.1052
     11 C           9.5359   -7.9478   24.2140 C.3     1  UNL1        0.0263
     12 C           8.5314   -7.8253   26.6068 C.3     1  UNL1        0.1122
     13 N           7.6579   -7.1399   27.6154 N.am    1  UNL1       -0.2978
     14 C           6.9155   -5.8918   27.2398 C.2     1  UNL1        0.2618
     15 O           6.0420   -5.2065   28.2485 O.2     1  UNL1       -0.2686
     16 H           7.5718   -7.5093   28.5239 H       1  UNL1        0.1498
     17 O           7.0753   -2.3273   20.2213 O.3     1  UNL1       -0.4791
     18 N           2.9709   -0.5624   19.6832 N.3     1  UNL1       -0.2737
     19 C           3.1687   -2.0458   19.5812 C.3     1  UNL1        0.0758
     20 C           4.5369   -2.6342   19.7606 C.3     1  UNL1        0.0609
     21 C           5.7072   -1.7390   20.0419 C.3     1  UNL1        0.1687
     22 C           5.5093   -0.2556   20.1439 C.3     1  UNL1        0.0609
     23 C           4.1412    0.3327   19.9646 C.3     1  UNL1        0.0758
     24 C           1.2928    0.8460   18.2868 C.3     1  UNL1        0.0173
     25 C           1.6028    0.0258   19.5038 C.3     1  UNL1        0.0576
     26 C           0.5447   -0.2062   20.5415 C.3     1  UNL1        0.0173
@<TRIPOS>BOND
     1    24    25    1
     2    25    26    1
     3    25    18    1
     4    18    19    1
     5    19    20    1
     6    20    21    1
     7    21    17    1
     8    17     1    1
     9     1     2   ar
    10     2     3   ar
    11     3     4   ar
    12     4     5   ar
    13     5     6   ar
    14     5     7   ar
    15     7     8   ar
    16     8     9   ar
    17     9    10    1
    18    10    11    1
    19    10    12    1
    20    12    13    1
    21    13    14   am
    22    14    15    2
    23    21    22    1
    24    22    23    1
    25    23    18    1
    26     6     1   ar
    27    14     8    1
    28     9     4   ar
    29    13    16    1
@<TRIPOS>MOLECULE
*****
 26 29 0 0 0
SMALL
GASTEIGER

@<TRIPOS>ATOM
      1 C          -0.8249    3.3803   20.1776 C.ar    1  UNL1        0.1385
      2 C          -1.9952    3.6293   19.2731 C.ar    1  UNL1        0.0384
      3 C          -3.3614    3.8407   19.8552 C.ar    1  UNL1        0.0203
      4 C          -3.5572    3.8029   21.3419 C.ar    1  UNL1        0.0602
      5 C          -2.3869    3.5538   22.2465 C.ar    1  UNL1        0.0204
      6 C          -1.0207    3.3425   21.6643 C.ar    1  UNL1        0.0384
      7 C          -2.8829    3.5721   23.6619 C.ar    1  UNL1        0.0233
      8 C          -4.3598    3.8325   23.6322 C.ar    1  UNL1        0.1140
      9 N          -4.7766    3.9752   22.1984 N.ar    1  UNL1       -0.3238
     10 C          -6.2125    4.2435   21.8578 C.3     1  UNL1        0.1052
     11 C          -6.6293    4.3861   20.4240 C.3     1  UNL1        0.0263
     12 C          -7.2318    4.3691   22.9511 C.3     1  UNL1        0.1122
     13 N          -6.8150    4.2265   24.3850 N.am    1  UNL1       -0.2978
     14 C          -5.3790    3.9582   24.7255 C.2     1  UNL1        0.2618
     15 O          -4.9622    3.8156   26.1595 O.2     1  UNL1       -0.2686
     16 H          -7.4839    4.3090   25.1026 H       1  UNL1        0.1498
     17 O           0.5414    3.1689   19.5955 O.3     1  UNL1       -0.4791
     18 N           2.7411   -0.6820   20.3582 N.3     1  UNL1       -0.2737
     19 C           1.2658   -0.7018   20.0882 C.3     1  UNL1        0.0758
     20 C           0.5325    0.5818   19.8339 C.3     1  UNL1        0.0609
     21 C           1.2746    1.8853   19.8497 C.3     1  UNL1        0.1687
     22 C           2.7500    1.9051   20.1198 C.3     1  UNL1        0.0609
     23 C           3.4832    0.6215   20.3740 C.3     1  UNL1        0.0758
     24 C           3.5708   -3.0010   19.5314 C.3     1  UNL1        0.0173
     25 C           3.4743   -1.9656   20.6124 C.3     1  UNL1        0.0576
     26 C           4.1112   -2.2138   21.9477 C.3     1  UNL1        0.0173
@<TRIPOS>BOND
     1    24    25    1
     2    25    26    1
     3    25    18    1
     4    18    19    1
     5    19    20    1
     6    20    21    1
     7    21    17    1
     8    17     1    1
     9     1     2   ar
    10     2     3   ar
    11     3     4   ar
    12     4     5   ar
    13     5     6   ar
    14     5     7   ar
    15     7     8   ar
    16     8     9   ar
    17     9    10    1
    18    10    11    1
    19    10    12    1
    20    12    13    1
    21    13    14   am
    22    14    15    2
    23    21    22    1
    24    22    23    1
    25    23    18    1
    26     6     1   ar
    27    14     8    1
    28     9     4   ar
    29    13    16    1
@<TRIPOS>MOLECULE
*****
 26 29 0 0 0
SMALL
GASTEIGER

@<TRIPOS>ATOM
      1 C           7.2120   -4.5537   22.9029 C.ar    1  UNL1        0.1385
      2 C           6.4896   -3.4632   23.6369 C.ar    1  UNL1        0.0384
      3 C           6.4309   -3.4793   25.1356 C.ar    1  UNL1        0.0203
      4 C           7.0947   -4.5860   25.9003 C.ar    1  UNL1        0.0602
      5 C           7.8171   -5.6765   25.1663 C.ar    1  UNL1        0.0204
      6 C           7.8757   -5.6604   23.6676 C.ar    1  UNL1        0.0384
      7 C           8.3726   -6.6299   26.1823 C.ar    1  UNL1        0.0233
      8 C           7.9935   -6.1287   27.5444 C.ar    1  UNL1        0.1140
      9 N           7.2037   -4.8654   27.3701 N.ar    1  UNL1       -0.3238
     10 C           6.6859   -4.1328   28.5722 C.3     1  UNL1        0.1052
     11 C           5.8961   -2.8696   28.3979 C.3     1  UNL1        0.0263
     12 C           6.9578   -4.6635   29.9486 C.3     1  UNL1        0.1122
     13 N           7.7476   -5.9267   30.1228 N.am    1  UNL1       -0.2978
     14 C           8.2655   -6.6594   28.9207 C.2     1  UNL1        0.2618
     15 O           9.0553   -7.9227   29.0950 O.2     1  UNL1       -0.2686
     16 H           7.9261   -6.2750   31.0262 H       1  UNL1        0.1498
     17 O           7.2706   -4.5377   21.4041 O.3     1  UNL1       -0.4791
     18 N           4.5252   -1.8392   19.0737 N.3     1  UNL1       -0.2737
     19 C           5.9966   -1.5518   19.1212 C.3     1  UNL1        0.0758
     20 C           6.9118   -2.4513   19.8980 C.3     1  UNL1        0.0609
     21 C           6.3555   -3.6382   20.6273 C.3     1  UNL1        0.1687
     22 C           4.8840   -3.9256   20.5797 C.3     1  UNL1        0.0609
     23 C           3.9689   -3.0261   19.8029 C.3     1  UNL1        0.0758
     24 C           2.5229   -0.1852   19.0031 C.3     1  UNL1        0.0173
     25 C           3.6101   -0.9397   18.2969 C.3     1  UNL1        0.0576
     26 C           3.7820   -0.7948   16.8138 C.3     1  UNL1        0.0173
@<TRIPOS>BOND
     1    24    25    1
     2    25    26    1
     3    25    18    1
     4    18    19    1
     5    19    20    1
     6    20    21    1
     7    21    17    1
     8    17     1    1
     9     1     2   ar
    10     2     3   ar
    11     3     4   ar
    12     4     5   ar
    13     5     6   ar
    14     5     7   ar
    15     7     8   ar
    16     8     9   ar
    17     9    10    1
    18    10    11    1
    19    10    12    1
    20    12    13    1
    21    13    14   am
    22    14    15    2
    23    21    22    1
    24    22    23    1
    25    23    18    1
    26     6     1   ar
    27    14     8    1
    28     9     4   ar
    29    13    16    1
@<TRIPOS>MOLECULE
*****
 26 29 0 0 0
SMALL
GASTEIGER

@<TRIPOS>ATOM
      1 C           2.3389    1.5581   23.0628 C.ar    1  UNL1        0.1385
      2 C           2.7286    0.2725   23.7301 C.ar    1  UNL1        0.0384
      3 C           3.2373   -0.8747   22.9085 C.ar    1  UNL1        0.0203
      4 C           3.3562   -0.7364   21.4196 C.ar    1  UNL1        0.0602
      5 C           2.9665    0.5492   20.7524 C.ar    1  UNL1        0.0204
      6 C           2.4579    1.6965   21.5740 C.ar    1  UNL1        0.0384
      7 C           3.1907    0.3925   19.2775 C.ar    1  UNL1        0.0233
      8 C           3.7190   -0.9900   19.0333 C.ar    1  UNL1        0.1140
      9 N           3.8213   -1.6877   20.3572 N.ar    1  UNL1       -0.3238
     10 C           4.3247   -3.0991   20.4242 C.3     1  UNL1        0.1052
     11 C           4.4270   -3.7968   21.7481 C.3     1  UNL1        0.0263
     12 C           4.7258   -3.8128   19.1674 C.3     1  UNL1        0.1122
     13 N           4.6235   -3.1151   17.8435 N.am    1  UNL1       -0.2978
     14 C           4.1201   -1.7037   17.7764 C.2     1  UNL1        0.2618
     15 O           4.0178   -1.0059   16.4525 O.2     1  UNL1       -0.2686
     16 H           4.8867   -3.5835   17.0185 H       1  UNL1        0.1498
     17 O           1.8303    2.7055   23.8844 O.3     1  UNL1       -0.4791
     18 N          -2.5989    3.3452   24.3569 N.3     1  UNL1       -0.2737
     19 C          -1.9334    3.6454   23.0466 C.3     1  UNL1        0.0758
     20 C          -0.4569    3.4321   22.8891 C.3     1  UNL1        0.0609
     21 C           0.3539    2.9187   24.0419 C.3     1  UNL1        0.1687
     22 C          -0.3117    2.6185   25.3522 C.3     1  UNL1        0.0609
     23 C          -1.7881    2.8317   25.5097 C.3     1  UNL1        0.0758
     24 C          -4.9969    3.3069   23.3580 C.3     1  UNL1        0.0173
     25 C          -4.0753    3.5584   24.5144 C.3     1  UNL1        0.0576
     26 C          -4.6300    4.0232   25.8283 C.3     1  UNL1        0.0173
@<TRIPOS>BOND
     1    24    25    1
     2    25    26    1
     3    25    18    1
     4    18    19    1
     5    19    20    1
     6    20    21    1
     7    21    17    1
     8    17     1    1
     9     1     2   ar
    10     2     3   ar
    11     3     4   ar
    12     4     5   ar
    13     5     6   ar
    14     5     7   ar
    15     7     8   ar
    16     8     9   ar
    17     9    10    1
    18    10    11    1
    19    10    12    1
    20    12    13    1
    21    13    14   am
    22    14    15    2
    23    21    22    1
    24    22    23    1
    25    23    18    1
    26     6     1   ar
    27    14     8    1
    28     9     4   ar
    29    13    16    1
@<TRIPOS>MOLECULE
*****
 26 29 0 0 0
SMALL
GASTEIGER

@<TRIPOS>ATOM
      1 C          -6.9379  -19.9495   21.0571 C.ar    1  UNL1        0.1385
      2 C          -6.3048  -19.5497   22.3568 C.ar    1  UNL1        0.0384
      3 C          -4.9250  -18.9615   22.3693 C.ar    1  UNL1        0.0203
      4 C          -4.1784  -18.7731   21.0820 C.ar    1  UNL1        0.0602
      5 C          -4.8115  -19.1729   19.7823 C.ar    1  UNL1        0.0204
      6 C          -6.1913  -19.7610   19.7699 C.ar    1  UNL1        0.0384
      7 C          -3.8395  -18.8700   18.6807 C.ar    1  UNL1        0.0233
      8 C          -2.6056  -18.2830   19.2996 C.ar    1  UNL1        0.1140
      9 N          -2.8150  -18.2231   20.7837 N.ar    1  UNL1       -0.3238
     10 C          -1.7373  -17.6756   21.6717 C.3     1  UNL1        0.1052
     11 C          -1.9467  -17.6157   23.1558 C.3     1  UNL1        0.0263
     12 C          -0.4501  -17.1879   21.0756 C.3     1  UNL1        0.1122
     13 N          -0.2407  -17.2478   19.5915 N.am    1  UNL1       -0.2978
     14 C          -1.3185  -17.7953   18.7035 C.2     1  UNL1        0.2618
     15 O          -1.1091  -17.8552   17.2193 O.2     1  UNL1       -0.2686
     16 H           0.6041  -16.9277   19.2003 H       1  UNL1        0.1498
     17 O          -8.3178  -20.5377   21.0446 O.3     1  UNL1       -0.4791
     18 N         -11.7997  -18.1405   22.5873 N.3     1  UNL1       -0.2737
     19 C         -11.0997  -19.1126   23.4901 C.3     1  UNL1        0.0758
     20 C          -9.9390  -19.9117   22.9758 C.3     1  UNL1        0.0609
     21 C          -9.4784  -19.7386   21.5588 C.3     1  UNL1        0.1687
     22 C         -10.1784  -18.7664   20.6561 C.3     1  UNL1        0.0609
     23 C         -11.3390  -17.9674   21.1703 C.3     1  UNL1        0.0758
     24 C         -13.1305  -15.9112   22.6827 C.3     1  UNL1        0.0173
     25 C         -12.9603  -17.3414   23.1016 C.3     1  UNL1        0.0576
     26 C         -13.9507  -17.9726   24.0347 C.3     1  UNL1        0.0173
@<TRIPOS>BOND
     1    24    25    1
     2    25    26    1
     3    25    18    1
     4    18    19    1
     5    19    20    1
     6    20    21    1
     7    21    17    1
     8    17     1    1
     9     1     2   ar
    10     2     3   ar
    11     3     4   ar
    12     4     5   ar
    13     5     6   ar
    14     5     7   ar
    15     7     8   ar
    16     8     9   ar
    17     9    10    1
    18    10    11    1
    19    10    12    1
    20    12    13    1
    21    13    14   am
    22    14    15    2
    23    21    22    1
    24    22    23    1
    25    23    18    1
    26     6     1   ar
    27    14     8    1
    28     9     4   ar
    29    13    16    1
@<TRIPOS>MOLECULE
*****
 26 29 0 0 0
SMALL
GASTEIGER

@<TRIPOS>ATOM
      1 C           0.4683    3.0719   21.4094 C.ar    1  UNL1        0.1385
      2 C          -0.5148    3.1347   20.2782 C.ar    1  UNL1        0.0384
      3 C          -1.9773    3.3052   20.5643 C.ar    1  UNL1        0.0203
      4 C          -2.4567    3.4129   21.9815 C.ar    1  UNL1        0.0602
      5 C          -1.4737    3.3501   23.1126 C.ar    1  UNL1        0.0204
      6 C          -0.0111    3.1795   22.8266 C.ar    1  UNL1        0.0384
      7 C          -2.2363    3.4834   24.3974 C.ar    1  UNL1        0.0233
      8 C          -3.6907    3.6286   24.0603 C.ar    1  UNL1        0.1140
      9 N          -3.8270    3.5851   22.5672 N.ar    1  UNL1       -0.3238
     10 C          -5.1811    3.7078   21.9338 C.3     1  UNL1        0.1052
     11 C          -5.3174    3.6642   20.4406 C.3     1  UNL1        0.0263
     12 C          -6.3989    3.8741   22.7935 C.3     1  UNL1        0.1122
     13 N          -6.2626    3.9177   24.2866 N.am    1  UNL1       -0.2978
     14 C          -4.9084    3.7949   24.9201 C.2     1  UNL1        0.2618
     15 O          -4.7722    3.8385   26.4133 O.2     1  UNL1       -0.2686
     16 H          -7.0619    4.0268   24.8509 H       1  UNL1        0.1498
     17 O           1.9309    2.9014   21.1233 O.3     1  UNL1       -0.4791
     18 N           3.4661   -1.0060   19.5029 N.3     1  UNL1       -0.2737
     19 C           4.0720    0.2866   19.0426 C.3     1  UNL1        0.0758
     20 C           3.5603    1.5892   19.5828 C.3     1  UNL1        0.0609
     21 C           2.4427    1.5989   20.5832 C.3     1  UNL1        0.1687
     22 C           1.8367    0.3062   21.0435 C.3     1  UNL1        0.0609
     23 C           2.3485   -0.9962   20.5033 C.3     1  UNL1        0.0758
     24 C           5.1445   -2.3229   18.0201 C.3     1  UNL1        0.0173
     25 C           3.9778   -2.3084   18.9628 C.3     1  UNL1        0.0576
     26 C           3.3228   -3.5965   19.3652 C.3     1  UNL1        0.0173
@<TRIPOS>BOND
     1    24    25    1
     2    25    26    1
     3    25    18    1
     4    18    19    1
     5    19    20    1
     6    20    21    1
     7    21    17    1
     8    17     1    1
     9     1     2   ar
    10     2     3   ar
    11     3     4   ar
    12     4     5   ar
    13     5     6   ar
    14     5     7   ar
    15     7     8   ar
    16     8     9   ar
    17     9    10    1
    18    10    11    1
    19    10    12    1
    20    12    13    1
    21    13    14   am
    22    14    15    2
    23    21    22    1
    24    22    23    1
    25    23    18    1
    26     6     1   ar
    27    14     8    1
    28     9     4   ar
    29    13    16    1
