@<TRIPOS>MOLECULE
*****
 24 25 0 0 0
SMALL
GASTEIGER

@<TRIPOS>ATOM
      1 C          -5.3065  -16.7640   23.7745 C.ar    1  UNL1        0.1215
      2 C          -4.0751  -17.5777   23.5075 C.ar    1  UNL1        0.0165
      3 C          -4.1239  -18.7128   22.5281 C.ar    1  UNL1        0.0240
      4 C          -5.4042  -19.0340   21.8156 C.ar    1  UNL1        0.1557
      5 N          -6.6356  -18.2203   22.0825 N.ar    1  UNL1       -0.2071
      6 C          -6.5868  -17.0852   23.0620 C.ar    1  UNL1        0.2349
      7 C          -5.4530  -20.1691   20.8361 C.3     1  UNL1        0.4349
      8 F          -5.5018  -21.3041   19.8567 F       1  UNL1       -0.1644
      9 F          -6.3789  -20.9170   21.7490 F       1  UNL1       -0.1644
     10 F          -4.5271  -19.4212   19.9233 F       1  UNL1       -0.1644
     11 N          -5.2089  -14.4939   25.7333 N.1     1  UNL1       -0.1907
     12 C          -5.2577  -15.6289   24.7539 C.1     1  UNL1        0.1051
     13 O          -7.8183  -16.2714   23.3289 O.3     1  UNL1       -0.4556
     14 C          -9.1658  -16.9304   23.3359 C.3     1  UNL1        0.2279
     15 C         -10.0629  -16.8160   22.1392 C.ar    1  UNL1        0.1942
     16 C         -11.4352  -16.2107   22.1207 C.ar    1  UNL1        0.0634
     17 C         -11.9657  -16.3074   20.7210 C.ar    1  UNL1        0.1436
     18 N         -10.9212  -16.9725   19.8744 N.ar    1  UNL1       -0.0756
     19 O          -9.7452  -17.2868   20.7509 O.2     1  UNL1       -0.3541
     20 C          -9.6162  -17.7038   24.5397 C.3     1  UNL1        0.0685
     21 C         -10.3199  -19.0172   24.3672 C.3     1  UNL1        0.0694
     22 N         -10.1436  -20.1022   25.3878 N.3     1  UNL1       -0.3210
     23 H          -9.1758  -20.4244   25.3778 H       1  UNL1        0.1189
     24 H         -10.7636  -20.8812   25.1664 H       1  UNL1        0.1189
@<TRIPOS>BOND
     1    11    12    3
     2    12     1    1
     3     1     2   ar
     4     2     3   ar
     5     3     4   ar
     6     4     7    1
     7     7     8    1
     8     7     9    1
     9     7    10    1
    10     4     5   ar
    11     5     6   ar
    12     6    13    1
    13    13    14    1
    14    14    20    1
    15    20    21    1
    16    21    22    1
    17    14    15    1
    18    15    16   ar
    19    16    17   ar
    20    17    18   ar
    21    18    19   ar
    22     6     1   ar
    23    19    15   ar
    24    22    23    1
    25    22    24    1
@<TRIPOS>MOLECULE
*****
 24 25 0 0 0
SMALL
GASTEIGER

@<TRIPOS>ATOM
      1 C          -7.7002  -18.9849   21.6602 C.ar    1  UNL1        0.1215
      2 C          -6.6266  -20.0129   21.4595 C.ar    1  UNL1        0.0165
      3 C          -5.2211  -19.7249   21.8973 C.ar    1  UNL1        0.0240
      4 C          -4.8892  -18.4088   22.5358 C.ar    1  UNL1        0.1557
      5 N          -5.9629  -17.3808   22.7366 N.ar    1  UNL1       -0.2071
      6 C          -7.3684  -17.6688   22.2988 C.ar    1  UNL1        0.2349
      7 C          -3.4838  -18.1208   22.9736 C.3     1  UNL1        0.4349
      8 F          -2.0783  -17.8328   23.4114 F       1  UNL1       -0.1644
      9 F          -3.9491  -16.8587   23.6374 F       1  UNL1       -0.1644
     10 F          -3.0184  -19.3829   22.3099 F       1  UNL1       -0.1644
     11 N         -10.5112  -19.5609   20.7846 N.1     1  UNL1       -0.1907
     12 C          -9.1057  -19.2729   21.2224 C.1     1  UNL1        0.1051
     13 O          -8.4420  -16.6407   22.4995 O.3     1  UNL1       -0.4556
     14 C          -9.3286  -16.7082   23.7075 C.3     1  UNL1        0.2279
     15 C         -10.7592  -17.1362   23.5650 C.ar    1  UNL1        0.1942
     16 C         -11.7765  -16.5211   22.6502 C.ar    1  UNL1        0.0634
     17 C         -13.0697  -17.2592   22.8320 C.ar    1  UNL1        0.1436
     18 N         -12.8516  -18.3304   23.8591 N.ar    1  UNL1       -0.0756
     19 O         -11.4236  -18.2544   24.3121 O.2     1  UNL1       -0.3541
     20 C          -8.7847  -16.3477   25.0582 C.3     1  UNL1        0.0685
     21 C          -7.8023  -15.2225   25.1953 C.3     1  UNL1        0.0694
     22 N          -7.4362  -14.3966   23.9979 N.3     1  UNL1       -0.3210
     23 H          -6.9376  -14.9774   23.3238 H       1  UNL1        0.1189
     24 H          -6.8381  -13.6231   24.2884 H       1  UNL1        0.1189
@<TRIPOS>BOND
     1    11    12    3
     2    12     1    1
     3     1     2   ar
     4     2     3   ar
     5     3     4   ar
     6     4     7    1
     7     7     8    1
     8     7     9    1
     9     7    10    1
    10     4     5   ar
    11     5     6   ar
    12     6    13    1
    13    13    14    1
    14    14    20    1
    15    20    21    1
    16    21    22    1
    17    14    15    1
    18    15    16   ar
    19    16    17   ar
    20    17    18   ar
    21    18    19   ar
    22     6     1   ar
    23    19    15   ar
    24    22    23    1
    25    22    24    1
@<TRIPOS>MOLECULE
*****
 24 25 0 0 0
SMALL
GASTEIGER

@<TRIPOS>ATOM
      1 C          -7.7502  -19.1059   21.1643 C.ar    1  UNL1        0.1215
      2 C          -6.5774  -19.9576   20.7786 C.ar    1  UNL1        0.0165
      3 C          -5.2217  -19.6720   21.3535 C.ar    1  UNL1        0.0240
      4 C          -5.0389  -18.5347   22.3142 C.ar    1  UNL1        0.1557
      5 N          -6.2117  -17.6829   22.6999 N.ar    1  UNL1       -0.2071
      6 C          -7.5674  -17.9685   22.1250 C.ar    1  UNL1        0.2349
      7 C          -3.6832  -18.2491   22.8891 C.3     1  UNL1        0.4349
      8 F          -2.3275  -17.9635   23.4640 F       1  UNL1       -0.1644
      9 F          -3.0738  -19.2440   21.9463 F       1  UNL1       -0.1644
     10 F          -4.2926  -17.2542   23.8319 F       1  UNL1       -0.1644
     11 N         -10.4616  -19.6771   20.0145 N.1     1  UNL1       -0.1907
     12 C          -9.1059  -19.3915   20.5894 C.1     1  UNL1        0.1051
     13 O          -8.7403  -17.1167   22.5108 O.3     1  UNL1       -0.4556
     14 C          -9.4897  -17.4019   23.7785 C.3     1  UNL1        0.2279
     15 C          -9.0009  -16.8413   25.0811 C.ar    1  UNL1        0.1942
     16 C          -8.4006  -15.4820   25.2861 C.ar    1  UNL1        0.0634
     17 C          -8.0552  -15.3421   26.7390 C.ar    1  UNL1        0.1436
     18 N          -8.4420  -16.6149   27.4321 N.ar    1  UNL1       -0.0756
     19 O          -9.0265  -17.5414   26.4074 O.2     1  UNL1       -0.3541
     20 C         -10.7280  -18.2479   23.7436 C.3     1  UNL1        0.0685
     21 C         -10.6371  -19.7217   24.0075 C.3     1  UNL1        0.0694
     22 N         -10.2015  -20.2169   25.3547 N.3     1  UNL1       -0.3210
     23 H          -9.2290  -19.9544   25.5152 H       1  UNL1        0.1189
     24 H         -10.2896  -21.2325   25.3884 H       1  UNL1        0.1189
@<TRIPOS>BOND
     1    11    12    3
     2    12     1    1
     3     1     2   ar
     4     2     3   ar
     5     3     4   ar
     6     4     7    1
     7     7     8    1
     8     7     9    1
     9     7    10    1
    10     4     5   ar
    11     5     6   ar
    12     6    13    1
    13    13    14    1
    14    14    20    1
    15    20    21    1
    16    21    22    1
    17    14    15    1
    18    15    16   ar
    19    16    17   ar
    20    17    18   ar
    21    18    19   ar
    22     6     1   ar
    23    19    15   ar
    24    22    23    1
    25    22    24    1
@<TRIPOS>MOLECULE
*****
 24 25 0 0 0
SMALL
GASTEIGER

@<TRIPOS>ATOM
      1 C          -7.8186  -19.1711   20.7143 C.ar    1  UNL1        0.1215
      2 C          -6.8570  -20.2656   20.3575 C.ar    1  UNL1        0.0165
      3 C          -5.4397  -20.2071   20.8451 C.ar    1  UNL1        0.0240
      4 C          -4.9839  -19.0542   21.6894 C.ar    1  UNL1        0.1557
      5 N          -5.9456  -17.9597   22.0462 N.ar    1  UNL1       -0.2071
      6 C          -7.3629  -18.0182   21.5587 C.ar    1  UNL1        0.2349
      7 C          -3.5666  -18.9957   22.1770 C.3     1  UNL1        0.4349
      8 F          -2.1493  -18.9373   22.6646 F       1  UNL1       -0.1644
      9 F          -3.1742  -20.0259   21.1598 F       1  UNL1       -0.1644
     10 F          -3.9590  -17.9655   23.1942 F       1  UNL1       -0.1644
     11 N         -10.6533  -19.2880   19.7391 N.1     1  UNL1       -0.1907
     12 C          -9.2360  -19.2295   20.2267 C.1     1  UNL1        0.1051
     13 O          -8.3245  -16.9236   21.9155 O.3     1  UNL1       -0.4556
     14 C          -8.9291  -16.8742   23.2873 C.3     1  UNL1        0.2279
     15 C         -10.2924  -17.4520   23.5274 C.ar    1  UNL1        0.1942
     16 C         -11.5038  -17.2395   22.6686 C.ar    1  UNL1        0.0634
     17 C         -12.6438  -17.9999   23.2788 C.ar    1  UNL1        0.1436
     18 N         -12.1369  -18.6823   24.5147 N.ar    1  UNL1       -0.0756
     19 O         -10.6837  -18.3437   24.6683 O.2     1  UNL1       -0.3541
     20 C          -8.1705  -16.2470   24.4192 C.3     1  UNL1        0.0685
     21 C          -7.4241  -14.9642   24.2020 C.3     1  UNL1        0.0694
     22 N          -6.2502  -14.9283   23.2689 N.3     1  UNL1       -0.3210
     23 H          -5.4969  -15.5020   23.6480 H       1  UNL1        0.1189
     24 H          -5.9265  -13.9664   23.1666 H       1  UNL1        0.1189
@<TRIPOS>BOND
     1    11    12    3
     2    12     1    1
     3     1     2   ar
     4     2     3   ar
     5     3     4   ar
     6     4     7    1
     7     7     8    1
     8     7     9    1
     9     7    10    1
    10     4     5   ar
    11     5     6   ar
    12     6    13    1
    13    13    14    1
    14    14    20    1
    15    20    21    1
    16    21    22    1
    17    14    15    1
    18    15    16   ar
    19    16    17   ar
    20    17    18   ar
    21    18    19   ar
    22     6     1   ar
    23    19    15   ar
    24    22    23    1
    25    22    24    1
@<TRIPOS>MOLECULE
*****
 24 25 0 0 0
SMALL
GASTEIGER

@<TRIPOS>ATOM
      1 C          -7.7548  -19.4030   20.3508 C.ar    1  UNL1        0.1215
      2 C          -6.9407  -20.6045   19.9717 C.ar    1  UNL1        0.0165
      3 C          -5.5059  -20.7030   20.3978 C.ar    1  UNL1        0.0240
      4 C          -4.8852  -19.6001   21.2029 C.ar    1  UNL1        0.1557
      5 N          -5.6992  -18.3987   21.5820 N.ar    1  UNL1       -0.2071
      6 C          -7.1341  -18.3001   21.1559 C.ar    1  UNL1        0.2349
      7 C          -3.4503  -19.6987   21.6290 C.3     1  UNL1        0.4349
      8 F          -2.0155  -19.7973   22.0551 F       1  UNL1       -0.1644
      9 F          -3.1741  -20.6275   20.4840 F       1  UNL1       -0.1644
     10 F          -3.7265  -18.7699   22.7740 F       1  UNL1       -0.1644
     11 N         -10.6245  -19.2059   19.4986 N.1     1  UNL1       -0.1907
     12 C          -9.1896  -19.3044   19.9247 C.1     1  UNL1        0.1051
     13 O          -7.9482  -17.0986   21.5350 O.3     1  UNL1       -0.4556
     14 C          -8.2308  -16.8095   22.9794 C.3     1  UNL1        0.2279
     15 C          -7.2022  -16.1130   23.8202 C.ar    1  UNL1        0.1942
     16 C          -7.2889  -15.8696   25.2977 C.ar    1  UNL1        0.0634
     17 C          -6.0465  -15.1438   25.7217 C.ar    1  UNL1        0.1436
     18 N          -5.1919  -14.9387   24.5062 N.ar    1  UNL1       -0.0756
     19 O          -5.9061  -15.5377   23.3310 O.2     1  UNL1       -0.3541
     20 C          -9.5422  -17.2169   23.5832 C.3     1  UNL1        0.0685
     21 C         -10.6985  -17.5713   22.6960 C.3     1  UNL1        0.0694
     22 N         -11.0369  -16.7016   21.5217 N.3     1  UNL1       -0.3210
     23 H         -11.3497  -15.7891   21.8534 H       1  UNL1        0.1189
     24 H         -11.7808  -17.1389   20.9779 H       1  UNL1        0.1189
@<TRIPOS>BOND
     1    11    12    3
     2    12     1    1
     3     1     2   ar
     4     2     3   ar
     5     3     4   ar
     6     4     7    1
     7     7     8    1
     8     7     9    1
     9     7    10    1
    10     4     5   ar
    11     5     6   ar
    12     6    13    1
    13    13    14    1
    14    14    20    1
    15    20    21    1
    16    21    22    1
    17    14    15    1
    18    15    16   ar
    19    16    17   ar
    20    17    18   ar
    21    18    19   ar
    22     6     1   ar
    23    19    15   ar
    24    22    23    1
    25    22    24    1
@<TRIPOS>MOLECULE
*****
 24 25 0 0 0
SMALL
GASTEIGER

@<TRIPOS>ATOM
      1 C          -7.8993  -19.6048   22.2057 C.ar    1  UNL1        0.1215
      2 C          -6.7948  -20.5914   22.4436 C.ar    1  UNL1        0.0165
      3 C          -5.5184  -20.4911   21.6621 C.ar    1  UNL1        0.0240
      4 C          -5.3465  -19.4041   20.6428 C.ar    1  UNL1        0.1557
      5 N          -6.4510  -18.4175   20.4050 N.ar    1  UNL1       -0.2071
      6 C          -7.7274  -18.5178   21.1865 C.ar    1  UNL1        0.2349
      7 C          -4.0701  -19.3038   19.8614 C.3     1  UNL1        0.4349
      8 F          -2.7936  -19.2035   19.0799 F       1  UNL1       -0.1644
      9 F          -3.4406  -20.3284   20.7581 F       1  UNL1       -0.1644
     10 F          -4.6996  -18.2793   18.9647 F       1  UNL1       -0.1644
     11 N         -10.4522  -19.8054   23.7687 N.1     1  UNL1       -0.1907
     12 C          -9.1758  -19.7051   22.9872 C.1     1  UNL1        0.1051
     13 O          -8.8320  -17.5311   20.9486 O.3     1  UNL1       -0.4556
     14 C          -9.2896  -16.6351   22.0611 C.3     1  UNL1        0.2279
     15 C          -8.2942  -16.0863   23.0399 C.ar    1  UNL1        0.1942
     16 C          -8.3904  -16.1678   24.5345 C.ar    1  UNL1        0.0634
     17 C          -7.1835  -15.4916   25.1143 C.ar    1  UNL1        0.1436
     18 N          -6.3413  -14.9923   23.9779 N.ar    1  UNL1       -0.0756
     19 O          -7.0278  -15.3598   22.6959 O.2     1  UNL1       -0.3541
     20 C         -10.7427  -16.2877   22.1948 C.3     1  UNL1        0.0685
     21 C         -11.6174  -16.2391   20.9771 C.3     1  UNL1        0.0694
     22 N         -11.0473  -15.7992   19.6613 N.3     1  UNL1       -0.3210
     23 H         -10.7793  -14.8167   19.7183 H       1  UNL1        0.1189
     24 H         -11.7483  -15.9186   18.9301 H       1  UNL1        0.1189
@<TRIPOS>BOND
     1    11    12    3
     2    12     1    1
     3     1     2   ar
     4     2     3   ar
     5     3     4   ar
     6     4     7    1
     7     7     8    1
     8     7     9    1
     9     7    10    1
    10     4     5   ar
    11     5     6   ar
    12     6    13    1
    13    13    14    1
    14    14    20    1
    15    20    21    1
    16    21    22    1
    17    14    15    1
    18    15    16   ar
    19    16    17   ar
    20    17    18   ar
    21    18    19   ar
    22     6     1   ar
    23    19    15   ar
    24    22    23    1
    25    22    24    1
@<TRIPOS>MOLECULE
*****
 24 25 0 0 0
SMALL
GASTEIGER

@<TRIPOS>ATOM
      1 C         -10.2133  -19.0537   20.9220 C.ar    1  UNL1        0.1215
      2 C         -11.6001  -18.5448   20.6615 C.ar    1  UNL1        0.0165
      3 C         -12.5451  -18.3239   21.8052 C.ar    1  UNL1        0.0240
      4 C         -12.1035  -18.6119   23.2094 C.ar    1  UNL1        0.1557
      5 N         -10.7167  -19.1208   23.4700 N.ar    1  UNL1       -0.2071
      6 C          -9.7717  -19.3417   22.3263 C.ar    1  UNL1        0.2349
      7 C         -13.0486  -18.3910   24.3531 C.3     1  UNL1        0.4349
      8 F         -13.9936  -18.1701   25.4968 F       1  UNL1       -0.1644
      9 F         -12.0381  -18.9683   25.2996 F       1  UNL1       -0.1644
     10 F         -14.0590  -17.8138   23.4066 F       1  UNL1       -0.1644
     11 N          -8.3232  -19.4955   18.6346 N.1     1  UNL1       -0.1907
     12 C          -9.2682  -19.2746   19.7783 C.1     1  UNL1        0.1051
     13 O          -8.3849  -19.8507   22.5869 O.3     1  UNL1       -0.4556
     14 C          -7.2064  -18.9392   22.4129 C.3     1  UNL1        0.2279
     15 C          -7.3889  -17.4528   22.4981 C.ar    1  UNL1        0.1942
     16 C          -7.2506  -16.6170   23.7359 C.ar    1  UNL1        0.0634
     17 C          -7.5180  -15.1888   23.3633 C.ar    1  UNL1        0.1436
     18 N          -7.8215  -15.1419   21.8950 N.ar    1  UNL1       -0.0756
     19 O          -7.7418  -16.5411   21.3603 O.2     1  UNL1       -0.3541
     20 C          -5.8454  -19.5141   22.1537 C.3     1  UNL1        0.0685
     21 C          -5.4347  -19.8682   20.7552 C.3     1  UNL1        0.0694
     22 N          -5.8902  -21.1601   20.1442 N.3     1  UNL1       -0.3210
     23 H          -5.4706  -21.9413   20.6483 H       1  UNL1        0.1189
     24 H          -5.6034  -21.1934   19.1659 H       1  UNL1        0.1189
@<TRIPOS>BOND
     1    11    12    3
     2    12     1    1
     3     1     2   ar
     4     2     3   ar
     5     3     4   ar
     6     4     7    1
     7     7     8    1
     8     7     9    1
     9     7    10    1
    10     4     5   ar
    11     5     6   ar
    12     6    13    1
    13    13    14    1
    14    14    20    1
    15    20    21    1
    16    21    22    1
    17    14    15    1
    18    15    16   ar
    19    16    17   ar
    20    17    18   ar
    21    18    19   ar
    22     6     1   ar
    23    19    15   ar
    24    22    23    1
    25    22    24    1
@<TRIPOS>MOLECULE
*****
 24 25 0 0 0
SMALL
GASTEIGER

@<TRIPOS>ATOM
      1 C         -10.1520  -19.0002   20.8137 C.ar    1  UNL1        0.1215
      2 C         -11.5624  -18.5550   20.5642 C.ar    1  UNL1        0.0165
      3 C         -12.5005  -18.3536   21.7172 C.ar    1  UNL1        0.0240
      4 C         -12.0281  -18.5975   23.1198 C.ar    1  UNL1        0.1557
      5 N         -10.6176  -19.0427   23.3694 N.ar    1  UNL1       -0.2071
      6 C          -9.6795  -19.2440   22.2163 C.ar    1  UNL1        0.2349
      7 C         -12.9661  -18.3961   24.2728 C.3     1  UNL1        0.4349
      8 F         -13.9042  -18.1947   25.4259 F       1  UNL1       -0.1644
      9 F         -13.9985  -17.8421   23.3362 F       1  UNL1       -0.1644
     10 F         -11.9337  -18.9500   25.2095 F       1  UNL1       -0.1644
     11 N          -8.2758  -19.4030   18.5076 N.1     1  UNL1       -0.1907
     12 C          -9.2139  -19.2016   19.6607 C.1     1  UNL1        0.1051
     13 O          -8.2690  -19.6893   22.4659 O.3     1  UNL1       -0.4556
     14 C          -7.1377  -18.7158   22.3163 C.3     1  UNL1        0.2279
     15 C          -5.9003  -19.1134   21.5673 C.ar    1  UNL1        0.1942
     16 C          -5.7123  -20.3783   20.7835 C.ar    1  UNL1        0.0634
     17 C          -4.3295  -20.3625   20.2024 C.ar    1  UNL1        0.1436
     18 N          -3.6628  -19.0877   20.6272 N.ar    1  UNL1       -0.0756
     19 O          -4.6337  -18.3157   21.4708 O.2     1  UNL1       -0.3541
     20 C          -7.2437  -17.3448   22.9156 C.3     1  UNL1        0.0685
     21 C          -8.0747  -16.2938   22.2413 C.3     1  UNL1        0.0694
     22 N          -7.7091  -14.8456   22.3798 N.3     1  UNL1       -0.3210
     23 H          -7.8245  -14.5572   23.3513 H       1  UNL1        0.1189
     24 H          -8.3164  -14.2832   21.7838 H       1  UNL1        0.1189
@<TRIPOS>BOND
     1    11    12    3
     2    12     1    1
     3     1     2   ar
     4     2     3   ar
     5     3     4   ar
     6     4     7    1
     7     7     8    1
     8     7     9    1
     9     7    10    1
    10     4     5   ar
    11     5     6   ar
    12     6    13    1
    13    13    14    1
    14    14    20    1
    15    20    21    1
    16    21    22    1
    17    14    15    1
    18    15    16   ar
    19    16    17   ar
    20    17    18   ar
    21    18    19   ar
    22     6     1   ar
    23    19    15   ar
    24    22    23    1
    25    22    24    1
@<TRIPOS>MOLECULE
*****
 24 25 0 0 0
SMALL
GASTEIGER

@<TRIPOS>ATOM
      1 C          -5.0378  -16.8925   23.6373 C.ar    1  UNL1        0.1215
      2 C          -3.6794  -17.5157   23.5087 C.ar    1  UNL1        0.0165
      3 C          -3.4397  -18.5875   22.4871 C.ar    1  UNL1        0.0240
      4 C          -4.5582  -19.0362   21.5941 C.ar    1  UNL1        0.1557
      5 N          -5.9165  -18.4130   21.7227 N.ar    1  UNL1       -0.2071
      6 C          -6.1563  -17.3412   22.7443 C.ar    1  UNL1        0.2349
      7 C          -4.3185  -20.1080   20.5725 C.3     1  UNL1        0.4349
      8 F          -4.0787  -21.1798   19.5508 F       1  UNL1       -0.1644
      9 F          -2.9027  -20.2453   21.0488 F       1  UNL1       -0.1644
     10 F          -5.7342  -19.9707   20.0961 F       1  UNL1       -0.1644
     11 N          -5.5173  -14.7489   25.6806 N.1     1  UNL1       -0.1907
     12 C          -5.2775  -15.8207   24.6590 C.1     1  UNL1        0.1051
     13 O          -7.5147  -16.7180   22.8729 O.3     1  UNL1       -0.4556
     14 C          -8.7408  -17.5176   22.5453 C.3     1  UNL1        0.2279
     15 C          -9.1583  -18.6495   23.4367 C.ar    1  UNL1        0.1942
     16 C         -10.0855  -18.5507   24.6116 C.ar    1  UNL1        0.0634
     17 C         -10.2222  -19.9191   25.2107 C.ar    1  UNL1        0.1436
     18 N          -9.3794  -20.8636   24.4060 N.ar    1  UNL1       -0.0756
     19 O          -8.7219  -20.0790   23.3096 O.2     1  UNL1       -0.3541
     20 C          -9.5494  -17.1854   21.3263 C.3     1  UNL1        0.0685
     21 C         -10.5486  -16.0677   21.3709 C.3     1  UNL1        0.0694
     22 N         -11.2168  -15.7102   22.6654 N.3     1  UNL1       -0.3210
     23 H         -11.8112  -16.4827   22.9658 H       1  UNL1        0.1189
     24 H         -11.7861  -14.8741   22.5346 H       1  UNL1        0.1189
@<TRIPOS>BOND
     1    11    12    3
     2    12     1    1
     3     1     2   ar
     4     2     3   ar
     5     3     4   ar
     6     4     7    1
     7     7     8    1
     8     7     9    1
     9     7    10    1
    10     4     5   ar
    11     5     6   ar
    12     6    13    1
    13    13    14    1
    14    14    20    1
    15    20    21    1
    16    21    22    1
    17    14    15    1
    18    15    16   ar
    19    16    17   ar
    20    17    18   ar
    21    18    19   ar
    22     6     1   ar
    23    19    15   ar
    24    22    23    1
    25    22    24    1
