@<TRIPOS>MOLECULE
*****
 27 30 0 0 0
SMALL
GASTEIGER

@<TRIPOS>ATOM
      1 C          -7.2895  -17.0419   23.2130 C.2     1  UNL1        0.0020
      2 C          -8.5078  -17.2572   22.3647 C.2     1  UNL1        0.0130
      3 C          -9.8528  -16.8117   22.8571 C.3     1  UNL1        0.1542
      4 C          -9.7260  -17.4724   21.5164 C.3     1  UNL1        0.0614
      5 C         -10.9443  -17.6877   20.6682 C.3     1  UNL1        0.0725
      6 N         -12.2893  -17.2422   21.1606 N.3     1  UNL1       -0.2972
      7 C         -12.4161  -16.5815   22.5012 C.3     1  UNL1        0.0725
      8 C         -11.1978  -16.3662   23.3495 C.3     1  UNL1        0.0614
      9 O          -9.9796  -16.1510   24.1978 O.3     1  UNL1       -0.4785
     10 C          -8.7613  -15.9357   25.0460 C.ar    1  UNL1        0.1386
     11 C          -8.8881  -15.2750   26.3867 C.ar    1  UNL1        0.0369
     12 C          -7.6699  -15.0597   27.2349 C.ar    1  UNL1        0.0031
     13 C          -6.3248  -15.5052   26.7425 C.ar    1  UNL1        0.0002
     14 C          -6.1980  -16.1659   25.4019 C.ar    1  UNL1        0.0030
     15 C          -7.4163  -16.3812   24.5536 C.ar    1  UNL1        0.0338
     16 H         -12.8838  -18.0707   21.1833 H       1  UNL1        0.1233
     17 C          -3.2544  -18.3784   21.7358 C.ar    1  UNL1        0.0534
     18 C          -3.3622  -17.2072   22.6668 C.ar    1  UNL1        0.0045
     19 C          -4.7072  -16.7617   23.1592 C.ar    1  UNL1        0.0001
     20 C          -5.9445  -17.4874   22.7206 C.ar    1  UNL1       -0.0001
     21 C          -5.8368  -18.6586   21.7896 C.ar    1  UNL1        0.0001
     22 C          -4.4918  -19.1041   21.2972 C.ar    1  UNL1        0.0045
     23 C           0.4063  -18.2632   20.2075 C.3     1  UNL1        0.1109
     24 N          -0.9387  -17.8178   20.6999 N.am    1  UNL1       -0.2992
     25 C          -1.9094  -18.8239   21.2434 C.2     1  UNL1        0.2459
     26 O          -1.5351  -20.2756   21.2945 O.2     1  UNL1       -0.2701
     27 H          -1.1844  -16.8650   20.6664 H       1  UNL1        0.1498
@<TRIPOS>BOND
     1    23    24    1
     2    24    25   am
     3    25    26    2
     4    25    17    1
     5    17    18   ar
     6    18    19   ar
     7    19    20   ar
     8    20     1    1
     9     1     2    2
    10     2     3    1
    11     3     4    1
    12     4     5    1
    13     5     6    1
    14     6     7    1
    15     7     8    1
    16     3     9    1
    17     9    10    1
    18    10    11   ar
    19    11    12   ar
    20    12    13   ar
    21    13    14   ar
    22    14    15   ar
    23    20    21   ar
    24    21    22   ar
    25    22    17   ar
    26    15     1    1
    27     8     3    1
    28    15    10   ar
    29    24    27    1
    30     6    16    1
@<TRIPOS>MOLECULE
*****
 27 30 0 0 0
SMALL
GASTEIGER

@<TRIPOS>ATOM
      1 C         -13.6399   -5.2134   18.4447 C.2     1  UNL1        0.0020
      2 C         -14.1131   -3.7935   18.3438 C.2     1  UNL1        0.0130
      3 C         -13.1293   -2.6659   18.4468 C.3     1  UNL1        0.1542
      4 C         -14.5863   -2.3738   18.2428 C.3     1  UNL1        0.0614
      5 C         -15.0595   -0.9540   18.1419 C.3     1  UNL1        0.0725
      6 N         -14.0757    0.1736   18.2449 N.3     1  UNL1       -0.2972
      7 C         -12.6187   -0.1186   18.4489 C.3     1  UNL1        0.0725
      8 C         -12.1455   -1.5383   18.5498 C.3     1  UNL1        0.0614
      9 O         -11.6722   -2.9582   18.6508 O.3     1  UNL1       -0.4785
     10 C         -11.1990   -4.3780   18.7517 C.ar    1  UNL1        0.1386
     11 C          -9.7419   -4.6702   18.9557 C.ar    1  UNL1        0.0369
     12 C          -9.2687   -6.0900   19.0567 C.ar    1  UNL1        0.0031
     13 C         -10.2525   -7.2176   18.9536 C.ar    1  UNL1        0.0002
     14 C         -11.7096   -6.9254   18.7497 C.ar    1  UNL1        0.0030
     15 C         -12.1828   -5.5056   18.6487 C.ar    1  UNL1        0.0338
     16 H         -14.3727    0.7527   19.0304 H       1  UNL1        0.1233
     17 C         -16.5913   -8.5962   18.1356 C.ar    1  UNL1        0.0534
     18 C         -16.4045   -7.8807   19.4407 C.ar    1  UNL1        0.0045
     19 C         -15.4207   -6.7531   19.5437 C.ar    1  UNL1        0.0001
     20 C         -14.6237   -6.3410   18.3417 C.ar    1  UNL1       -0.0001
     21 C         -14.8105   -7.0565   17.0366 C.ar    1  UNL1        0.0001
     22 C         -15.7943   -8.1841   16.9335 C.ar    1  UNL1        0.0045
     23 C         -19.9474  -10.5915   17.4250 C.3     1  UNL1        0.1109
     24 N         -18.9636   -9.4639   17.5281 N.am    1  UNL1       -0.2992
     25 C         -17.5752   -9.7238   18.0326 C.2     1  UNL1        0.2459
     26 O         -17.1704  -11.1113   18.4341 O.2     1  UNL1       -0.2701
     27 H         -19.2292   -8.5533   17.2645 H       1  UNL1        0.1498
@<TRIPOS>BOND
     1    23    24    1
     2    24    25   am
     3    25    26    2
     4    25    17    1
     5    17    18   ar
     6    18    19   ar
     7    19    20   ar
     8    20     1    1
     9     1     2    2
    10     2     3    1
    11     3     4    1
    12     4     5    1
    13     5     6    1
    14     6     7    1
    15     7     8    1
    16     3     9    1
    17     9    10    1
    18    10    11   ar
    19    11    12   ar
    20    12    13   ar
    21    13    14   ar
    22    14    15   ar
    23    20    21   ar
    24    21    22   ar
    25    22    17   ar
    26    15     1    1
    27     8     3    1
    28    15    10   ar
    29    24    27    1
    30     6    16    1
@<TRIPOS>MOLECULE
*****
 27 30 0 0 0
SMALL
GASTEIGER

@<TRIPOS>ATOM
      1 C          -7.4492  -17.9636   22.7988 C.2     1  UNL1        0.0020
      2 C          -6.7024  -18.9014   21.8970 C.2     1  UNL1        0.0130
      3 C          -5.2058  -18.8359   21.8207 C.3     1  UNL1        0.1542
      4 C          -5.9557  -19.8391   20.9954 C.3     1  UNL1        0.0614
      5 C          -5.2090  -20.7768   20.0937 C.3     1  UNL1        0.0725
      6 N          -3.7123  -20.7113   20.0173 N.3     1  UNL1       -0.2972
      7 C          -2.9625  -19.7081   20.8427 C.3     1  UNL1        0.0725
      8 C          -3.7092  -18.7704   21.7443 C.3     1  UNL1        0.0614
      9 O          -4.4559  -17.8326   22.6461 O.3     1  UNL1       -0.4785
     10 C          -5.2027  -16.8949   23.5477 C.ar    1  UNL1        0.1386
     11 C          -4.4528  -15.8916   24.3731 C.ar    1  UNL1        0.0369
     12 C          -5.1995  -14.9539   25.2748 C.ar    1  UNL1        0.0031
     13 C          -6.6961  -15.0194   25.3512 C.ar    1  UNL1        0.0002
     14 C          -7.4460  -16.0226   24.5258 C.ar    1  UNL1        0.0030
     15 C          -6.6993  -16.9604   23.6241 C.ar    1  UNL1        0.0338
     16 H          -3.4750  -20.5270   19.0426 H       1  UNL1        0.1233
     17 C         -11.9391  -18.1601   23.0278 C.ar    1  UNL1        0.0534
     18 C         -11.2778  -17.2376   22.0472 C.ar    1  UNL1        0.0045
     19 C          -9.7811  -17.1721   21.9708 C.ar    1  UNL1        0.0001
     20 C          -8.9458  -18.0291   22.8751 C.ar    1  UNL1       -0.0001
     21 C          -9.6071  -18.9516   23.8558 C.ar    1  UNL1        0.0001
     22 C         -11.1037  -19.0172   23.9322 C.ar    1  UNL1        0.0045
     23 C         -15.6089  -18.4578   24.5087 C.3     1  UNL1        0.1109
     24 N         -14.1123  -18.3923   24.4324 N.am    1  UNL1       -0.2992
     25 C         -13.4357  -18.2256   23.1041 C.2     1  UNL1        0.2459
     26 O         -14.2557  -18.1244   21.8521 O.2     1  UNL1       -0.2701
     27 H         -13.5741  -18.4588   25.2541 H       1  UNL1        0.1498
@<TRIPOS>BOND
     1    23    24    1
     2    24    25   am
     3    25    26    2
     4    25    17    1
     5    17    18   ar
     6    18    19   ar
     7    19    20   ar
     8    20     1    1
     9     1     2    2
    10     2     3    1
    11     3     4    1
    12     4     5    1
    13     5     6    1
    14     6     7    1
    15     7     8    1
    16     3     9    1
    17     9    10    1
    18    10    11   ar
    19    11    12   ar
    20    12    13   ar
    21    13    14   ar
    22    14    15   ar
    23    20    21   ar
    24    21    22   ar
    25    22    17   ar
    26    15     1    1
    27     8     3    1
    28    15    10   ar
    29    24    27    1
    30     6    16    1
@<TRIPOS>MOLECULE
*****
 27 30 0 0 0
SMALL
GASTEIGER

@<TRIPOS>ATOM
      1 C           3.8804    0.7602   34.3715 C.2     1  UNL1        0.0020
      2 C           3.9774    1.0434   35.8414 C.2     1  UNL1        0.0130
      3 C           3.1456    2.1321   36.4520 C.3     1  UNL1        0.1542
      4 C           4.0745    1.3265   37.3112 C.3     1  UNL1        0.0614
      5 C           4.1715    1.6097   38.7810 C.3     1  UNL1        0.0725
      6 N           3.3397    2.6984   39.3916 N.3     1  UNL1       -0.2972
      7 C           2.4108    3.5039   38.5324 C.3     1  UNL1        0.0725
      8 C           2.3138    3.2208   37.0626 C.3     1  UNL1        0.0614
      9 O           2.2167    2.9376   35.5927 O.3     1  UNL1       -0.4785
     10 C           2.1196    2.6544   34.1229 C.ar    1  UNL1        0.1386
     11 C           1.1907    3.4600   33.2636 C.ar    1  UNL1        0.0369
     12 C           1.0937    3.1768   31.7938 C.ar    1  UNL1        0.0031
     13 C           1.9255    2.0881   31.1832 C.ar    1  UNL1        0.0002
     14 C           2.8544    1.2826   32.0424 C.ar    1  UNL1        0.0030
     15 C           2.9515    1.5658   33.5123 C.ar    1  UNL1        0.0338
     16 H           3.9878    3.3575   39.8228 H       1  UNL1        0.1233
     17 C           6.3758   -2.5058   32.5397 C.ar    1  UNL1        0.0534
     18 C           4.9828   -2.8011   33.0109 C.ar    1  UNL1        0.0045
     19 C           4.1509   -1.7124   33.6215 C.ar    1  UNL1        0.0001
     20 C           4.7122   -0.3284   33.7609 C.ar    1  UNL1       -0.0001
     21 C           6.1053   -0.0331   33.2897 C.ar    1  UNL1        0.0001
     22 C           6.9372   -1.1217   32.6791 C.ar    1  UNL1        0.0045
     23 C           7.5710   -6.1069   31.3763 C.3     1  UNL1        0.1109
     24 N           6.7392   -5.0182   31.9869 N.am    1  UNL1       -0.2992
     25 C           7.2077   -3.5945   31.9291 C.2     1  UNL1        0.2459
     26 O           8.5081   -3.2593   31.2607 O.2     1  UNL1       -0.2701
     27 H           5.8857   -5.2382   32.4256 H       1  UNL1        0.1498
@<TRIPOS>BOND
     1    23    24    1
     2    24    25   am
     3    25    26    2
     4    25    17    1
     5    17    18   ar
     6    18    19   ar
     7    19    20   ar
     8    20     1    1
     9     1     2    2
    10     2     3    1
    11     3     4    1
    12     4     5    1
    13     5     6    1
    14     6     7    1
    15     7     8    1
    16     3     9    1
    17     9    10    1
    18    10    11   ar
    19    11    12   ar
    20    12    13   ar
    21    13    14   ar
    22    14    15   ar
    23    20    21   ar
    24    21    22   ar
    25    22    17   ar
    26    15     1    1
    27     8     3    1
    28    15    10   ar
    29    24    27    1
    30     6    16    1
@<TRIPOS>MOLECULE
*****
 27 30 0 0 0
SMALL
GASTEIGER

@<TRIPOS>ATOM
      1 C           6.9137   -4.0145   24.0429 C.2     1  UNL1        0.0020
      2 C           6.4521   -3.2384   25.2406 C.2     1  UNL1        0.0130
      3 C           6.7811   -3.7239   26.6212 C.3     1  UNL1        0.1542
      4 C           5.9906   -2.4623   26.4384 C.3     1  UNL1        0.0614
      5 C           5.5291   -1.6862   27.6361 C.3     1  UNL1        0.0725
      6 N           5.8581   -2.1717   29.0167 N.3     1  UNL1       -0.2972
      7 C           6.6486   -3.4333   29.1996 C.3     1  UNL1        0.0725
      8 C           7.1101   -4.2094   28.0018 C.3     1  UNL1        0.0614
      9 O           7.5716   -4.9855   26.8041 O.3     1  UNL1       -0.4785
     10 C           8.0332   -5.7616   25.6063 C.ar    1  UNL1        0.1386
     11 C           8.8237   -7.0233   25.7892 C.ar    1  UNL1        0.0369
     12 C           9.2852   -7.7994   24.5914 C.ar    1  UNL1        0.0031
     13 C           8.9562   -7.3139   23.2108 C.ar    1  UNL1        0.0002
     14 C           8.1658   -6.0523   23.0279 C.ar    1  UNL1        0.0030
     15 C           7.7042   -5.2761   24.2257 C.ar    1  UNL1        0.0338
     16 H           4.9704   -2.3077   29.5003 H       1  UNL1        0.1233
     17 C           5.9268   -2.5580   19.9010 C.ar    1  UNL1        0.0534
     18 C           7.2612   -2.2422   20.5090 C.ar    1  UNL1        0.0045
     19 C           7.5901   -2.7277   21.8896 C.ar    1  UNL1        0.0001
     20 C           6.5848   -3.5290   22.6622 C.ar    1  UNL1       -0.0001
     21 C           5.2503   -3.8449   22.0543 C.ar    1  UNL1        0.0001
     22 C           4.9214   -3.3594   20.6736 C.ar    1  UNL1        0.0045
     23 C           3.9528   -0.9184   16.8737 C.3     1  UNL1        0.1109
     24 N           4.2818   -1.4039   18.2543 N.am    1  UNL1       -0.2992
     25 C           5.5979   -2.0725   18.5204 C.2     1  UNL1        0.2459
     26 O           6.5851   -2.2557   17.4059 O.2     1  UNL1       -0.2701
     27 H           3.6339   -1.2837   18.9857 H       1  UNL1        0.1498
@<TRIPOS>BOND
     1    23    24    1
     2    24    25   am
     3    25    26    2
     4    25    17    1
     5    17    18   ar
     6    18    19   ar
     7    19    20   ar
     8    20     1    1
     9     1     2    2
    10     2     3    1
    11     3     4    1
    12     4     5    1
    13     5     6    1
    14     6     7    1
    15     7     8    1
    16     3     9    1
    17     9    10    1
    18    10    11   ar
    19    11    12   ar
    20    12    13   ar
    21    13    14   ar
    22    14    15   ar
    23    20    21   ar
    24    21    22   ar
    25    22    17   ar
    26    15     1    1
    27     8     3    1
    28    15    10   ar
    29    24    27    1
    30     6    16    1
@<TRIPOS>MOLECULE
*****
 27 30 0 0 0
SMALL
GASTEIGER

@<TRIPOS>ATOM
      1 C           3.4040   -1.1255   21.8620 C.2     1  UNL1        0.0020
      2 C           3.7778   -1.2940   23.3050 C.2     1  UNL1        0.0130
      3 C           4.8304   -2.2886   23.6959 C.3     1  UNL1        0.1542
      4 C           4.1516   -1.4624   24.7478 C.3     1  UNL1        0.0614
      5 C           4.5254   -1.6308   26.1907 C.3     1  UNL1        0.0725
      6 N           5.5780   -2.6254   26.5816 N.3     1  UNL1       -0.2972
      7 C           6.2568   -3.4516   25.5296 C.3     1  UNL1        0.0725
      8 C           5.8830   -3.2832   24.0868 C.3     1  UNL1        0.0614
      9 O           5.5092   -3.1148   22.6438 O.3     1  UNL1       -0.4785
     10 C           5.1354   -2.9463   21.2010 C.ar    1  UNL1        0.1386
     11 C           5.8142   -3.7725   20.1490 C.ar    1  UNL1        0.0369
     12 C           5.4404   -3.6041   18.7061 C.ar    1  UNL1        0.0031
     13 C           4.3878   -2.6095   18.3152 C.ar    1  UNL1        0.0002
     14 C           3.7090   -1.7833   19.3672 C.ar    1  UNL1        0.0030
     15 C           4.0828   -1.9517   20.8101 C.ar    1  UNL1        0.0338
     16 H           5.1395   -3.2782   27.2312 H       1  UNL1        0.1233
     17 C           0.2463    1.8583   20.6893 C.ar    1  UNL1        0.0534
     18 C           1.4185    2.2934   21.5180 C.ar    1  UNL1        0.0045
     19 C           2.4711    1.2988   21.9089 C.ar    1  UNL1        0.0001
     20 C           2.3515   -0.1309   21.4711 C.ar    1  UNL1       -0.0001
     21 C           1.1792   -0.5660   20.6424 C.ar    1  UNL1        0.0001
     22 C           0.1267    0.4286   20.2515 C.ar    1  UNL1        0.0045
     23 C          -3.2691    3.6753   20.3886 C.3     1  UNL1        0.1109
     24 N          -2.2165    2.6807   20.7795 N.am    1  UNL1       -0.2992
     25 C          -0.8063    2.8529   20.2984 C.2     1  UNL1        0.2459
     26 O          -0.4485    4.0199   19.4264 O.2     1  UNL1       -0.2701
     27 H          -2.4513    1.9148   21.3519 H       1  UNL1        0.1498
@<TRIPOS>BOND
     1    23    24    1
     2    24    25   am
     3    25    26    2
     4    25    17    1
     5    17    18   ar
     6    18    19   ar
     7    19    20   ar
     8    20     1    1
     9     1     2    2
    10     2     3    1
    11     3     4    1
    12     4     5    1
    13     5     6    1
    14     6     7    1
    15     7     8    1
    16     3     9    1
    17     9    10    1
    18    10    11   ar
    19    11    12   ar
    20    12    13   ar
    21    13    14   ar
    22    14    15   ar
    23    20    21   ar
    24    21    22   ar
    25    22    17   ar
    26    15     1    1
    27     8     3    1
    28    15    10   ar
    29    24    27    1
    30     6    16    1
@<TRIPOS>MOLECULE
*****
 27 30 0 0 0
SMALL
GASTEIGER

@<TRIPOS>ATOM
      1 C           3.9429   -0.0178   19.9913 C.2     1  UNL1        0.0020
      2 C           4.5476    1.0675   19.1506 C.2     1  UNL1        0.0130
      3 C           5.4268    0.7136   17.9880 C.3     1  UNL1        0.1542
      4 C           5.1524    2.1526   18.3100 C.3     1  UNL1        0.0614
      5 C           5.7571    3.2378   17.4694 C.3     1  UNL1        0.0725
      6 N           6.6363    2.8839   16.3067 N.3     1  UNL1       -0.2972
      7 C           6.9107    1.4448   15.9847 C.3     1  UNL1        0.0725
      8 C           6.3060    0.3597   16.8253 C.3     1  UNL1        0.0614
      9 O           5.7012   -0.7256   17.6659 O.3     1  UNL1       -0.4785
     10 C           5.0965   -1.8107   18.5065 C.ar    1  UNL1        0.1386
     11 C           5.3709   -3.2499   18.1845 C.ar    1  UNL1        0.0369
     12 C           4.7661   -4.3350   19.0251 C.ar    1  UNL1        0.0031
     13 C           3.8870   -3.9811   20.1877 C.ar    1  UNL1        0.0002
     14 C           3.6125   -2.5421   20.5098 C.ar    1  UNL1        0.0030
     15 C           4.2173   -1.4568   19.6692 C.ar    1  UNL1        0.0338
     16 H           7.5401    3.3253   16.4760 H       1  UNL1        0.1233
     17 C           1.3054    1.0439   23.4793 C.ar    1  UNL1        0.0534
     18 C           2.7512    0.7147   23.7052 C.ar    1  UNL1        0.0045
     19 C           3.6304    0.3608   22.5425 C.ar    1  UNL1        0.0001
     20 C           3.0637    0.3361   21.1539 C.ar    1  UNL1       -0.0001
     21 C           1.6178    0.6654   20.9280 C.ar    1  UNL1        0.0001
     22 C           0.7386    1.0193   22.0906 C.ar    1  UNL1        0.0045
     23 C          -0.2670    1.0610   27.1231 C.3     1  UNL1        0.1109
     24 N           0.6121    0.7071   25.9604 N.am    1  UNL1       -0.2992
     25 C           0.4262    1.3978   24.6420 C.2     1  UNL1        0.2459
     26 O          -0.6390    2.4425   24.4862 O.2     1  UNL1       -0.2701
     27 H           1.3112    0.0215   26.0627 H       1  UNL1        0.1498
@<TRIPOS>BOND
     1    23    24    1
     2    24    25   am
     3    25    26    2
     4    25    17    1
     5    17    18   ar
     6    18    19   ar
     7    19    20   ar
     8    20     1    1
     9     1     2    2
    10     2     3    1
    11     3     4    1
    12     4     5    1
    13     5     6    1
    14     6     7    1
    15     7     8    1
    16     3     9    1
    17     9    10    1
    18    10    11   ar
    19    11    12   ar
    20    12    13   ar
    21    13    14   ar
    22    14    15   ar
    23    20    21   ar
    24    21    22   ar
    25    22    17   ar
    26    15     1    1
    27     8     3    1
    28    15    10   ar
    29    24    27    1
    30     6    16    1
@<TRIPOS>MOLECULE
*****
 27 30 0 0 0
SMALL
GASTEIGER

@<TRIPOS>ATOM
      1 C          -1.5957    3.0863   26.1237 C.2     1  UNL1        0.0020
      2 C          -2.8724    3.8123   26.4293 C.2     1  UNL1        0.0130
      3 C          -3.6959    4.3835   25.3134 C.3     1  UNL1        0.1542
      4 C          -4.1489    4.5382   26.7349 C.3     1  UNL1        0.0614
      5 C          -5.4254    5.2641   27.0405 C.3     1  UNL1        0.0725
      6 N          -6.2490    5.8354   25.9245 N.3     1  UNL1       -0.2972
      7 C          -5.7960    5.6807   24.5030 C.3     1  UNL1        0.0725
      8 C          -4.5195    4.9548   24.1974 C.3     1  UNL1        0.0614
      9 O          -3.2429    4.2288   23.8918 O.3     1  UNL1       -0.4785
     10 C          -1.9663    3.5029   23.5862 C.ar    1  UNL1        0.1386
     11 C          -1.5133    3.3482   22.1646 C.ar    1  UNL1        0.0369
     12 C          -0.2367    2.6223   21.8590 C.ar    1  UNL1        0.0031
     13 C           0.5868    2.0510   22.9750 C.ar    1  UNL1        0.0002
     14 C           0.1338    2.2057   24.3965 C.ar    1  UNL1        0.0030
     15 C          -1.1428    2.9317   24.7022 C.ar    1  UNL1        0.0338
     16 H          -6.3293    6.8368   26.1006 H       1  UNL1        0.1233
     17 C           0.8750    1.3725   29.4716 C.ar    1  UNL1        0.0534
     18 C          -0.1253    0.5103   28.7603 C.ar    1  UNL1        0.0045
     19 C          -0.9488    1.0815   27.6443 C.ar    1  UNL1        0.0001
     20 C          -0.7722    2.5150   27.2397 C.ar    1  UNL1       -0.0001
     21 C           0.2281    3.3774   27.9510 C.ar    1  UNL1        0.0001
     22 C           1.0517    2.8061   29.0670 C.ar    1  UNL1        0.0045
     23 C           2.9798    1.1134   32.8261 C.3     1  UNL1        0.1109
     24 N           2.1562    1.6846   31.7101 N.am    1  UNL1       -0.2992
     25 C           1.6985    0.8013   30.5876 C.2     1  UNL1        0.2459
     26 O           2.0644   -0.6535   30.5810 O.2     1  UNL1       -0.2701
     27 H           1.9161    2.6394   31.7144 H       1  UNL1        0.1498
@<TRIPOS>BOND
     1    23    24    1
     2    24    25   am
     3    25    26    2
     4    25    17    1
     5    17    18   ar
     6    18    19   ar
     7    19    20   ar
     8    20     1    1
     9     1     2    2
    10     2     3    1
    11     3     4    1
    12     4     5    1
    13     5     6    1
    14     6     7    1
    15     7     8    1
    16     3     9    1
    17     9    10    1
    18    10    11   ar
    19    11    12   ar
    20    12    13   ar
    21    13    14   ar
    22    14    15   ar
    23    20    21   ar
    24    21    22   ar
    25    22    17   ar
    26    15     1    1
    27     8     3    1
    28    15    10   ar
    29    24    27    1
    30     6    16    1
@<TRIPOS>MOLECULE
*****
 27 30 0 0 0
SMALL
GASTEIGER

@<TRIPOS>ATOM
      1 C           2.8551   -0.1630   21.6915 C.2     1  UNL1        0.0020
      2 C           2.9819    0.2035   23.1405 C.2     1  UNL1        0.0130
      3 C           3.6136   -0.7566   24.1044 C.3     1  UNL1        0.1542
      4 C           3.1087    0.5699   24.5895 C.3     1  UNL1        0.0614
      5 C           3.2355    0.9363   26.0385 C.3     1  UNL1        0.0725
      6 N           3.8672   -0.0238   27.0024 N.3     1  UNL1       -0.2972
      7 C           4.3722   -1.3503   26.5173 C.3     1  UNL1        0.0725
      8 C           4.2454   -1.7167   25.0683 C.3     1  UNL1        0.0614
      9 O           4.1186   -2.0832   23.6193 O.3     1  UNL1       -0.4785
     10 C           3.9918   -2.4496   22.1703 C.ar    1  UNL1        0.1386
     11 C           4.4967   -3.7762   21.6851 C.ar    1  UNL1        0.0369
     12 C           4.3699   -4.1425   20.2361 C.ar    1  UNL1        0.0031
     13 C           3.7382   -3.1824   19.2722 C.ar    1  UNL1        0.0002
     14 C           3.2332   -1.8559   19.7573 C.ar    1  UNL1        0.0030
     15 C           3.3600   -1.4895   21.2064 C.ar    1  UNL1        0.0338
     16 H           3.1714   -0.2190   27.7223 H       1  UNL1        0.1233
     17 C           0.9598    2.7173   18.7998 C.ar    1  UNL1        0.0534
     18 C           0.1012    1.7802   19.5962 C.ar    1  UNL1        0.0045
     19 C           0.7329    0.8200   20.5601 C.ar    1  UNL1        0.0001
     20 C           2.2233    0.7971   20.7276 C.ar    1  UNL1       -0.0001
     21 C           3.0821    1.7344   19.9311 C.ar    1  UNL1        0.0001
     22 C           2.4503    2.6945   18.9673 C.ar    1  UNL1        0.0045
     23 C          -1.5710    4.2630   16.1625 C.3     1  UNL1        0.1109
     24 N          -0.9393    3.3029   17.1264 N.am    1  UNL1       -0.2992
     25 C           0.3281    3.6775   17.8359 C.2     1  UNL1        0.2459
     26 O           0.9637    5.0122   17.5816 O.2     1  UNL1       -0.2701
     27 H          -1.3565    2.4269   17.2933 H       1  UNL1        0.1498
@<TRIPOS>BOND
     1    23    24    1
     2    24    25   am
     3    25    26    2
     4    25    17    1
     5    17    18   ar
     6    18    19   ar
     7    19    20   ar
     8    20     1    1
     9     1     2    2
    10     2     3    1
    11     3     4    1
    12     4     5    1
    13     5     6    1
    14     6     7    1
    15     7     8    1
    16     3     9    1
    17     9    10    1
    18    10    11   ar
    19    11    12   ar
    20    12    13   ar
    21    13    14   ar
    22    14    15   ar
    23    20    21   ar
    24    21    22   ar
    25    22    17   ar
    26    15     1    1
    27     8     3    1
    28    15    10   ar
    29    24    27    1
    30     6    16    1
