@<TRIPOS>MOLECULE
*****
 33 36 0 0 0
SMALL
GASTEIGER

@<TRIPOS>ATOM
      1 C           7.2887   -4.2118   26.5131 C.2     1  UNL1        0.2818
      2 O           8.7400   -4.0234   26.8418 O.2     1  UNL1       -0.2668
      3 N           6.2942   -4.4400   27.6126 N.am    1  UNL1       -0.2986
      4 H           5.3416   -4.5637   27.3968 H       1  UNL1        0.1498
      5 C           7.3706   -5.0097   23.9632 C.ar    1  UNL1        0.1010
      6 N           6.6277   -4.6430   22.7127 N.ar    1  UNL1       -0.2125
      7 C           5.6299   -3.5788   23.0616 C.ar    1  UNL1        0.2296
      8 O           5.7560   -3.2877   24.5276 O.2     1  UNL1       -0.4303
      9 C           6.8318   -4.1721   25.0849 C.ar    1  UNL1        0.2135
     10 C           4.6738   -2.9210   22.1111 C.ar    1  UNL1        0.0536
     11 C           3.8633   -1.7411   22.5593 C.ar    1  UNL1        0.0046
     12 C           2.9072   -1.0835   21.6089 C.ar    1  UNL1        0.0002
     13 C           2.7616   -1.6057   20.2103 C.ar    1  UNL1        0.0000
     14 C           3.5721   -2.7856   19.7621 C.ar    1  UNL1        0.0002
     15 C           4.5282   -3.4433   20.7125 C.ar    1  UNL1        0.0046
     16 C           8.4608   -6.0342   24.0728 C.3     1  UNL1        0.0492
     17 C           7.9205   -7.7663   25.9323 C.3     1  UNL1        0.0004
     18 C           8.1315   -7.4387   24.4838 C.3     1  UNL1        0.0064
     19 C           6.7510   -4.4798   29.0408 C.3     1  UNL1        0.0879
     20 C           6.8914   -5.7957   29.7469 C.3     1  UNL1        0.0227
     21 C           7.0675   -3.2037   29.7627 C.3     1  UNL1        0.0919
     22 N           5.9646   -2.2537   30.1251 N.3     1  UNL1       -0.2684
     23 C           5.4329   -2.2216   31.5273 C.3     1  UNL1        0.0939
     24 C           4.3301   -1.2716   31.8897 C.3     1  UNL1        0.1109
     25 N           3.7589   -0.3537   30.8497 N.pl3   1  UNL1       -0.2753
     26 C           4.2906   -0.3859   29.4475 C.3     1  UNL1        0.1109
     27 C           5.3934   -1.3358   29.0851 C.3     1  UNL1        0.0939
     28 C           2.6561    0.5962   31.2121 C.ar    1  UNL1        0.2203
     29 N           1.5114    0.8122   30.2669 N.ar    1  UNL1       -0.2121
     30 C           0.4086    1.7622   30.6294 C.ar    1  UNL1        0.1034
     31 C           0.4504    2.4961   31.9368 C.ar    1  UNL1        0.0414
     32 C           1.5950    2.2802   32.8819 C.ar    1  UNL1        0.1034
     33 N           2.6979    1.3302   32.5195 N.ar    1  UNL1       -0.2121
@<TRIPOS>BOND
     1    17    18    1
     2    18    16    1
     3    16     5    1
     4     5     6   ar
     5     6     7   ar
     6     7    10    1
     7    10    11   ar
     8    11    12   ar
     9    12    13   ar
    10    13    14   ar
    11    14    15   ar
    12     7     8   ar
    13     8     9   ar
    14     9     1    1
    15     1     2    2
    16     1     3   am
    17     3    19    1
    18    19    20    1
    19    19    21    1
    20    21    22    1
    21    22    23    1
    22    23    24    1
    23    24    25    1
    24    25    28    1
    25    28    29   ar
    26    29    30   ar
    27    30    31   ar
    28    31    32   ar
    29    32    33   ar
    30    25    26    1
    31    26    27    1
    32     9     5   ar
    33    27    22    1
    34    15    10   ar
    35    33    28   ar
    36     3     4    1
@<TRIPOS>MOLECULE
*****
 33 36 0 0 0
SMALL
GASTEIGER

@<TRIPOS>ATOM
      1 C           5.9401   -3.6978   21.7548 C.2     1  UNL1        0.2818
      2 O           7.0319   -3.5654   20.7348 O.2     1  UNL1       -0.2668
      3 N           4.5055   -3.5548   21.3407 N.am    1  UNL1       -0.2986
      4 H           3.7889   -3.6417   22.0101 H       1  UNL1        0.1498
      5 C           6.0958   -3.0268   24.3376 C.ar    1  UNL1        0.1010
      6 N           6.5702   -3.7121   25.5847 N.ar    1  UNL1       -0.2125
      7 C           7.0504   -5.0821   25.2068 C.ar    1  UNL1        0.2296
      8 O           6.8728   -5.2434   23.7262 O.2     1  UNL1       -0.4303
      9 C           6.2828   -3.9733   23.1889 C.ar    1  UNL1        0.2135
     10 C           7.6100   -6.1101   26.1450 C.ar    1  UNL1        0.0536
     11 C           8.1120   -7.4187   25.6107 C.ar    1  UNL1        0.0046
     12 C           8.6716   -8.4467   26.5489 C.ar    1  UNL1        0.0002
     13 C           8.7290   -8.1661   28.0212 C.ar    1  UNL1        0.0000
     14 C           8.2270   -6.8575   28.5555 C.ar    1  UNL1        0.0002
     15 C           7.6674   -5.8295   27.6174 C.ar    1  UNL1        0.0046
     16 C           5.5332   -1.6389   24.2538 C.3     1  UNL1        0.0492
     17 C           3.1976   -0.7490   23.5446 C.3     1  UNL1        0.0004
     18 C           4.0861   -1.3961   24.5652 C.3     1  UNL1        0.0064
     19 C           4.1627   -3.2793   19.9066 C.3     1  UNL1        0.0879
     20 C           3.5974   -4.3713   19.0475 C.3     1  UNL1        0.0227
     21 C           4.3853   -1.9120   19.3316 C.3     1  UNL1        0.0919
     22 N           3.2807   -0.8975   19.3601 N.3     1  UNL1       -0.2684
     23 C           2.0112   -1.1918   20.1028 C.3     1  UNL1        0.0939
     24 C           0.9066   -0.1773   20.1312 C.3     1  UNL1        0.1109
     25 N           1.0716    1.1315   19.4170 N.pl3   1  UNL1       -0.2753
     26 C           2.3412    1.4257   18.6744 C.3     1  UNL1        0.1109
     27 C           3.4458    0.4112   18.6459 C.3     1  UNL1        0.0939
     28 C          -0.0329    2.1459   19.4455 C.ar    1  UNL1        0.2203
     29 N          -0.1950    3.1104   18.3080 N.ar    1  UNL1       -0.2121
     30 C          -1.2996    4.1248   18.3366 C.ar    1  UNL1        0.1034
     31 C          -2.2420    4.1748   19.5025 C.ar    1  UNL1        0.0414
     32 C          -2.0799    3.2104   20.6399 C.ar    1  UNL1        0.1034
     33 N          -0.9753    2.1960   20.6114 N.ar    1  UNL1       -0.2121
@<TRIPOS>BOND
     1    17    18    1
     2    18    16    1
     3    16     5    1
     4     5     6   ar
     5     6     7   ar
     6     7    10    1
     7    10    11   ar
     8    11    12   ar
     9    12    13   ar
    10    13    14   ar
    11    14    15   ar
    12     7     8   ar
    13     8     9   ar
    14     9     1    1
    15     1     2    2
    16     1     3   am
    17     3    19    1
    18    19    20    1
    19    19    21    1
    20    21    22    1
    21    22    23    1
    22    23    24    1
    23    24    25    1
    24    25    28    1
    25    28    29   ar
    26    29    30   ar
    27    30    31   ar
    28    31    32   ar
    29    32    33   ar
    30    25    26    1
    31    26    27    1
    32     9     5   ar
    33    27    22    1
    34    15    10   ar
    35    33    28   ar
    36     3     4    1
@<TRIPOS>MOLECULE
*****
 33 36 0 0 0
SMALL
GASTEIGER

@<TRIPOS>ATOM
      1 C           2.1943    0.7699   25.7682 C.2     1  UNL1        0.2818
      2 O           2.9456    1.8728   26.4531 O.2     1  UNL1       -0.2668
      3 N           0.7020    0.6880   25.8947 N.am    1  UNL1       -0.2986
      4 H           0.2088   -0.0359   25.4452 H       1  UNL1        0.1498
      5 C           3.9511   -1.2239   25.4785 C.ar    1  UNL1        0.1010
      6 N           4.4343   -2.0525   24.3253 N.ar    1  UNL1       -0.2125
      7 C           3.7174   -1.5918   23.0908 C.ar    1  UNL1        0.2296
      8 O           2.7910   -0.4784   23.4811 O.2     1  UNL1       -0.4303
      9 C           2.9354   -0.2511   24.9567 C.ar    1  UNL1        0.2135
     10 C           3.8956   -2.1470   21.7087 C.ar    1  UNL1        0.0536
     11 C           4.6082   -3.4519   21.5108 C.ar    1  UNL1        0.0046
     12 C           4.7863   -4.0071   20.1288 C.ar    1  UNL1        0.0002
     13 C           4.2518   -3.2572   18.9447 C.ar    1  UNL1        0.0000
     14 C           3.5392   -1.9523   19.1426 C.ar    1  UNL1        0.0002
     15 C           3.3611   -1.3972   20.5246 C.ar    1  UNL1        0.0046
     16 C           4.4039   -1.3466   26.9032 C.3     1  UNL1        0.0492
     17 C           6.2526    0.4272   26.4719 C.3     1  UNL1        0.0004
     18 C           5.5851   -0.5577   27.3853 C.3     1  UNL1        0.0064
     19 C          -0.0391    1.7089   26.7062 C.3     1  UNL1        0.0879
     20 C          -0.3134    3.0676   26.1327 C.3     1  UNL1        0.0227
     21 C          -0.5059    1.3712   28.0910 C.3     1  UNL1        0.0919
     22 N           0.4935    1.0393   29.1592 N.3     1  UNL1       -0.2684
     23 C           1.2687   -0.2429   29.0887 C.3     1  UNL1        0.0939
     24 C           2.2681   -0.5748   30.1569 C.3     1  UNL1        0.1109
     25 N           2.4923    0.3756   31.2957 N.pl3   1  UNL1       -0.2753
     26 C           1.7170    1.6577   31.3662 C.3     1  UNL1        0.1109
     27 C           0.7176    1.9897   30.2980 C.3     1  UNL1        0.0939
     28 C           3.4917    0.0436   32.3639 C.ar    1  UNL1        0.2203
     29 N           3.6808   -1.3798   32.7979 N.ar    1  UNL1       -0.2121
     30 C           4.6802   -1.7116   33.8661 C.ar    1  UNL1        0.1034
     31 C           5.4904   -0.6202   34.5002 C.ar    1  UNL1        0.0414
     32 C           5.3013    0.8032   34.0663 C.ar    1  UNL1        0.1034
     33 N           4.3019    1.1351   32.9981 N.ar    1  UNL1       -0.2121
@<TRIPOS>BOND
     1    17    18    1
     2    18    16    1
     3    16     5    1
     4     5     6   ar
     5     6     7   ar
     6     7    10    1
     7    10    11   ar
     8    11    12   ar
     9    12    13   ar
    10    13    14   ar
    11    14    15   ar
    12     7     8   ar
    13     8     9   ar
    14     9     1    1
    15     1     2    2
    16     1     3   am
    17     3    19    1
    18    19    20    1
    19    19    21    1
    20    21    22    1
    21    22    23    1
    22    23    24    1
    23    24    25    1
    24    25    28    1
    25    28    29   ar
    26    29    30   ar
    27    30    31   ar
    28    31    32   ar
    29    32    33   ar
    30    25    26    1
    31    26    27    1
    32     9     5   ar
    33    27    22    1
    34    15    10   ar
    35    33    28   ar
    36     3     4    1
@<TRIPOS>MOLECULE
*****
 33 36 0 0 0
SMALL
GASTEIGER

@<TRIPOS>ATOM
      1 C         -11.6152   -2.4463   17.7786 C.2     1  UNL1        0.2818
      2 O         -10.7444   -2.3924   18.9988 O.2     1  UNL1       -0.2668
      3 N         -11.2750   -3.3801   16.6551 N.am    1  UNL1       -0.2986
      4 H         -11.8465   -3.4155   15.8542 H       1  UNL1        0.1498
      5 C         -14.2353   -1.9671   18.0041 C.ar    1  UNL1        0.1010
      6 N         -15.1205   -0.7796   17.7673 N.ar    1  UNL1       -0.2125
      7 C         -14.2585    0.3551   17.2987 C.ar    1  UNL1        0.2296
      8 O         -12.8405   -0.1312   17.2459 O.2     1  UNL1       -0.4303
      9 C         -12.8261   -1.5663   17.6818 C.ar    1  UNL1        0.2135
     10 C         -14.7316    1.7340   16.9450 C.ar    1  UNL1        0.0536
     11 C         -13.7497    2.8646   16.8588 C.ar    1  UNL1        0.0046
     12 C         -14.2228    4.2434   16.5051 C.ar    1  UNL1        0.0002
     13 C         -15.6777    4.4915   16.2376 C.ar    1  UNL1        0.0000
     14 C         -16.6596    3.3608   16.3237 C.ar    1  UNL1        0.0002
     15 C         -16.1865    1.9821   16.6774 C.ar    1  UNL1        0.0046
     16 C         -14.6808   -3.3181   18.4797 C.3     1  UNL1        0.0492
     17 C         -13.8021   -3.1969   20.9217 C.3     1  UNL1        0.0004
     18 C         -14.8779   -3.5699   19.9452 C.3     1  UNL1        0.0064
     19 C         -10.0641   -4.2601   16.7518 C.3     1  UNL1        0.0879
     20 C          -8.8002   -3.8775   16.0404 C.3     1  UNL1        0.0227
     21 C         -10.1171   -5.5226   17.5600 C.3     1  UNL1        0.0919
     22 N         -11.3989   -6.2950   17.6611 N.3     1  UNL1       -0.2684
     23 C         -12.2698   -6.1477   18.8734 C.3     1  UNL1        0.0939
     24 C         -13.5517   -6.9201   18.9745 C.3     1  UNL1        0.1109
     25 N         -13.9626   -7.8400   17.8631 N.pl3   1  UNL1       -0.2753
     26 C         -13.0917   -7.9874   16.6508 C.3     1  UNL1        0.1109
     27 C         -11.8099   -7.2149   16.5497 C.3     1  UNL1        0.0939
     28 C         -15.2445   -8.6125   17.9642 C.ar    1  UNL1        0.2203
     29 N         -16.5548   -7.9275   17.7111 N.ar    1  UNL1       -0.2121
     30 C         -17.8366   -8.7001   17.8122 C.ar    1  UNL1        0.1034
     31 C         -17.8081  -10.1573   18.1663 C.ar    1  UNL1        0.0414
     32 C         -16.4978  -10.8422   18.4194 C.ar    1  UNL1        0.1034
     33 N         -15.2159  -10.0697   18.3183 N.ar    1  UNL1       -0.2121
@<TRIPOS>BOND
     1    17    18    1
     2    18    16    1
     3    16     5    1
     4     5     6   ar
     5     6     7   ar
     6     7    10    1
     7    10    11   ar
     8    11    12   ar
     9    12    13   ar
    10    13    14   ar
    11    14    15   ar
    12     7     8   ar
    13     8     9   ar
    14     9     1    1
    15     1     2    2
    16     1     3   am
    17     3    19    1
    18    19    20    1
    19    19    21    1
    20    21    22    1
    21    22    23    1
    22    23    24    1
    23    24    25    1
    24    25    28    1
    25    28    29   ar
    26    29    30   ar
    27    30    31   ar
    28    31    32   ar
    29    32    33   ar
    30    25    26    1
    31    26    27    1
    32     9     5   ar
    33    27    22    1
    34    15    10   ar
    35    33    28   ar
    36     3     4    1
@<TRIPOS>MOLECULE
*****
 33 36 0 0 0
SMALL
GASTEIGER

@<TRIPOS>ATOM
      1 C           1.5001    1.4740   25.1617 C.2     1  UNL1        0.2818
      2 O           2.5727    1.9163   26.1124 O.2     1  UNL1       -0.2668
      3 N           0.0567    1.5875   25.5540 N.am    1  UNL1       -0.2986
      4 H          -0.6473    1.2972   24.9300 H       1  UNL1        0.1498
      5 C           1.6246    1.5763   22.4935 C.ar    1  UNL1        0.1010
      6 N           2.1545    0.6713   21.4210 N.ar    1  UNL1       -0.2125
      7 C           2.7281   -0.5462   22.0834 C.ar    1  UNL1        0.2296
      8 O           2.5527   -0.3937   23.5652 O.2     1  UNL1       -0.4303
      9 C           1.8708    0.9180   23.8188 C.ar    1  UNL1        0.2135
     10 C           3.3651   -1.7116   21.3862 C.ar    1  UNL1        0.0536
     11 C           4.2795   -2.6294   22.1422 C.ar    1  UNL1        0.0046
     12 C           4.9165   -3.7948   21.4450 C.ar    1  UNL1        0.0002
     13 C           4.6392   -4.0423   19.9918 C.ar    1  UNL1        0.0000
     14 C           3.7249   -3.1245   19.2358 C.ar    1  UNL1        0.0002
     15 C           3.0878   -1.9592   19.9330 C.ar    1  UNL1        0.0046
     16 C           0.9646    2.9060   22.2786 C.3     1  UNL1        0.0492
     17 C          -1.2555    3.9023   23.1888 C.3     1  UNL1        0.0004
     18 C          -0.5316    3.0018   22.2322 C.3     1  UNL1        0.0064
     19 C          -0.3140    2.1435   26.8969 C.3     1  UNL1        0.0879
     20 C          -0.3504    3.6278   27.1102 C.3     1  UNL1        0.0227
     21 C          -0.6483    1.2151   28.0266 C.3     1  UNL1        0.0919
     22 N           0.3632    0.9470   29.1014 N.3     1  UNL1       -0.2684
     23 C           0.4604    1.8632   30.2851 C.3     1  UNL1        0.0939
     24 C           1.4718    1.5951   31.3599 C.3     1  UNL1        0.1109
     25 N           2.3860    0.4108   31.2510 N.pl3   1  UNL1       -0.2753
     26 C           2.2888   -0.5053   30.0673 C.3     1  UNL1        0.1109
     27 C           1.2774   -0.2372   28.9925 C.3     1  UNL1        0.0939
     28 C           3.3975    0.1428   32.3258 C.ar    1  UNL1        0.2203
     29 N           4.1144    1.2850   32.9827 N.ar    1  UNL1       -0.2121
     30 C           5.1258    1.0169   34.0575 C.ar    1  UNL1        0.1034
     31 C           5.4203   -0.3933   34.4753 C.ar    1  UNL1        0.0414
     32 C           4.7034   -1.5354   33.8184 C.ar    1  UNL1        0.1034
     33 N           3.6919   -1.2674   32.7436 N.ar    1  UNL1       -0.2121
@<TRIPOS>BOND
     1    17    18    1
     2    18    16    1
     3    16     5    1
     4     5     6   ar
     5     6     7   ar
     6     7    10    1
     7    10    11   ar
     8    11    12   ar
     9    12    13   ar
    10    13    14   ar
    11    14    15   ar
    12     7     8   ar
    13     8     9   ar
    14     9     1    1
    15     1     2    2
    16     1     3   am
    17     3    19    1
    18    19    20    1
    19    19    21    1
    20    21    22    1
    21    22    23    1
    22    23    24    1
    23    24    25    1
    24    25    28    1
    25    28    29   ar
    26    29    30   ar
    27    30    31   ar
    28    31    32   ar
    29    32    33   ar
    30    25    26    1
    31    26    27    1
    32     9     5   ar
    33    27    22    1
    34    15    10   ar
    35    33    28   ar
    36     3     4    1
@<TRIPOS>MOLECULE
*****
 33 36 0 0 0
SMALL
GASTEIGER

@<TRIPOS>ATOM
      1 C           2.1570    0.9618   25.3776 C.2     1  UNL1        0.2818
      2 O           2.7214    2.3512   25.4099 O.2     1  UNL1       -0.2668
      3 N           0.8537    0.6657   26.0586 N.am    1  UNL1       -0.2986
      4 H           0.4832   -0.2461   26.0374 H       1  UNL1        0.1498
      5 C           3.8391   -1.1139   25.2929 C.ar    1  UNL1        0.1010
      6 N           4.3474   -2.0238   24.2143 N.ar    1  UNL1       -0.2125
      7 C           3.7182   -1.6039   22.9189 C.ar    1  UNL1        0.2296
      8 O           2.8211   -0.4344   23.1971 O.2     1  UNL1       -0.4303
      9 C           2.8958   -0.1315   24.6643 C.ar    1  UNL1        0.2135
     10 C           3.9462   -2.2416   21.5805 C.ar    1  UNL1        0.0536
     11 C           3.4830   -1.5511   20.3320 C.ar    1  UNL1        0.0046
     12 C           3.7110   -2.1888   18.9937 C.ar    1  UNL1        0.0002
     13 C           4.4021   -3.5170   18.9037 C.ar    1  UNL1        0.0000
     14 C           4.8652   -4.2076   20.1521 C.ar    1  UNL1        0.0002
     15 C           4.6373   -3.5699   21.4905 C.ar    1  UNL1        0.0046
     16 C           4.2092   -1.1754   26.7453 C.3     1  UNL1        0.0492
     17 C           5.8405   -2.8429   27.8890 C.3     1  UNL1        0.0004
     18 C           5.6017   -1.5603   27.1488 C.3     1  UNL1        0.0064
     19 C           0.1148    1.7591   26.7719 C.3     1  UNL1        0.0879
     20 C          -1.0261    2.4588   26.0947 C.3     1  UNL1        0.0227
     21 C           0.5170    2.1525   28.1623 C.3     1  UNL1        0.0919
     22 N           1.6077    1.4027   28.8681 N.3     1  UNL1       -0.2684
     23 C           2.9943    1.9720   28.9240 C.3     1  UNL1        0.0939
     24 C           4.0850    1.2221   29.6298 C.3     1  UNL1        0.1109
     25 N           3.7890   -0.0971   30.2797 N.pl3   1  UNL1       -0.2753
     26 C           2.4024   -0.6663   30.2238 C.3     1  UNL1        0.1109
     27 C           1.3117    0.0835   29.5180 C.3     1  UNL1        0.0939
     28 C           4.8797   -0.8469   30.9855 C.ar    1  UNL1        0.2203
     29 N           6.3167   -0.5523   30.6718 N.ar    1  UNL1       -0.2121
     30 C           7.4074   -1.3022   31.3776 C.ar    1  UNL1        0.1034
     31 C           7.0611   -2.3466   32.3970 C.ar    1  UNL1        0.0414
     32 C           5.6241   -2.6411   32.7107 C.ar    1  UNL1        0.1034
     33 N           4.5334   -1.8913   32.0049 N.ar    1  UNL1       -0.2121
@<TRIPOS>BOND
     1    17    18    1
     2    18    16    1
     3    16     5    1
     4     5     6   ar
     5     6     7   ar
     6     7    10    1
     7    10    11   ar
     8    11    12   ar
     9    12    13   ar
    10    13    14   ar
    11    14    15   ar
    12     7     8   ar
    13     8     9   ar
    14     9     1    1
    15     1     2    2
    16     1     3   am
    17     3    19    1
    18    19    20    1
    19    19    21    1
    20    21    22    1
    21    22    23    1
    22    23    24    1
    23    24    25    1
    24    25    28    1
    25    28    29   ar
    26    29    30   ar
    27    30    31   ar
    28    31    32   ar
    29    32    33   ar
    30    25    26    1
    31    26    27    1
    32     9     5   ar
    33    27    22    1
    34    15    10   ar
    35    33    28   ar
    36     3     4    1
@<TRIPOS>MOLECULE
*****
 33 36 0 0 0
SMALL
GASTEIGER

@<TRIPOS>ATOM
      1 C          -1.6066    3.9773   22.7899 C.2     1  UNL1        0.2818
      2 O          -1.5288    5.4335   22.4385 O.2     1  UNL1       -0.2668
      3 N          -1.6000    2.9425   21.7041 N.am    1  UNL1       -0.2986
      4 H          -1.6512    1.9867   21.9346 H       1  UNL1        0.1498
      5 C          -2.8727    3.7420   25.1323 C.ar    1  UNL1        0.1010
      6 N          -2.5207    3.1756   26.4760 N.ar    1  UNL1       -0.2125
      7 C          -1.1217    2.6397   26.4011 C.ar    1  UNL1        0.2296
      8 O          -0.6090    2.8748   25.0112 O.2     1  UNL1       -0.4303
      9 C          -1.6911    3.5560   24.2270 C.ar    1  UNL1        0.2135
     10 C          -0.3677    1.9838   27.5198 C.ar    1  UNL1        0.0536
     11 C           0.6729    2.7550   28.2763 C.ar    1  UNL1        0.0046
     12 C           1.4268    2.0991   29.3949 C.ar    1  UNL1        0.0002
     13 C           1.1400    0.6720   29.7571 C.ar    1  UNL1        0.0000
     14 C           0.0994   -0.0992   29.0006 C.ar    1  UNL1        0.0002
     15 C          -0.6545    0.5567   27.8820 C.ar    1  UNL1        0.0046
     16 C          -4.1771    4.3819   24.7595 C.3     1  UNL1        0.0492
     17 C          -5.4537    3.6304   22.6251 C.3     1  UNL1        0.0004
     18 C          -5.2547    3.5650   24.1104 C.3     1  UNL1        0.0064
     19 C          -1.5155    3.3638   20.2669 C.3     1  UNL1        0.0879
     20 C          -2.7689    3.6516   19.4948 C.3     1  UNL1        0.0227
     21 C          -0.1777    3.4974   19.6020 C.3     1  UNL1        0.0919
     22 N           0.7071    2.2958   19.4492 N.3     1  UNL1       -0.2684
     23 C           0.2562    0.9617   19.9658 C.3     1  UNL1        0.0939
     24 C           1.1410   -0.2398   19.8130 C.3     1  UNL1        0.1109
     25 N           2.4768   -0.1073   19.1436 N.pl3   1  UNL1       -0.2753
     26 C           2.9278    1.2267   18.6269 C.3     1  UNL1        0.1109
     27 C           2.0430    2.4283   18.7797 C.3     1  UNL1        0.0939
     28 C           3.3617   -1.3089   18.9908 C.ar    1  UNL1        0.2203
     29 N           4.5529   -1.2523   18.0808 N.ar    1  UNL1       -0.2121
     30 C           5.4376   -2.4539   17.9281 C.ar    1  UNL1        0.1034
     31 C           5.1313   -3.7120   18.6852 C.ar    1  UNL1        0.0414
     32 C           3.9401   -3.7685   19.5951 C.ar    1  UNL1        0.1034
     33 N           3.0553   -2.5670   19.7479 N.ar    1  UNL1       -0.2121
@<TRIPOS>BOND
     1    17    18    1
     2    18    16    1
     3    16     5    1
     4     5     6   ar
     5     6     7   ar
     6     7    10    1
     7    10    11   ar
     8    11    12   ar
     9    12    13   ar
    10    13    14   ar
    11    14    15   ar
    12     7     8   ar
    13     8     9   ar
    14     9     1    1
    15     1     2    2
    16     1     3   am
    17     3    19    1
    18    19    20    1
    19    19    21    1
    20    21    22    1
    21    22    23    1
    22    23    24    1
    23    24    25    1
    24    25    28    1
    25    28    29   ar
    26    29    30   ar
    27    30    31   ar
    28    31    32   ar
    29    32    33   ar
    30    25    26    1
    31    26    27    1
    32     9     5   ar
    33    27    22    1
    34    15    10   ar
    35    33    28   ar
    36     3     4    1
@<TRIPOS>MOLECULE
*****
 33 36 0 0 0
SMALL
GASTEIGER

@<TRIPOS>ATOM
      1 C           4.8168   -2.2065   19.9014 C.2     1  UNL1        0.2818
      2 O           4.3846   -3.1958   18.8600 O.2     1  UNL1       -0.2668
      3 N           4.9623   -0.7570   19.5443 N.am    1  UNL1       -0.2986
      4 H           5.2460   -0.1077   20.2278 H       1  UNL1        0.1498
      5 C           4.3845   -2.2227   22.5392 C.ar    1  UNL1        0.1010
      6 N           4.9963   -2.9335   23.7099 N.ar    1  UNL1       -0.2125
      7 C           6.0935   -3.8168   23.1942 C.ar    1  UNL1        0.2296
      8 O           6.1598   -3.6520   21.7048 O.2     1  UNL1       -0.4303
      9 C           5.1036   -2.6669   21.3000 C.ar    1  UNL1        0.2135
     10 C           6.9704   -4.7085   24.0225 C.ar    1  UNL1        0.0536
     11 C           7.9904   -5.5847   23.3578 C.ar    1  UNL1        0.0046
     12 C           8.8672   -6.4763   24.1861 C.ar    1  UNL1        0.0002
     13 C           8.7241   -6.4916   25.6792 C.ar    1  UNL1        0.0000
     14 C           7.7042   -5.6154   26.3440 C.ar    1  UNL1        0.0002
     15 C           6.8273   -4.7238   25.5156 C.ar    1  UNL1        0.0046
     16 C           3.2525   -1.2404   22.5976 C.3     1  UNL1        0.0492
     17 C           3.4297    1.3300   22.2633 C.3     1  UNL1        0.0004
     18 C           3.4775    0.1306   23.1629 C.3     1  UNL1        0.0064
     19 C           4.6755   -0.2967   18.1457 C.3     1  UNL1        0.0879
     20 C           5.8072    0.0040   17.2082 C.3     1  UNL1        0.0227
     21 C           3.2571   -0.1371   17.6848 C.3     1  UNL1        0.0919
     22 N           2.2512    0.5342   18.5722 N.3     1  UNL1       -0.2684
     23 C           2.1246    2.0288   18.5659 C.3     1  UNL1        0.0939
     24 C           1.1187    2.7001   19.4533 C.3     1  UNL1        0.1109
     25 N           0.2393    1.8767   20.3470 N.pl3   1  UNL1       -0.2753
     26 C           0.3658    0.3821   20.3534 C.3     1  UNL1        0.1109
     27 C           1.3717   -0.2892   19.4659 C.3     1  UNL1        0.0939
     28 C          -0.7667    2.5480   21.2344 C.ar    1  UNL1        0.2203
     29 N          -0.3861    2.9518   22.6281 N.ar    1  UNL1       -0.2121
     30 C          -1.3921    3.6231   23.5154 C.ar    1  UNL1        0.1034
     31 C          -2.7785    3.8905   23.0092 C.ar    1  UNL1        0.0414
     32 C          -3.1590    3.4867   21.6156 C.ar    1  UNL1        0.1034
     33 N          -2.1530    2.8154   20.7282 N.ar    1  UNL1       -0.2121
@<TRIPOS>BOND
     1    17    18    1
     2    18    16    1
     3    16     5    1
     4     5     6   ar
     5     6     7   ar
     6     7    10    1
     7    10    11   ar
     8    11    12   ar
     9    12    13   ar
    10    13    14   ar
    11    14    15   ar
    12     7     8   ar
    13     8     9   ar
    14     9     1    1
    15     1     2    2
    16     1     3   am
    17     3    19    1
    18    19    20    1
    19    19    21    1
    20    21    22    1
    21    22    23    1
    22    23    24    1
    23    24    25    1
    24    25    28    1
    25    28    29   ar
    26    29    30   ar
    27    30    31   ar
    28    31    32   ar
    29    32    33   ar
    30    25    26    1
    31    26    27    1
    32     9     5   ar
    33    27    22    1
    34    15    10   ar
    35    33    28   ar
    36     3     4    1
@<TRIPOS>MOLECULE
*****
 33 36 0 0 0
SMALL
GASTEIGER

@<TRIPOS>ATOM
      1 C           4.1567   -1.4323   20.9178 C.2     1  UNL1        0.2818
      2 O           2.6825   -1.3636   21.1863 O.2     1  UNL1       -0.2668
      3 N           4.7918   -0.4616   19.9669 N.am    1  UNL1       -0.2986
      4 H           5.7594   -0.5066   19.7907 H       1  UNL1        0.1498
      5 C           5.6718   -3.6345   20.9361 C.ar    1  UNL1        0.1010
      6 N           6.3999   -4.4122   21.9920 N.ar    1  UNL1       -0.2125
      7 C           6.1739   -3.7301   23.3087 C.ar    1  UNL1        0.2296
      8 O           5.3061   -2.5309   23.0666 O.2     1  UNL1       -0.4303
      9 C           4.9957   -2.4717   21.6002 C.ar    1  UNL1        0.2135
     10 C           6.7198   -4.1702   24.6348 C.ar    1  UNL1        0.0536
     11 C           6.3065   -3.4593   25.8893 C.ar    1  UNL1        0.0046
     12 C           6.8524   -3.8993   27.2152 C.ar    1  UNL1        0.0002
     13 C           7.8118   -5.0502   27.2867 C.ar    1  UNL1        0.0000
     14 C           8.2251   -5.7611   26.0323 C.ar    1  UNL1        0.0002
     15 C           7.6792   -5.3210   24.7063 C.ar    1  UNL1        0.0046
     16 C           5.6274   -3.9620   19.4729 C.3     1  UNL1        0.0492
     17 C           3.1214   -4.4698   19.0124 C.3     1  UNL1        0.0004
     18 C           4.5636   -4.8759   18.9408 C.3     1  UNL1        0.0064
     19 C           3.9528    0.5778   19.2845 C.3     1  UNL1        0.0879
     20 C           3.4081    0.3188   17.9111 C.3     1  UNL1        0.0227
     21 C           3.6586    1.8762   19.9754 C.3     1  UNL1        0.0919
     22 N           2.2543    2.2049   20.3879 N.3     1  UNL1       -0.2684
     23 C           1.7818    1.8719   21.7720 C.3     1  UNL1        0.0939
     24 C           0.3775    2.2006   22.1844 C.3     1  UNL1        0.1109
     25 N          -0.5542    2.8623   21.2126 N.pl3   1  UNL1       -0.2753
     26 C          -0.0816    3.1952   19.8285 C.3     1  UNL1        0.1109
     27 C           1.3226    2.8666   19.4161 C.3     1  UNL1        0.0939
     28 C          -1.9584    3.1910   21.6251 C.ar    1  UNL1        0.2203
     29 N          -2.2151    3.8696   22.9380 N.ar    1  UNL1       -0.2121
     30 C          -3.6194    4.1983   23.3503 C.ar    1  UNL1        0.1034
     31 C          -4.7669    3.8483   22.4499 C.ar    1  UNL1        0.0414
     32 C          -4.5101    3.1697   21.1371 C.ar    1  UNL1        0.1034
     33 N          -3.1059    2.8410   20.7247 N.ar    1  UNL1       -0.2121
@<TRIPOS>BOND
     1    17    18    1
     2    18    16    1
     3    16     5    1
     4     5     6   ar
     5     6     7   ar
     6     7    10    1
     7    10    11   ar
     8    11    12   ar
     9    12    13   ar
    10    13    14   ar
    11    14    15   ar
    12     7     8   ar
    13     8     9   ar
    14     9     1    1
    15     1     2    2
    16     1     3   am
    17     3    19    1
    18    19    20    1
    19    19    21    1
    20    21    22    1
    21    22    23    1
    22    23    24    1
    23    24    25    1
    24    25    28    1
    25    28    29   ar
    26    29    30   ar
    27    30    31   ar
    28    31    32   ar
    29    32    33   ar
    30    25    26    1
    31    26    27    1
    32     9     5   ar
    33    27    22    1
    34    15    10   ar
    35    33    28   ar
    36     3     4    1
