@<TRIPOS>MOLECULE
*****
 34 38 0 0 0
SMALL
GASTEIGER

@<TRIPOS>ATOM
      1 C          -9.4865  -20.1890   22.4526 C.3     1  UNL1        0.0721
      2 C          -5.1989  -18.8477   22.1932 C.3     1  UNL1        0.0841
      3 C          -6.2938  -17.8342   22.3463 C.3     1  UNL1        0.0376
      4 C          -7.7231  -18.2812   22.4328 C.3     1  UNL1        0.0738
      5 N          -8.0573  -19.7420   22.3661 N.3     1  UNL1       -0.2726
      6 C          -6.9623  -20.7557   22.2130 C.3     1  UNL1        0.0738
      7 C          -5.5331  -20.3086   22.1265 C.3     1  UNL1        0.0376
      8 O          -3.2920  -18.0210   24.7091 O.2     1  UNL1       -0.2501
      9 C          -2.8932  -18.0207   23.2631 C.2     1  UNL1        0.3309
     10 N          -1.5479  -17.6403   22.7197 N.am    1  UNL1       -0.1647
     11 C          -1.5928  -17.7852   21.2274 C.2     1  UNL1        0.0706
     12 C          -0.5608  -17.5499   20.1646 C.3     1  UNL1        0.0705
     13 C          -0.9020  -17.7846   18.7229 C.2     1  UNL1       -0.0199
     14 C          -2.2752  -18.2546   18.3440 C.2     1  UNL1       -0.0029
     15 C          -3.3072  -18.4899   19.4068 C.2     1  UNL1        0.0156
     16 C          -2.9660  -18.2552   20.8485 C.2     1  UNL1        0.0668
     17 N          -3.7697  -18.4007   22.1067 N.am    1  UNL1       -0.2423
     18 C         -10.0995  -20.4875   23.7887 C.3     1  UNL1        0.0180
     19 C         -10.6818  -19.3767   24.6116 C.3     1  UNL1        0.0102
     20 C         -10.3884  -17.9486   24.2586 C.3     1  UNL1        0.0446
     21 C          -9.4837  -17.1308   25.1319 C.ar    1  UNL1       -0.0183
     22 C          -8.8104  -15.9097   24.5791 C.ar    1  UNL1       -0.0017
     23 C          -7.9057  -15.0919   25.4524 C.ar    1  UNL1        0.0293
     24 C          -7.6743  -15.4952   26.8784 C.ar    1  UNL1        0.1401
     25 F          -6.7696  -14.6774   27.7518 F       1  UNL1       -0.2042
     26 C          -8.3476  -16.7163   27.4313 C.ar    1  UNL1        0.0293
     27 C          -9.2523  -17.5342   26.5580 C.ar    1  UNL1       -0.0017
     28 C         -10.9998  -17.3384   23.0322 C.ar    1  UNL1       -0.0183
     29 C         -12.4332  -17.6184   22.6901 C.ar    1  UNL1       -0.0017
     30 C         -13.0444  -17.0082   21.4638 C.ar    1  UNL1        0.0293
     31 C         -12.2224  -16.1179   20.5796 C.ar    1  UNL1        0.1401
     32 F         -12.8338  -15.5077   19.3533 F       1  UNL1       -0.2042
     33 C         -10.7891  -15.8379   20.9217 C.ar    1  UNL1        0.0293
     34 C         -10.1778  -16.4482   22.1480 C.ar    1  UNL1       -0.0017
@<TRIPOS>BOND
     1     8     9    2
     2     9    10    1
     3    10    11    2
     4    11    12    1
     5    12    13    1
     6    13    14    2
     7    14    15    1
     8    15    16    2
     9    16    17    1
    10    17     2    1
    11     2     3    1
    12     3     4    1
    13     4     5    1
    14     5     1    1
    15     1    18    1
    16    18    19    1
    17    19    20    1
    18    20    21    1
    19    21    22   ar
    20    22    23   ar
    21    23    24   ar
    22    24    25    1
    23    24    26   ar
    24    26    27   ar
    25    20    28    1
    26    28    29   ar
    27    29    30   ar
    28    30    31   ar
    29    31    32    1
    30    31    33   ar
    31    33    34   ar
    32     5     6    1
    33     6     7    1
    34    17     9   am
    35     7     2    1
    36    16    11    1
    37    27    21   ar
    38    34    28   ar
@<TRIPOS>MOLECULE
*****
 34 38 0 0 0
SMALL
GASTEIGER

@<TRIPOS>ATOM
      1 C          -9.4818  -20.2472   22.5315 C.3     1  UNL1        0.0721
      2 C          -5.2092  -18.8712   22.2124 C.3     1  UNL1        0.0841
      3 C          -5.5314  -20.3353   22.1625 C.3     1  UNL1        0.0376
      4 C          -6.9555  -20.7940   22.2689 C.3     1  UNL1        0.0738
      5 N          -8.0576  -19.7885   22.4252 N.3     1  UNL1       -0.2726
      6 C          -7.7355  -18.3244   22.4750 C.3     1  UNL1        0.0738
      7 C          -6.3114  -17.8657   22.3686 C.3     1  UNL1        0.0376
      8 O          -3.2862  -17.9926   24.6983 O.2     1  UNL1       -0.2501
      9 C          -2.9011  -18.0087   23.2486 C.2     1  UNL1        0.3309
     10 N          -1.5646  -17.6237   22.6870 N.am    1  UNL1       -0.1647
     11 C          -1.6224  -17.7896   21.1974 C.2     1  UNL1        0.0706
     12 C          -0.6028  -17.5598   20.1215 C.3     1  UNL1        0.0705
     13 C          -0.9555  -17.8174   18.6866 C.2     1  UNL1       -0.0199
     14 C          -2.3279  -18.3049   18.3274 C.2     1  UNL1       -0.0029
     15 C          -3.3475  -18.5348   19.4033 C.2     1  UNL1        0.0156
     16 C          -2.9948  -18.2771   20.8382 C.2     1  UNL1        0.0668
     17 N          -3.7850  -18.4125   22.1060 N.am    1  UNL1       -0.2423
     18 C         -10.0990  -20.4707   23.8803 C.3     1  UNL1        0.0180
     19 C         -10.7689  -19.3353   24.5960 C.3     1  UNL1        0.0102
     20 C         -10.4356  -17.9187   24.2324 C.3     1  UNL1        0.0446
     21 C         -11.0197  -17.3047   22.9948 C.ar    1  UNL1       -0.0183
     22 C         -10.1767  -16.4167   22.1284 C.ar    1  UNL1       -0.0017
     23 C         -10.7608  -15.8027   20.8907 C.ar    1  UNL1        0.0293
     24 C         -12.1880  -16.0768   20.5195 C.ar    1  UNL1        0.1401
     25 F         -12.7723  -15.4628   19.2819 F       1  UNL1       -0.2042
     26 C         -13.0311  -16.9648   21.3859 C.ar    1  UNL1        0.0293
     27 C         -12.4470  -17.5788   22.6236 C.ar    1  UNL1       -0.0017
     28 C          -9.5181  -17.1161   25.1066 C.ar    1  UNL1       -0.0183
     29 C          -8.8488  -15.8883   24.5637 C.ar    1  UNL1       -0.0017
     30 C          -7.9313  -15.0858   25.4379 C.ar    1  UNL1        0.0293
     31 C          -7.6831  -15.5110   26.8548 C.ar    1  UNL1        0.1401
     32 F          -6.7656  -14.7084   27.7289 F       1  UNL1       -0.2042
     33 C          -8.3524  -16.7387   27.3976 C.ar    1  UNL1        0.0293
     34 C          -9.2699  -17.5413   26.5235 C.ar    1  UNL1       -0.0017
@<TRIPOS>BOND
     1     8     9    2
     2     9    10    1
     3    10    11    2
     4    11    12    1
     5    12    13    1
     6    13    14    2
     7    14    15    1
     8    15    16    2
     9    16    17    1
    10    17     2    1
    11     2     3    1
    12     3     4    1
    13     4     5    1
    14     5     1    1
    15     1    18    1
    16    18    19    1
    17    19    20    1
    18    20    21    1
    19    21    22   ar
    20    22    23   ar
    21    23    24   ar
    22    24    25    1
    23    24    26   ar
    24    26    27   ar
    25    20    28    1
    26    28    29   ar
    27    29    30   ar
    28    30    31   ar
    29    31    32    1
    30    31    33   ar
    31    33    34   ar
    32     5     6    1
    33     6     7    1
    34    17     9   am
    35     7     2    1
    36    16    11    1
    37    27    21   ar
    38    34    28   ar
@<TRIPOS>MOLECULE
*****
 34 38 0 0 0
SMALL
GASTEIGER

@<TRIPOS>ATOM
      1 C         -11.3682  -19.9107   23.2965 C.3     1  UNL1        0.0721
      2 C          -7.1576  -20.0317   21.7134 C.3     1  UNL1        0.0841
      3 C          -7.4542  -20.5354   23.0947 C.3     1  UNL1        0.0376
      4 C          -8.8578  -20.4950   23.6225 C.3     1  UNL1        0.0738
      5 N          -9.9647  -19.9510   22.7688 N.3     1  UNL1       -0.2726
      6 C          -9.6681  -19.4473   21.3874 C.3     1  UNL1        0.0738
      7 C          -8.2645  -19.4877   20.8597 C.3     1  UNL1        0.0376
      8 O          -6.0883  -21.8809   19.2463 O.2     1  UNL1       -0.2501
      9 C          -5.2626  -20.9220   20.0517 C.2     1  UNL1        0.3309
     10 N          -3.8004  -20.6447   19.8645 N.am    1  UNL1       -0.1647
     11 C          -3.3881  -19.6233   20.8828 C.2     1  UNL1        0.0706
     12 C          -2.0693  -18.9699   21.1720 C.3     1  UNL1        0.0705
     13 C          -1.9580  -17.9625   22.2777 C.2     1  UNL1       -0.0199
     14 C          -3.1654  -17.6085   23.0943 C.2     1  UNL1       -0.0029
     15 C          -4.4843  -18.2620   22.8051 C.2     1  UNL1        0.0156
     16 C          -4.5956  -19.2694   21.6993 C.2     1  UNL1        0.0668
     17 N          -5.7540  -20.0720   21.1857 N.am    1  UNL1       -0.2423
     18 C         -11.7490  -18.9012   24.3386 C.3     1  UNL1        0.0180
     19 C         -10.6980  -18.0252   24.9534 C.3     1  UNL1        0.0102
     20 C          -9.9803  -17.0116   24.1122 C.3     1  UNL1        0.0446
     21 C         -10.5526  -16.5938   22.7901 C.ar    1  UNL1       -0.0183
     22 C         -12.0335  -16.6573   22.5601 C.ar    1  UNL1       -0.0017
     23 C         -12.6058  -16.2395   21.2380 C.ar    1  UNL1        0.0293
     24 C         -11.6972  -15.7582   20.1459 C.ar    1  UNL1        0.1401
     25 F         -12.2694  -15.3404   18.8238 F       1  UNL1       -0.2042
     26 C         -10.2163  -15.6947   20.3759 C.ar    1  UNL1        0.0293
     27 C          -9.6440  -16.1125   21.6980 C.ar    1  UNL1       -0.0017
     28 C          -8.6904  -16.4158   24.5930 C.ar    1  UNL1       -0.0183
     29 C          -7.5859  -16.1323   23.6184 C.ar    1  UNL1       -0.0017
     30 C          -6.2960  -15.5365   24.0993 C.ar    1  UNL1        0.0293
     31 C          -6.1106  -15.2243   25.5547 C.ar    1  UNL1        0.1401
     32 F          -4.8207  -14.6285   26.0355 F       1  UNL1       -0.2042
     33 C          -7.2151  -15.5078   26.5293 C.ar    1  UNL1        0.0293
     34 C          -8.5049  -16.1035   26.0484 C.ar    1  UNL1       -0.0017
@<TRIPOS>BOND
     1     8     9    2
     2     9    10    1
     3    10    11    2
     4    11    12    1
     5    12    13    1
     6    13    14    2
     7    14    15    1
     8    15    16    2
     9    16    17    1
    10    17     2    1
    11     2     3    1
    12     3     4    1
    13     4     5    1
    14     5     1    1
    15     1    18    1
    16    18    19    1
    17    19    20    1
    18    20    21    1
    19    21    22   ar
    20    22    23   ar
    21    23    24   ar
    22    24    25    1
    23    24    26   ar
    24    26    27   ar
    25    20    28    1
    26    28    29   ar
    27    29    30   ar
    28    30    31   ar
    29    31    32    1
    30    31    33   ar
    31    33    34   ar
    32     5     6    1
    33     6     7    1
    34    17     9   am
    35     7     2    1
    36    16    11    1
    37    27    21   ar
    38    34    28   ar
@<TRIPOS>MOLECULE
*****
 34 38 0 0 0
SMALL
GASTEIGER

@<TRIPOS>ATOM
      1 C          -5.4775  -19.3405   19.9931 C.3     1  UNL1        0.0721
      2 C          -9.7188  -18.3058   21.0848 C.3     1  UNL1        0.0841
      3 C          -8.5787  -17.7030   21.8508 C.3     1  UNL1        0.0376
      4 C          -7.1650  -18.0479   21.4869 C.3     1  UNL1        0.0738
      5 N          -6.8913  -18.9957   20.3569 N.3     1  UNL1       -0.2726
      6 C          -8.0313  -19.5985   19.5909 C.3     1  UNL1        0.0738
      7 C          -9.4450  -19.2536   19.9547 C.3     1  UNL1        0.0376
      8 O         -11.8850  -16.8090   19.1569 O.2     1  UNL1       -0.2501
      9 C         -12.1282  -17.2730   20.5625 C.2     1  UNL1        0.3309
     10 N         -13.4098  -17.1303   21.3288 N.am    1  UNL1       -0.1647
     11 C         -13.2062  -17.7302   22.6885 C.2     1  UNL1        0.0706
     12 C         -14.1205  -17.8752   23.8686 C.3     1  UNL1        0.0705
     13 C         -13.6274  -18.5337   25.1229 C.2     1  UNL1       -0.0199
     14 C         -12.2199  -19.0470   25.1970 C.2     1  UNL1       -0.0029
     15 C         -11.3056  -18.9020   24.0168 C.2     1  UNL1        0.0156
     16 C         -11.7987  -18.2435   22.7625 C.2     1  UNL1        0.0668
     17 N         -11.1325  -17.9609   21.4486 N.am    1  UNL1       -0.2423
     18 C          -4.6165  -20.0953   20.9620 C.3     1  UNL1        0.0180
     19 C          -4.4761  -19.6117   22.3750 C.3     1  UNL1        0.0102
     20 C          -3.7984  -18.3034   22.6560 C.3     1  UNL1        0.0446
     21 C          -4.3222  -17.4041   23.7362 C.ar    1  UNL1       -0.0183
     22 C          -3.8571  -17.5817   25.1511 C.ar    1  UNL1       -0.0017
     23 C          -4.3809  -16.6824   26.2313 C.ar    1  UNL1        0.0293
     24 C          -5.3699  -15.6055   25.8965 C.ar    1  UNL1        0.1401
     25 F          -5.8939  -14.7062   26.9767 F       1  UNL1       -0.2042
     26 C          -5.8351  -15.4279   24.4816 C.ar    1  UNL1        0.0293
     27 C          -5.3113  -16.3272   23.4014 C.ar    1  UNL1       -0.0017
     28 C          -2.5967  -17.8943   21.8567 C.ar    1  UNL1       -0.0183
     29 C          -1.8391  -18.9180   21.0641 C.ar    1  UNL1       -0.0017
     30 C          -0.6375  -18.5089   20.2649 C.ar    1  UNL1        0.0293
     31 C          -0.1935  -17.0762   20.2582 C.ar    1  UNL1        0.1401
     32 F           1.0081  -16.6671   19.4590 F       1  UNL1       -0.2042
     33 C          -0.9511  -16.0524   21.0508 C.ar    1  UNL1        0.0293
     34 C          -2.1526  -16.4616   21.8500 C.ar    1  UNL1       -0.0017
@<TRIPOS>BOND
     1     8     9    2
     2     9    10    1
     3    10    11    2
     4    11    12    1
     5    12    13    1
     6    13    14    2
     7    14    15    1
     8    15    16    2
     9    16    17    1
    10    17     2    1
    11     2     3    1
    12     3     4    1
    13     4     5    1
    14     5     1    1
    15     1    18    1
    16    18    19    1
    17    19    20    1
    18    20    21    1
    19    21    22   ar
    20    22    23   ar
    21    23    24   ar
    22    24    25    1
    23    24    26   ar
    24    26    27   ar
    25    20    28    1
    26    28    29   ar
    27    29    30   ar
    28    30    31   ar
    29    31    32    1
    30    31    33   ar
    31    33    34   ar
    32     5     6    1
    33     6     7    1
    34    17     9   am
    35     7     2    1
    36    16    11    1
    37    27    21   ar
    38    34    28   ar
@<TRIPOS>MOLECULE
*****
 34 38 0 0 0
SMALL
GASTEIGER

@<TRIPOS>ATOM
      1 C          -5.4771  -19.3547   19.9850 C.3     1  UNL1        0.0721
      2 C          -9.7162  -18.3048   21.0705 C.3     1  UNL1        0.0841
      3 C          -8.5750  -17.6997   21.8329 C.3     1  UNL1        0.0376
      4 C          -7.1619  -18.0497   21.4711 C.3     1  UNL1        0.0738
      5 N          -6.8902  -19.0047   20.3468 N.3     1  UNL1       -0.2726
      6 C          -8.0314  -19.6098   19.5844 C.3     1  UNL1        0.0738
      7 C          -9.4445  -19.2599   19.9462 C.3     1  UNL1        0.0376
      8 O         -11.8771  -16.8082   19.1364 O.2     1  UNL1       -0.2501
      9 C         -12.1225  -17.2669   20.5433 C.2     1  UNL1        0.3309
     10 N         -13.4042  -17.1183   21.3082 N.am    1  UNL1       -0.1647
     11 C         -13.2031  -17.7144   22.6699 C.2     1  UNL1        0.0706
     12 C         -14.1186  -17.8531   23.8500 C.3     1  UNL1        0.0705
     13 C         -13.6282  -18.5088   25.1067 C.2     1  UNL1       -0.0199
     14 C         -12.2221  -19.0258   25.1834 C.2     1  UNL1       -0.0029
     15 C         -11.3066  -18.8871   24.0034 C.2     1  UNL1        0.0156
     16 C         -11.7971  -18.2313   22.7466 C.2     1  UNL1        0.0668
     17 N         -11.1293  -17.9548   21.4323 N.am    1  UNL1       -0.2423
     18 C          -4.6130  -20.0925   20.9642 C.3     1  UNL1        0.0180
     19 C          -4.4806  -19.5932   22.3725 C.3     1  UNL1        0.0102
     20 C          -3.8054  -18.2813   22.6426 C.3     1  UNL1        0.0446
     21 C          -2.6072  -17.8746   21.8371 C.ar    1  UNL1       -0.0183
     22 C          -1.8553  -18.8998   21.0412 C.ar    1  UNL1       -0.0017
     23 C          -0.6571  -18.4931   20.2357 C.ar    1  UNL1        0.0293
     24 C          -0.2108  -17.0611   20.2262 C.ar    1  UNL1        0.1401
     25 F           0.9874  -16.6542   19.4208 F       1  UNL1       -0.2042
     26 C          -0.9627  -16.0358   21.0222 C.ar    1  UNL1        0.0293
     27 C          -2.1609  -16.4426   21.8277 C.ar    1  UNL1       -0.0017
     28 C          -4.3285  -17.3761   23.7184 C.ar    1  UNL1       -0.0183
     29 C          -3.8562  -17.5408   25.1325 C.ar    1  UNL1       -0.0017
     30 C          -4.3793  -16.6356   26.2081 C.ar    1  UNL1        0.0293
     31 C          -5.3746  -15.5657   25.8696 C.ar    1  UNL1        0.1401
     32 F          -5.8977  -14.6605   26.9453 F       1  UNL1       -0.2042
     33 C          -5.8470  -15.4010   24.4555 C.ar    1  UNL1        0.0293
     34 C          -5.3239  -16.3062   23.3799 C.ar    1  UNL1       -0.0017
@<TRIPOS>BOND
     1     8     9    2
     2     9    10    1
     3    10    11    2
     4    11    12    1
     5    12    13    1
     6    13    14    2
     7    14    15    1
     8    15    16    2
     9    16    17    1
    10    17     2    1
    11     2     3    1
    12     3     4    1
    13     4     5    1
    14     5     1    1
    15     1    18    1
    16    18    19    1
    17    19    20    1
    18    20    21    1
    19    21    22   ar
    20    22    23   ar
    21    23    24   ar
    22    24    25    1
    23    24    26   ar
    24    26    27   ar
    25    20    28    1
    26    28    29   ar
    27    29    30   ar
    28    30    31   ar
    29    31    32    1
    30    31    33   ar
    31    33    34   ar
    32     5     6    1
    33     6     7    1
    34    17     9   am
    35     7     2    1
    36    16    11    1
    37    27    21   ar
    38    34    28   ar
@<TRIPOS>MOLECULE
*****
 34 38 0 0 0
SMALL
GASTEIGER

@<TRIPOS>ATOM
      1 C          -9.6849  -20.0075   20.6393 C.3     1  UNL1        0.0721
      2 C          -5.4073  -18.8326   21.3958 C.3     1  UNL1        0.0841
      3 C          -6.2897  -19.2306   22.5416 C.3     1  UNL1        0.0376
      4 C          -7.7155  -19.6222   22.2894 C.3     1  UNL1        0.0738
      5 N          -8.2591  -19.6158   20.8914 N.3     1  UNL1       -0.2726
      6 C          -7.3768  -19.2178   19.7455 C.3     1  UNL1        0.0738
      7 C          -5.9509  -18.8262   19.9976 C.3     1  UNL1        0.0376
      8 O          -4.0761  -18.2081   24.3091 O.2     1  UNL1       -0.2501
      9 C          -3.3696  -18.1539   22.9870 C.2     1  UNL1        0.3309
     10 N          -1.9271  -17.8032   22.7718 N.am    1  UNL1       -0.1647
     11 C          -1.6475  -17.8734   21.2998 C.2     1  UNL1        0.0706
     12 C          -0.4009  -17.6294   20.5022 C.3     1  UNL1        0.0705
     13 C          -0.4239  -17.7796   19.0099 C.2     1  UNL1       -0.0199
     14 C          -1.6936  -18.1737   18.3153 C.2     1  UNL1       -0.0029
     15 C          -2.9402  -18.4178   19.1129 C.2     1  UNL1        0.0156
     16 C          -2.9172  -18.2676   20.6051 C.2     1  UNL1        0.0668
     17 N          -3.9815  -18.4409   21.6479 N.am    1  UNL1       -0.2423
     18 C         -10.7261  -18.9497   20.4225 C.3     1  UNL1        0.0180
     19 C         -10.5003  -17.5586   20.9363 C.3     1  UNL1        0.0102
     20 C         -10.4790  -17.2991   22.4135 C.3     1  UNL1        0.0446
     21 C          -9.2923  -16.6290   23.0403 C.ar    1  UNL1       -0.0183
     22 C          -9.1875  -16.5323   24.5335 C.ar    1  UNL1       -0.0017
     23 C          -8.0008  -15.8622   25.1602 C.ar    1  UNL1        0.0293
     24 C          -6.9191  -15.2888   24.2936 C.ar    1  UNL1        0.1401
     25 F          -5.7323  -14.6186   24.9203 F       1  UNL1       -0.2042
     26 C          -7.0239  -15.3854   22.8004 C.ar    1  UNL1        0.0293
     27 C          -8.2106  -16.0555   22.1737 C.ar    1  UNL1       -0.0017
     28 C         -11.6444  -17.7097   23.2641 C.ar    1  UNL1       -0.0183
     29 C         -11.4254  -18.5767   24.4684 C.ar    1  UNL1       -0.0017
     30 C         -12.5908  -18.9873   25.3188 C.ar    1  UNL1        0.0293
     31 C         -13.9751  -18.5307   24.9651 C.ar    1  UNL1        0.1401
     32 F         -15.1405  -18.9413   25.8156 F       1  UNL1       -0.2042
     33 C         -14.1942  -17.6637   23.7608 C.ar    1  UNL1        0.0293
     34 C         -13.0288  -17.2532   22.9104 C.ar    1  UNL1       -0.0017
@<TRIPOS>BOND
     1     8     9    2
     2     9    10    1
     3    10    11    2
     4    11    12    1
     5    12    13    1
     6    13    14    2
     7    14    15    1
     8    15    16    2
     9    16    17    1
    10    17     2    1
    11     2     3    1
    12     3     4    1
    13     4     5    1
    14     5     1    1
    15     1    18    1
    16    18    19    1
    17    19    20    1
    18    20    21    1
    19    21    22   ar
    20    22    23   ar
    21    23    24   ar
    22    24    25    1
    23    24    26   ar
    24    26    27   ar
    25    20    28    1
    26    28    29   ar
    27    29    30   ar
    28    30    31   ar
    29    31    32    1
    30    31    33   ar
    31    33    34   ar
    32     5     6    1
    33     6     7    1
    34    17     9   am
    35     7     2    1
    36    16    11    1
    37    27    21   ar
    38    34    28   ar
@<TRIPOS>MOLECULE
*****
 34 38 0 0 0
SMALL
GASTEIGER

@<TRIPOS>ATOM
      1 C          -9.7404  -19.9824   20.6079 C.3     1  UNL1        0.0721
      2 C          -5.4633  -18.8222   21.3892 C.3     1  UNL1        0.0841
      3 C          -6.3597  -19.1961   22.5321 C.3     1  UNL1        0.0376
      4 C          -7.7855  -19.5829   22.2717 C.3     1  UNL1        0.0738
      5 N          -8.3147  -19.5956   20.8683 N.3     1  UNL1       -0.2726
      6 C          -7.4183  -19.2217   19.7252 C.3     1  UNL1        0.0738
      7 C          -5.9926  -18.8350   19.9857 C.3     1  UNL1        0.0376
      8 O          -4.1473  -18.2004   24.3100 O.2     1  UNL1       -0.2501
      9 C          -3.4327  -18.1496   22.9922 C.2     1  UNL1        0.3309
     10 N          -1.9878  -17.8042   22.7854 N.am    1  UNL1       -0.1647
     11 C          -1.6996  -17.8765   21.3151 C.2     1  UNL1        0.0706
     12 C          -0.4473  -17.6375   20.5249 C.3     1  UNL1        0.0705
     13 C          -0.4619  -17.7887   19.0326 C.2     1  UNL1       -0.0199
     14 C          -1.7288  -18.1788   18.3306 C.2     1  UNL1       -0.0029
     15 C          -2.9811  -18.4178   19.1209 C.2     1  UNL1        0.0156
     16 C          -2.9665  -18.2667   20.6132 C.2     1  UNL1        0.0668
     17 N          -4.0376  -18.4355   21.6496 N.am    1  UNL1       -0.2423
     18 C         -10.7800  -18.9207   20.4027 C.3     1  UNL1        0.0180
     19 C         -10.5477  -17.5331   20.9228 C.3     1  UNL1        0.0102
     20 C         -10.5188  -17.2814   22.4013 C.3     1  UNL1        0.0446
     21 C         -11.6805  -17.6952   23.2553 C.ar    1  UNL1       -0.0183
     22 C         -11.4580  -18.5770   24.4481 C.ar    1  UNL1       -0.0017
     23 C         -12.6196  -18.9908   25.3021 C.ar    1  UNL1        0.0293
     24 C         -14.0038  -18.5226   24.9633 C.ar    1  UNL1        0.1401
     25 F         -15.1655  -18.9363   25.8172 F       1  UNL1       -0.2042
     26 C         -14.2263  -17.6407   23.7705 C.ar    1  UNL1        0.0293
     27 C         -13.0647  -17.2270   22.9165 C.ar    1  UNL1       -0.0017
     28 C          -9.3282  -16.6160   23.0258 C.ar    1  UNL1       -0.0183
     29 C          -9.1890  -16.5756   24.5187 C.ar    1  UNL1       -0.0017
     30 C          -7.9985  -15.9102   25.1431 C.ar    1  UNL1        0.0293
     31 C          -6.9472  -15.2853   24.2746 C.ar    1  UNL1        0.1401
     32 F          -5.7567  -14.6199   24.8991 F       1  UNL1       -0.2042
     33 C          -7.0865  -15.3257   22.7816 C.ar    1  UNL1        0.0293
     34 C          -8.2770  -15.9911   22.1572 C.ar    1  UNL1       -0.0017
@<TRIPOS>BOND
     1     8     9    2
     2     9    10    1
     3    10    11    2
     4    11    12    1
     5    12    13    1
     6    13    14    2
     7    14    15    1
     8    15    16    2
     9    16    17    1
    10    17     2    1
    11     2     3    1
    12     3     4    1
    13     4     5    1
    14     5     1    1
    15     1    18    1
    16    18    19    1
    17    19    20    1
    18    20    21    1
    19    21    22   ar
    20    22    23   ar
    21    23    24   ar
    22    24    25    1
    23    24    26   ar
    24    26    27   ar
    25    20    28    1
    26    28    29   ar
    27    29    30   ar
    28    30    31   ar
    29    31    32    1
    30    31    33   ar
    31    33    34   ar
    32     5     6    1
    33     6     7    1
    34    17     9   am
    35     7     2    1
    36    16    11    1
    37    27    21   ar
    38    34    28   ar
@<TRIPOS>MOLECULE
*****
 34 38 0 0 0
SMALL
GASTEIGER

@<TRIPOS>ATOM
      1 C           5.5490    0.8062   22.4822 C.3     1  UNL1        0.0721
      2 C           7.1571   -3.3607   23.0309 C.3     1  UNL1        0.0841
      3 C           8.0830   -2.2434   22.6515 C.3     1  UNL1        0.0376
      4 C           7.5470   -0.8544   22.4686 C.3     1  UNL1        0.0738
      5 N           6.0850   -0.5828   22.6651 N.3     1  UNL1       -0.2726
      6 C           5.1590   -1.7001   23.0445 C.3     1  UNL1        0.0738
      7 C           5.6950   -3.0891   23.2274 C.3     1  UNL1        0.0376
      8 O           8.7804   -5.0999   20.7971 O.2     1  UNL1       -0.2501
      9 C           8.4392   -5.5491   22.1870 C.2     1  UNL1        0.3309
     10 N           8.7843   -6.8766   22.7942 N.am    1  UNL1       -0.1647
     11 C           8.2515   -6.8976   24.1962 C.2     1  UNL1        0.0706
     12 C           8.2933   -7.9438   25.2703 C.3     1  UNL1        0.0705
     13 C           7.6606   -7.6756   26.6036 C.2     1  UNL1       -0.0199
     14 C           6.9862   -6.3611   26.8628 C.2     1  UNL1       -0.0029
     15 C           6.9444   -5.3148   25.7888 C.2     1  UNL1        0.0156
     16 C           7.5771   -5.5831   24.4555 C.2     1  UNL1        0.0668
     17 N           7.6931   -4.7497   23.2137 N.am    1  UNL1       -0.2423
     18 C           5.6241    1.4682   21.1383 C.3     1  UNL1        0.0180
     19 C           5.3910    0.6654   19.8928 C.3     1  UNL1        0.0102
     20 C           4.1860   -0.2215   19.7868 C.3     1  UNL1        0.0446
     21 C           2.8111    0.3608   19.9303 C.ar    1  UNL1       -0.0183
     22 C           2.0814    0.2482   21.2360 C.ar    1  UNL1       -0.0017
     23 C           0.7065    0.8306   21.3794 C.ar    1  UNL1        0.0293
     24 C           0.0614    1.5255   20.2171 C.ar    1  UNL1        0.1401
     25 F          -1.3135    2.1079   20.3605 F       1  UNL1       -0.2042
     26 C           0.7911    1.6380   18.9114 C.ar    1  UNL1        0.0293
     27 C           2.1660    1.0557   18.7680 C.ar    1  UNL1       -0.0017
     28 C           4.3559   -1.6910   19.5374 C.ar    1  UNL1       -0.0183
     29 C           5.7314   -2.2785   19.4249 C.ar    1  UNL1       -0.0017
     30 C           5.9012   -3.7478   19.1755 C.ar    1  UNL1        0.0293
     31 C           4.6955   -4.6296   19.0386 C.ar    1  UNL1        0.1401
     32 F           4.8654   -6.0989   18.7892 F       1  UNL1       -0.2042
     33 C           3.3200   -4.0421   19.1511 C.ar    1  UNL1        0.0293
     34 C           3.1502   -2.5728   19.4005 C.ar    1  UNL1       -0.0017
@<TRIPOS>BOND
     1     8     9    2
     2     9    10    1
     3    10    11    2
     4    11    12    1
     5    12    13    1
     6    13    14    2
     7    14    15    1
     8    15    16    2
     9    16    17    1
    10    17     2    1
    11     2     3    1
    12     3     4    1
    13     4     5    1
    14     5     1    1
    15     1    18    1
    16    18    19    1
    17    19    20    1
    18    20    21    1
    19    21    22   ar
    20    22    23   ar
    21    23    24   ar
    22    24    25    1
    23    24    26   ar
    24    26    27   ar
    25    20    28    1
    26    28    29   ar
    27    29    30   ar
    28    30    31   ar
    29    31    32    1
    30    31    33   ar
    31    33    34   ar
    32     5     6    1
    33     6     7    1
    34    17     9   am
    35     7     2    1
    36    16    11    1
    37    27    21   ar
    38    34    28   ar
@<TRIPOS>MOLECULE
*****
 34 38 0 0 0
SMALL
GASTEIGER

@<TRIPOS>ATOM
      1 C           5.4701    0.6493   22.5323 C.3     1  UNL1        0.0721
      2 C           7.1540   -3.4856   23.0961 C.3     1  UNL1        0.0841
      3 C           5.6800   -3.2497   23.2421 C.3     1  UNL1        0.0376
      4 C           5.1187   -1.8714   23.0542 C.3     1  UNL1        0.0738
      5 N           6.0315   -0.7290   22.7202 N.3     1  UNL1       -0.2726
      6 C           7.5056   -0.9648   22.5741 C.3     1  UNL1        0.0738
      7 C           8.0669   -2.3431   22.7620 C.3     1  UNL1        0.0376
      8 O           8.7990   -5.2075   20.8647 O.2     1  UNL1       -0.2501
      9 C           8.4715   -5.6553   22.2583 C.2     1  UNL1        0.3309
     10 N           8.8425   -6.9732   22.8710 N.am    1  UNL1       -0.1647
     11 C           8.3157   -6.9963   24.2753 C.2     1  UNL1        0.0706
     12 C           8.3804   -8.0360   25.3546 C.3     1  UNL1        0.0705
     13 C           7.7485   -7.7720   26.6890 C.2     1  UNL1       -0.0199
     14 C           7.0519   -6.4683   26.9443 C.2     1  UNL1       -0.0029
     15 C           6.9872   -5.4286   25.8650 C.2     1  UNL1        0.0156
     16 C           7.6191   -5.6926   24.5305 C.2     1  UNL1        0.0668
     17 N           7.7154   -4.8639   23.2840 N.am    1  UNL1       -0.2423
     18 C           5.6678    1.3686   21.2310 C.3     1  UNL1        0.0180
     19 C           5.3753    0.6703   19.9361 C.3     1  UNL1        0.0102
     20 C           4.1685   -0.2124   19.8160 C.3     1  UNL1        0.0446
     21 C           4.3356   -1.6795   19.5519 C.ar    1  UNL1       -0.0183
     22 C           5.7101   -2.2693   19.4382 C.ar    1  UNL1       -0.0017
     23 C           5.8772   -3.7363   19.1740 C.ar    1  UNL1        0.0293
     24 C           4.6698   -4.6135   19.0236 C.ar    1  UNL1        0.1401
     25 F           4.8368   -6.0806   18.7594 F       1  UNL1       -0.2042
     26 C           3.2953   -4.0237   19.1373 C.ar    1  UNL1        0.0293
     27 C           3.1282   -2.5566   19.4014 C.ar    1  UNL1       -0.0017
     28 C           2.7945    0.3720   19.9601 C.ar    1  UNL1       -0.0183
     29 C           2.1497    1.0677   18.7981 C.ar    1  UNL1       -0.0017
     30 C           0.7758    1.6520   18.9423 C.ar    1  UNL1        0.0293
     31 C           0.0466    1.5407   20.2484 C.ar    1  UNL1        0.1401
     32 F          -1.3273    2.1251   20.3925 F       1  UNL1       -0.2042
     33 C           0.6914    0.8451   21.4104 C.ar    1  UNL1        0.0293
     34 C           2.0653    0.2607   21.2663 C.ar    1  UNL1       -0.0017
@<TRIPOS>BOND
     1     8     9    2
     2     9    10    1
     3    10    11    2
     4    11    12    1
     5    12    13    1
     6    13    14    2
     7    14    15    1
     8    15    16    2
     9    16    17    1
    10    17     2    1
    11     2     3    1
    12     3     4    1
    13     4     5    1
    14     5     1    1
    15     1    18    1
    16    18    19    1
    17    19    20    1
    18    20    21    1
    19    21    22   ar
    20    22    23   ar
    21    23    24   ar
    22    24    25    1
    23    24    26   ar
    24    26    27   ar
    25    20    28    1
    26    28    29   ar
    27    29    30   ar
    28    30    31   ar
    29    31    32    1
    30    31    33   ar
    31    33    34   ar
    32     5     6    1
    33     6     7    1
    34    17     9   am
    35     7     2    1
    36    16    11    1
    37    27    21   ar
    38    34    28   ar
