@<TRIPOS>MOLECULE
*****
 40 42 0 0 0
SMALL
GASTEIGER

@<TRIPOS>ATOM
      1 C           6.5528   -2.8626   25.8151 C.2     1  UNL1        0.2485
      2 O           7.0120   -1.5245   25.3169 O.2     1  UNL1       -0.2726
      3 N           5.7615   -3.7663   24.9165 N.am    1  UNL1       -0.2823
      4 H           5.4601   -4.6446   25.2435 H       1  UNL1        0.1549
      5 C           9.5003   -6.3433   27.1692 C.3     1  UNL1        0.0949
      6 C           8.5951   -5.2705   26.6403 C.2     1  UNL1        0.2269
      7 O           8.4615   -5.0641   25.1606 O.2     1  UNL1       -0.2748
      8 N           7.8236   -4.4040   27.5911 N.am    1  UNL1       -0.2655
      9 C           7.8553   -4.4922   29.0882 C.3     1  UNL1        0.1206
     10 C           6.9362   -3.4400   29.6341 C.ar    1  UNL1       -0.0030
     11 C           6.5679   -3.0589   31.0373 C.ar    1  UNL1        0.0155
     12 C           5.5999   -1.9393   31.2809 C.ar    1  UNL1        0.1055
     13 C           5.0001   -1.2008   30.1212 C.ar    1  UNL1        0.0181
     14 C           5.3684   -1.5819   28.7180 C.ar    1  UNL1       -0.0011
     15 C           6.3364   -2.7014   28.4744 C.ar    1  UNL1        0.0022
     16 C           6.8849   -3.2973   27.2118 C.3     1  UNL1        0.1750
     17 S           5.2316   -1.5582   32.6842 S.O2    1  UNL1        0.0112
     18 O           3.8320   -2.0435   32.4487 O.2     1  UNL1       -0.1685
     19 O           6.6312   -1.0729   32.9197 O.2     1  UNL1       -0.1685
     20 C           4.8634   -1.1771   34.0874 C.3     1  UNL1        0.1875
     21 C           4.1917    0.1370   34.3560 C.3     1  UNL1        0.1629
     22 O           3.0803    0.6072   33.4651 O.3     1  UNL1       -0.3801
     23 H           3.4296    0.7819   32.5772 H       1  UNL1        0.2105
     24 C           5.4295   -3.3316   23.5198 C.ar    1  UNL1        0.0503
     25 C           6.2336   -3.8465   22.3629 C.ar    1  UNL1        0.0144
     26 C           5.9015   -3.4118   20.9662 C.ar    1  UNL1       -0.0002
     27 C           4.7654   -2.4623   20.7264 C.ar    1  UNL1        0.0182
     28 C           3.9613   -1.9474   21.8833 C.ar    1  UNL1       -0.0002
     29 C           4.2933   -2.3821   23.2800 C.ar    1  UNL1        0.0144
     30 C           4.4333   -2.0275   19.3297 C.3     1  UNL1        0.2827
     31 O           5.1815   -0.7463   19.5505 O.3     1  UNL1       -0.3692
     32 H           5.1403   -0.2052   18.7465 H       1  UNL1        0.2112
     33 C           4.1012   -1.5929   17.9330 C.3     1  UNL1        0.4311
     34 F           3.7690   -1.1583   16.5363 F       1  UNL1       -0.1669
     35 F           2.9595   -0.7745   18.4592 F       1  UNL1       -0.1669
     36 F           4.7463   -2.0412   17.5240 F       1  UNL1       -0.1669
     37 C           3.6851   -3.3087   19.1089 C.3     1  UNL1        0.4311
     38 F           2.9368   -4.5899   18.8882 F       1  UNL1       -0.1669
     39 F           2.9202   -3.0514   19.4741 F       1  UNL1       -0.1669
     40 F           4.6811   -4.1975   18.4247 F       1  UNL1       -0.1669
@<TRIPOS>BOND
     1     5     6    1
     2     6     7    2
     3     6     8   am
     4     8     9    1
     5     9    10    1
     6    10    11   ar
     7    11    12   ar
     8    12    17    1
     9    17    18    2
    10    17    19    2
    11    17    20    1
    12    20    21    1
    13    21    22    1
    14    12    13   ar
    15    13    14   ar
    16    14    15   ar
    17    15    16    1
    18    16     1    1
    19     1     2    2
    20     1     3   am
    21     3    24    1
    22    24    25   ar
    23    25    26   ar
    24    26    27   ar
    25    27    30    1
    26    30    31    1
    27    30    33    1
    28    33    34    1
    29    33    35    1
    30    33    36    1
    31    30    37    1
    32    37    38    1
    33    37    39    1
    34    37    40    1
    35    27    28   ar
    36    28    29   ar
    37    16     8    1
    38    29    24   ar
    39    15    10   ar
    40    22    23    1
    41     3     4    1
    42    31    32    1
@<TRIPOS>MOLECULE
*****
 40 42 0 0 0
SMALL
GASTEIGER

@<TRIPOS>ATOM
      1 C          -0.4883    2.7637   20.4014 C.2     1  UNL1        0.2485
      2 O           0.8229    3.4602   20.6140 O.2     1  UNL1       -0.2726
      3 N          -0.5137    1.3162   20.0085 N.am    1  UNL1       -0.2823
      4 H          -1.3744    0.8590   19.8689 H       1  UNL1        0.1549
      5 C          -3.2272    4.7173   17.0372 C.3     1  UNL1        0.0949
      6 C          -2.2973    4.0691   18.0195 C.2     1  UNL1        0.2269
      7 O          -1.0589    3.3755   17.5347 O.2     1  UNL1       -0.2748
      8 N          -2.6058    4.1146   19.4867 N.am    1  UNL1       -0.2655
      9 C          -3.8000    4.7680   20.1168 C.3     1  UNL1        0.1206
     10 C          -3.7065    4.5719   21.6010 C.ar    1  UNL1       -0.0030
     11 C          -4.5997    4.9986   22.7280 C.ar    1  UNL1        0.0155
     12 C          -4.2409    4.6506   24.1422 C.ar    1  UNL1        0.1055
     13 C          -2.9890    3.8759   24.4295 C.ar    1  UNL1        0.0181
     14 C          -2.0958    3.4492   23.3025 C.ar    1  UNL1       -0.0011
     15 C          -2.4546    3.7972   21.8882 C.ar    1  UNL1        0.0022
     16 C          -1.7743    3.5145   20.5816 C.3     1  UNL1        0.1750
     17 S          -5.1340    5.0773   25.2693 S.O2    1  UNL1        0.0112
     18 O          -5.1787    3.6638   25.7692 O.2     1  UNL1       -0.1685
     19 O          -5.0894    6.4909   24.7695 O.2     1  UNL1       -0.1685
     20 C          -6.0271    5.5041   26.3963 C.3     1  UNL1        0.1875
     21 C          -7.2609    6.3087   26.1122 C.3     1  UNL1        0.1629
     22 O          -8.3193    6.4556   27.1648 O.3     1  UNL1       -0.3801
     23 H          -8.7252    5.5918   27.3380 H       1  UNL1        0.2105
     24 C           0.7723    0.5654   19.8283 C.ar    1  UNL1        0.0503
     25 C           1.3191   -0.2658   20.9509 C.ar    1  UNL1        0.0144
     26 C           2.6051   -1.0166   20.7707 C.ar    1  UNL1       -0.0002
     27 C           3.3442   -0.9363   19.4679 C.ar    1  UNL1        0.0182
     28 C           2.7974   -0.1051   18.3454 C.ar    1  UNL1       -0.0002
     29 C           1.5114    0.6457   18.5256 C.ar    1  UNL1        0.0144
     30 C           4.6302   -1.6871   19.2877 C.3     1  UNL1        0.2827
     31 O           5.3813   -0.3895   19.2405 O.3     1  UNL1       -0.3692
     32 H           6.3272   -0.5677   19.1204 H       1  UNL1        0.2112
     33 C           5.9162   -2.4380   19.1074 C.3     1  UNL1        0.4311
     34 F           7.2021   -3.1889   18.9271 F       1  UNL1       -0.1669
     35 F           5.4816   -2.8523   17.7328 F       1  UNL1       -0.1669
     36 F           6.2635   -2.2493   19.9000 F       1  UNL1       -0.1669
     37 C           3.8792   -2.9847   19.3348 C.3     1  UNL1        0.4311
     38 F           3.1281   -4.2823   19.3819 F       1  UNL1       -0.1669
     39 F           3.4454   -2.8862   18.5689 F       1  UNL1       -0.1669
     40 F           4.3260   -3.6163   20.6199 F       1  UNL1       -0.1669
@<TRIPOS>BOND
     1     5     6    1
     2     6     7    2
     3     6     8   am
     4     8     9    1
     5     9    10    1
     6    10    11   ar
     7    11    12   ar
     8    12    17    1
     9    17    18    2
    10    17    19    2
    11    17    20    1
    12    20    21    1
    13    21    22    1
    14    12    13   ar
    15    13    14   ar
    16    14    15   ar
    17    15    16    1
    18    16     1    1
    19     1     2    2
    20     1     3   am
    21     3    24    1
    22    24    25   ar
    23    25    26   ar
    24    26    27   ar
    25    27    30    1
    26    30    31    1
    27    30    33    1
    28    33    34    1
    29    33    35    1
    30    33    36    1
    31    30    37    1
    32    37    38    1
    33    37    39    1
    34    37    40    1
    35    27    28   ar
    36    28    29   ar
    37    16     8    1
    38    29    24   ar
    39    15    10   ar
    40    22    23    1
    41     3     4    1
    42    31    32    1
@<TRIPOS>MOLECULE
*****
 40 42 0 0 0
SMALL
GASTEIGER

@<TRIPOS>ATOM
      1 C           4.7825   -1.1114   32.3195 C.2     1  UNL1        0.2485
      2 O           3.5764   -1.8508   32.8178 O.2     1  UNL1       -0.2726
      3 N           5.2906    0.0854   33.0677 N.am    1  UNL1       -0.2823
      4 H           6.0823    0.5707   32.7406 H       1  UNL1        0.1549
      5 C           5.0177    1.1112   28.1195 C.3     1  UNL1        0.0949
      6 C           4.8844    0.4929   29.4796 C.2     1  UNL1        0.2269
      7 O           4.1082    1.1988   30.5515 O.2     1  UNL1       -0.2748
      8 N           5.5275   -0.8312   29.7677 N.am    1  UNL1       -0.2655
      9 C           6.3303   -1.6505   28.8012 C.3     1  UNL1        0.1206
     10 C           6.7796   -2.8943   29.5091 C.ar    1  UNL1       -0.0030
     11 C           7.5990   -4.0663   29.0566 C.ar    1  UNL1        0.0155
     12 C           7.8933   -5.1877   30.0082 C.ar    1  UNL1        0.1055
     13 C           7.3682   -5.1372   31.4124 C.ar    1  UNL1        0.0181
     14 C           6.5488   -3.9651   31.8649 C.ar    1  UNL1       -0.0011
     15 C           6.2545   -2.8437   30.9133 C.ar    1  UNL1        0.0022
     16 C           5.4806   -1.5687   31.0731 C.3     1  UNL1        0.1750
     17 S           8.7128   -6.3599   29.5557 S.O2    1  UNL1        0.0112
     18 O           8.7443   -6.8808   30.9620 O.2     1  UNL1       -0.1685
     19 O           8.6813   -5.8389   28.1495 O.2     1  UNL1       -0.1685
     20 C           9.5322   -7.5319   29.1032 C.3     1  UNL1        0.1875
     21 C           8.9755   -8.4910   28.0931 C.3     1  UNL1        0.1629
     22 O           7.5849   -8.3000   27.5644 O.3     1  UNL1       -0.3801
     23 H           6.9454   -8.4305   28.2819 H       1  UNL1        0.2105
     24 C           4.5925    0.5427   34.3141 C.ar    1  UNL1        0.0503
     25 C           3.5113    1.5790   34.2309 C.ar    1  UNL1        0.0144
     26 C           2.8132    2.0363   35.4773 C.ar    1  UNL1       -0.0002
     27 C           3.1963    1.4572   36.8068 C.ar    1  UNL1        0.0182
     28 C           4.2776    0.4209   36.8900 C.ar    1  UNL1       -0.0002
     29 C           4.9757   -0.0364   35.6436 C.ar    1  UNL1        0.0144
     30 C           2.4983    1.9144   38.0533 C.3     1  UNL1        0.2827
     31 O           2.3438    0.4878   38.4903 O.3     1  UNL1       -0.3692
     32 H           1.8849    0.4591   39.3444 H       1  UNL1        0.2112
     33 C           1.8002    2.3717   39.2998 C.3     1  UNL1        0.4311
     34 F           1.1021    2.8290   40.5462 F       1  UNL1       -0.1669
     35 F           0.5945    1.5638   38.9210 F       1  UNL1       -0.1669
     36 F           2.4565    2.8782   39.6116 F       1  UNL1       -0.1669
     37 C           2.6527    3.3410   37.6164 C.3     1  UNL1        0.4311
     38 F           2.8072    4.7677   37.1795 F       1  UNL1       -0.1669
     39 F           3.5352    3.3790   37.6817 F       1  UNL1       -0.1669
     40 F           1.2475    3.7934   37.3505 F       1  UNL1       -0.1669
@<TRIPOS>BOND
     1     5     6    1
     2     6     7    2
     3     6     8   am
     4     8     9    1
     5     9    10    1
     6    10    11   ar
     7    11    12   ar
     8    12    17    1
     9    17    18    2
    10    17    19    2
    11    17    20    1
    12    20    21    1
    13    21    22    1
    14    12    13   ar
    15    13    14   ar
    16    14    15   ar
    17    15    16    1
    18    16     1    1
    19     1     2    2
    20     1     3   am
    21     3    24    1
    22    24    25   ar
    23    25    26   ar
    24    26    27   ar
    25    27    30    1
    26    30    31    1
    27    30    33    1
    28    33    34    1
    29    33    35    1
    30    33    36    1
    31    30    37    1
    32    37    38    1
    33    37    39    1
    34    37    40    1
    35    27    28   ar
    36    28    29   ar
    37    16     8    1
    38    29    24   ar
    39    15    10   ar
    40    22    23    1
    41     3     4    1
    42    31    32    1
@<TRIPOS>MOLECULE
*****
 40 42 0 0 0
SMALL
GASTEIGER

@<TRIPOS>ATOM
      1 C           3.0253    0.5096   26.7825 C.2     1  UNL1        0.2485
      2 O           4.1638    1.4296   27.1097 O.2     1  UNL1       -0.2726
      3 N           2.5054   -0.4392   27.8216 N.am    1  UNL1       -0.2823
      4 H           1.7581   -1.0432   27.6068 H       1  UNL1        0.1549
      5 C          -1.0675    2.5502   25.4707 C.3     1  UNL1        0.0949
      6 C           0.2037    1.9418   25.9842 C.2     1  UNL1        0.2269
      7 O           0.5690    2.0787   27.4326 O.2     1  UNL1       -0.2748
      8 N           1.1097    1.1965   25.0494 N.am    1  UNL1       -0.2655
      9 C           0.8778    0.9787   23.5836 C.3     1  UNL1        0.1206
     10 C           2.0313    0.1858   23.0445 C.ar    1  UNL1       -0.0030
     11 C           2.3435   -0.3234   21.6686 C.ar    1  UNL1        0.0155
     12 C           3.6004   -1.1050   21.4254 C.ar    1  UNL1        0.1055
     13 C           4.5453   -1.3772   22.5581 C.ar    1  UNL1        0.0181
     14 C           4.2332   -0.8679   23.9341 C.ar    1  UNL1       -0.0011
     15 C           2.9762   -0.0864   24.1772 C.ar    1  UNL1        0.0022
     16 C           2.4066    0.5382   25.4163 C.3     1  UNL1        0.1750
     17 S           3.9126   -1.6143   20.0494 S.O2    1  UNL1        0.0112
     18 O           2.4472   -1.6535   19.7314 O.2     1  UNL1       -0.1685
     19 O           5.3779   -1.5751   20.3674 O.2     1  UNL1       -0.1685
     20 C           4.2248   -2.1236   18.6735 C.3     1  UNL1        0.1875
     21 C           4.4241   -1.1574   17.5435 C.3     1  UNL1        0.1629
     22 O           3.7108   -1.3691   16.2411 O.3     1  UNL1       -0.3801
     23 H           4.0382   -2.1799   15.8212 H       1  UNL1        0.2105
     24 C           3.1241   -0.4679   29.1877 C.ar    1  UNL1        0.0503
     25 C           2.3647    0.0653   30.3663 C.ar    1  UNL1        0.0144
     26 C           2.9834    0.0367   31.7324 C.ar    1  UNL1       -0.0002
     27 C           4.3615   -0.5252   31.9199 C.ar    1  UNL1        0.0182
     28 C           5.1209   -1.0584   30.7414 C.ar    1  UNL1       -0.0002
     29 C           4.5022   -1.0297   29.3752 C.ar    1  UNL1        0.0144
     30 C           4.9803   -0.5539   33.2861 C.3     1  UNL1        0.2827
     31 O           5.4420    0.8620   33.1068 O.3     1  UNL1       -0.3692
     32 H           5.9188    1.1497   33.9011 H       1  UNL1        0.2112
     33 C           5.5991   -0.5826   34.6522 C.3     1  UNL1        0.4311
     34 F           6.2178   -0.6114   36.0184 F       1  UNL1       -0.1669
     35 F           4.3909    0.1064   35.2140 F       1  UNL1       -0.1669
     36 F           6.3517   -0.9886   34.4214 F       1  UNL1       -0.1669
     37 C           4.5186   -1.9697   33.4654 C.3     1  UNL1        0.4311
     38 F           4.0568   -3.3856   33.6447 F       1  UNL1       -0.1669
     39 F           3.7174   -1.7814   33.7927 F       1  UNL1       -0.1669
     40 F           5.6783   -2.7929   32.9884 F       1  UNL1       -0.1669
@<TRIPOS>BOND
     1     5     6    1
     2     6     7    2
     3     6     8   am
     4     8     9    1
     5     9    10    1
     6    10    11   ar
     7    11    12   ar
     8    12    17    1
     9    17    18    2
    10    17    19    2
    11    17    20    1
    12    20    21    1
    13    21    22    1
    14    12    13   ar
    15    13    14   ar
    16    14    15   ar
    17    15    16    1
    18    16     1    1
    19     1     2    2
    20     1     3   am
    21     3    24    1
    22    24    25   ar
    23    25    26   ar
    24    26    27   ar
    25    27    30    1
    26    30    31    1
    27    30    33    1
    28    33    34    1
    29    33    35    1
    30    33    36    1
    31    30    37    1
    32    37    38    1
    33    37    39    1
    34    37    40    1
    35    27    28   ar
    36    28    29   ar
    37    16     8    1
    38    29    24   ar
    39    15    10   ar
    40    22    23    1
    41     3     4    1
    42    31    32    1
@<TRIPOS>MOLECULE
*****
 40 42 0 0 0
SMALL
GASTEIGER

@<TRIPOS>ATOM
      1 C           4.9907   -0.9572   26.1684 C.2     1  UNL1        0.2485
      2 O           5.6609    0.2081   25.5030 O.2     1  UNL1       -0.2726
      3 N           4.2664   -1.9780   25.3416 N.am    1  UNL1       -0.2823
      4 H           3.8265   -2.7429   25.7783 H       1  UNL1        0.1549
      5 C           7.6334   -3.9831   28.7171 C.3     1  UNL1        0.0949
      6 C           6.8439   -3.0717   27.8249 C.2     1  UNL1        0.2269
      7 O           7.0020   -3.1582   26.3358 O.2     1  UNL1       -0.2748
      8 N           5.8965   -2.0737   28.4218 N.am    1  UNL1       -0.2655
      9 C           5.6345   -1.8723   29.8850 C.3     1  UNL1        0.1206
     10 C           4.6208   -0.7760   30.0279 C.ar    1  UNL1       -0.0030
     11 C           3.9826   -0.1498   31.2322 C.ar    1  UNL1        0.0155
     12 C           2.9798    0.9526   31.0618 C.ar    1  UNL1        0.1055
     13 C           2.6153    1.4288   29.6869 C.ar    1  UNL1        0.0181
     14 C           3.2535    0.8027   28.4825 C.ar    1  UNL1       -0.0011
     15 C           4.2562   -0.2997   28.6530 C.ar    1  UNL1        0.0022
     16 C           5.0447   -1.1017   27.6604 C.3     1  UNL1        0.1750
     17 S           2.3416    1.5788   32.2662 S.O2    1  UNL1        0.0112
     18 O           1.0064    1.5290   31.5845 O.2     1  UNL1       -0.1685
     19 O           3.6768    1.6286   32.9478 O.2     1  UNL1       -0.1685
     20 C           1.7034    2.2050   33.4705 C.3     1  UNL1        0.1875
     21 C           2.5597    2.7507   34.5747 C.3     1  UNL1        0.1629
     22 O           2.5132    2.1268   35.9380 O.3     1  UNL1       -0.3801
     23 H           1.6363    2.2673   36.3281 H       1  UNL1        0.2105
     24 C           4.2125   -1.8335   23.8496 C.ar    1  UNL1        0.0503
     25 C           5.1459   -2.6278   22.9849 C.ar    1  UNL1        0.0144
     26 C           5.0920   -2.4832   21.4928 C.ar    1  UNL1       -0.0002
     27 C           4.1045   -1.5443   20.8656 C.ar    1  UNL1        0.0182
     28 C           3.1711   -0.7500   21.7303 C.ar    1  UNL1       -0.0002
     29 C           3.2250   -0.8946   23.2224 C.ar    1  UNL1        0.0144
     30 C           4.0505   -1.3997   19.3735 C.3     1  UNL1        0.2827
     31 O           4.6034   -0.0100   19.4881 O.3     1  UNL1       -0.3692
     32 H           4.6896    0.3777   18.6031 H       1  UNL1        0.2112
     33 C           3.9965   -1.2552   17.8815 C.3     1  UNL1        0.4311
     34 F           3.9424   -1.1106   16.3894 F       1  UNL1       -0.1669
     35 F           5.4943   -1.3100   17.8219 F       1  UNL1       -0.1669
     36 F           3.1147   -1.2126   17.8089 F       1  UNL1       -0.1669
     37 C           3.4977   -2.7894   19.2589 C.3     1  UNL1        0.4311
     38 F           2.9447   -4.1791   19.1444 F       1  UNL1       -0.1669
     39 F           2.7124   -2.6244   19.6340 F       1  UNL1       -0.1669
     40 F           4.5981   -3.5644   18.5967 F       1  UNL1       -0.1669
@<TRIPOS>BOND
     1     5     6    1
     2     6     7    2
     3     6     8   am
     4     8     9    1
     5     9    10    1
     6    10    11   ar
     7    11    12   ar
     8    12    17    1
     9    17    18    2
    10    17    19    2
    11    17    20    1
    12    20    21    1
    13    21    22    1
    14    12    13   ar
    15    13    14   ar
    16    14    15   ar
    17    15    16    1
    18    16     1    1
    19     1     2    2
    20     1     3   am
    21     3    24    1
    22    24    25   ar
    23    25    26   ar
    24    26    27   ar
    25    27    30    1
    26    30    31    1
    27    30    33    1
    28    33    34    1
    29    33    35    1
    30    33    36    1
    31    30    37    1
    32    37    38    1
    33    37    39    1
    34    37    40    1
    35    27    28   ar
    36    28    29   ar
    37    16     8    1
    38    29    24   ar
    39    15    10   ar
    40    22    23    1
    41     3     4    1
    42    31    32    1
@<TRIPOS>MOLECULE
*****
 40 42 0 0 0
SMALL
GASTEIGER

@<TRIPOS>ATOM
      1 C          -1.4740    3.4949   20.1751 C.2     1  UNL1        0.2485
      2 O          -2.6729    3.2102   19.3199 O.2     1  UNL1       -0.2726
      3 N          -1.6541    4.0327   21.5639 N.am    1  UNL1       -0.2823
      4 H          -0.8673    4.2196   22.1253 H       1  UNL1        0.1549
      5 C           1.4904    6.6129   18.1438 C.3     1  UNL1        0.0949
      6 C           0.4850    5.7102   18.7953 C.2     1  UNL1        0.2269
      7 O          -0.8406    6.2575   19.2345 O.2     1  UNL1       -0.2748
      8 N           0.8054    4.2603   19.0075 N.am    1  UNL1       -0.2655
      9 C           2.0825    3.5740   18.6228 C.3     1  UNL1        0.1206
     10 C           1.9713    2.1316   19.0193 C.ar    1  UNL1       -0.0030
     11 C           2.9217    0.9786   18.8882 C.ar    1  UNL1        0.0155
     12 C           2.5262   -0.3797   19.3869 C.ar    1  UNL1        0.1055
     13 C           1.1804   -0.5848   20.0167 C.ar    1  UNL1        0.0181
     14 C           0.2300    0.5682   20.1477 C.ar    1  UNL1       -0.0011
     15 C           0.6255    1.9265   19.6490 C.ar    1  UNL1        0.0022
     16 C          -0.0951    3.2420   19.6418 C.3     1  UNL1        0.1750
     17 S           3.4766   -1.5328   19.2558 S.O2    1  UNL1        0.0112
     18 O           3.2682   -1.8691   20.7027 O.2     1  UNL1       -0.1685
     19 O           3.6851   -1.1965   17.8090 O.2     1  UNL1       -0.1685
     20 C           4.4269   -2.6859   19.1247 C.3     1  UNL1        0.1875
     21 C           3.9116   -4.0933   19.1865 C.3     1  UNL1        0.1629
     22 O           4.0423   -4.8849   20.4538 O.3     1  UNL1       -0.3801
     23 H           4.9807   -5.0474   20.6382 H       1  UNL1        0.2105
     24 C          -3.0331    4.2855   22.0973 C.ar    1  UNL1        0.0503
     25 C          -3.8073    5.4847   21.6363 C.ar    1  UNL1        0.0144
     26 C          -5.1863    5.7376   22.1696 C.ar    1  UNL1       -0.0002
     27 C          -5.7910    4.7913   23.1640 C.ar    1  UNL1        0.0182
     28 C          -5.0168    3.5921   23.6250 C.ar    1  UNL1       -0.0002
     29 C          -3.6378    3.3392   23.0916 C.ar    1  UNL1        0.0144
     30 C          -7.1700    5.0441   23.6974 C.3     1  UNL1        0.2827
     31 O          -7.7512    4.7009   22.3578 O.3     1  UNL1       -0.3692
     32 H          -8.7172    4.7811   22.3944 H       1  UNL1        0.2112
     33 C          -8.5489    5.2969   24.2309 C.3     1  UNL1        0.4311
     34 F          -9.9279    5.5498   24.7644 F       1  UNL1       -0.1669
     35 F          -8.9195    3.8711   23.9487 F       1  UNL1       -0.1669
     36 F          -8.4310    6.1508   24.4348 F       1  UNL1       -0.1669
     37 C          -6.5888    5.3873   25.0370 C.3     1  UNL1        0.4311
     38 F          -6.0076    5.7304   26.3766 F       1  UNL1       -0.1669
     39 F          -6.8232    4.6401   25.4510 F       1  UNL1       -0.1669
     40 F          -5.9909    6.7481   24.8355 F       1  UNL1       -0.1669
@<TRIPOS>BOND
     1     5     6    1
     2     6     7    2
     3     6     8   am
     4     8     9    1
     5     9    10    1
     6    10    11   ar
     7    11    12   ar
     8    12    17    1
     9    17    18    2
    10    17    19    2
    11    17    20    1
    12    20    21    1
    13    21    22    1
    14    12    13   ar
    15    13    14   ar
    16    14    15   ar
    17    15    16    1
    18    16     1    1
    19     1     2    2
    20     1     3   am
    21     3    24    1
    22    24    25   ar
    23    25    26   ar
    24    26    27   ar
    25    27    30    1
    26    30    31    1
    27    30    33    1
    28    33    34    1
    29    33    35    1
    30    33    36    1
    31    30    37    1
    32    37    38    1
    33    37    39    1
    34    37    40    1
    35    27    28   ar
    36    28    29   ar
    37    16     8    1
    38    29    24   ar
    39    15    10   ar
    40    22    23    1
    41     3     4    1
    42    31    32    1
@<TRIPOS>MOLECULE
*****
 40 42 0 0 0
SMALL
GASTEIGER

@<TRIPOS>ATOM
      1 C          -0.3095    2.8915   20.8670 C.2     1  UNL1        0.2485
      2 O          -1.6550    2.2808   20.6093 O.2     1  UNL1       -0.2726
      3 N          -0.1265    3.8495   22.0067 N.am    1  UNL1       -0.2823
      4 H           0.7566    4.2504   22.1759 H       1  UNL1        0.1549
      5 C           1.9082    5.6869   17.7201 C.3     1  UNL1        0.0949
      6 C           1.1442    4.8886   18.7344 C.2     1  UNL1        0.2269
      7 O           0.0031    5.5167   19.4782 O.2     1  UNL1       -0.2748
      8 N           1.5213    3.4622   19.0049 N.am    1  UNL1       -0.2655
      9 C           2.6329    2.7033   18.3427 C.3     1  UNL1        0.1206
     10 C           2.6517    1.3164   18.9136 C.ar    1  UNL1       -0.0030
     11 C           3.5283    0.1303   18.6403 C.ar    1  UNL1        0.0155
     12 C           3.3049   -1.1542   19.3821 C.ar    1  UNL1        0.1055
     13 C           2.2050   -1.2525   20.3973 C.ar    1  UNL1        0.0181
     14 C           1.3284   -0.0664   20.6706 C.ar    1  UNL1       -0.0011
     15 C           1.5518    1.2180   19.9287 C.ar    1  UNL1        0.0022
     16 C           0.8532    2.5442   19.9851 C.3     1  UNL1        0.1750
     17 S           4.1815   -2.3403   19.1089 S.O2    1  UNL1        0.0112
     18 O           3.9190   -2.8534   20.4937 O.2     1  UNL1       -0.1685
     19 O           4.4440   -1.8273   17.7240 O.2     1  UNL1       -0.1685
     20 C           5.0581   -3.5264   18.8355 C.3     1  UNL1        0.1875
     21 C           4.4551   -4.8957   18.7276 C.3     1  UNL1        0.1629
     22 O           3.8391   -5.5411   19.9334 O.3     1  UNL1       -0.3801
     23 H           4.5281   -5.7187   20.5926 H       1  UNL1        0.2105
     24 C          -1.2892    4.1968   22.8886 C.ar    1  UNL1        0.0503
     25 C          -2.1841    5.3465   22.5317 C.ar    1  UNL1        0.0144
     26 C          -3.3467    5.6937   23.4136 C.ar    1  UNL1       -0.0002
     27 C          -3.6144    4.8912   24.6523 C.ar    1  UNL1        0.0182
     28 C          -2.7195    3.7415   25.0091 C.ar    1  UNL1       -0.0002
     29 C          -1.5569    3.3943   24.1272 C.ar    1  UNL1        0.0144
     30 C          -4.7771    5.2384   25.5342 C.3     1  UNL1        0.2827
     31 O          -3.8480    5.9314   26.4864 O.3     1  UNL1       -0.3692
     32 H          -4.3566    6.2924   27.2293 H       1  UNL1        0.2112
     33 C          -5.9398    5.5856   26.4160 C.3     1  UNL1        0.4311
     34 F          -7.1024    5.9327   27.2979 F       1  UNL1       -0.1669
     35 F          -5.3731    4.7215   27.5033 F       1  UNL1       -0.1669
     36 F          -6.3556    6.1170   25.8423 F       1  UNL1       -0.1669
     37 C          -5.7061    4.5455   24.5820 C.3     1  UNL1        0.4311
     38 F          -6.6352    3.8524   23.6299 F       1  UNL1       -0.1669
     39 F          -5.6698    3.7448   24.9591 F       1  UNL1       -0.1669
     40 F          -6.1019    5.6206   23.6138 F       1  UNL1       -0.1669
@<TRIPOS>BOND
     1     5     6    1
     2     6     7    2
     3     6     8   am
     4     8     9    1
     5     9    10    1
     6    10    11   ar
     7    11    12   ar
     8    12    17    1
     9    17    18    2
    10    17    19    2
    11    17    20    1
    12    20    21    1
    13    21    22    1
    14    12    13   ar
    15    13    14   ar
    16    14    15   ar
    17    15    16    1
    18    16     1    1
    19     1     2    2
    20     1     3   am
    21     3    24    1
    22    24    25   ar
    23    25    26   ar
    24    26    27   ar
    25    27    30    1
    26    30    31    1
    27    30    33    1
    28    33    34    1
    29    33    35    1
    30    33    36    1
    31    30    37    1
    32    37    38    1
    33    37    39    1
    34    37    40    1
    35    27    28   ar
    36    28    29   ar
    37    16     8    1
    38    29    24   ar
    39    15    10   ar
    40    22    23    1
    41     3     4    1
    42    31    32    1
@<TRIPOS>MOLECULE
*****
 40 42 0 0 0
SMALL
GASTEIGER

@<TRIPOS>ATOM
      1 C          -1.8871    3.3036   21.0810 C.2     1  UNL1        0.2485
      2 O          -3.3069    2.8242   21.0189 O.2     1  UNL1       -0.2726
      3 N          -1.4353    4.1638   22.2240 N.am    1  UNL1       -0.2823
      4 H          -0.5033    4.4785   22.2648 H       1  UNL1        0.1549
      5 C          -1.5260    5.1338   16.7043 C.3     1  UNL1        0.0949
      6 C          -1.7211    4.6251   18.1018 C.2     1  UNL1        0.2269
      7 O          -2.7948    5.2109   18.9701 O.2     1  UNL1       -0.2748
      8 N          -0.8426    3.5304   18.6310 N.am    1  UNL1       -0.2655
      9 C           0.2664    2.8510   17.8837 C.3     1  UNL1        0.1206
     10 C           0.8755    1.8237   18.7913 C.ar    1  UNL1       -0.0030
     11 C           2.0026    0.8535   18.5955 C.ar    1  UNL1        0.0155
     12 C           2.3971   -0.0722   19.7078 C.ar    1  UNL1        0.1055
     13 C           1.6645   -0.0276   21.0160 C.ar    1  UNL1        0.0181
     14 C           0.5375    0.9426   21.2118 C.ar    1  UNL1       -0.0011
     15 C           0.1430    1.8682   20.0995 C.ar    1  UNL1        0.0022
     16 C          -0.9189    2.9230   20.0004 C.3     1  UNL1        0.1750
     17 S           3.5242   -1.0424   19.5121 S.O2    1  UNL1        0.0112
     18 O           4.2502   -0.0305   18.6762 O.2     1  UNL1       -0.1685
     19 O           2.7982   -2.0544   20.3480 O.2     1  UNL1       -0.1685
     20 C           4.6513   -2.0127   19.3163 C.3     1  UNL1        0.1875
     21 C           5.1221   -2.3460   17.9316 C.3     1  UNL1        0.1629
     22 O           6.4951   -1.9369   17.4875 O.3     1  UNL1       -0.3801
     23 H           6.5472   -0.9691   17.4481 H       1  UNL1        0.2105
     24 C          -2.4034    4.5443   23.3046 C.ar    1  UNL1        0.0503
     25 C          -2.7176    3.5752   24.4056 C.ar    1  UNL1        0.0144
     26 C          -3.6858    3.9558   25.4862 C.ar    1  UNL1       -0.0002
     27 C          -4.3397    5.3055   25.4659 C.ar    1  UNL1        0.0182
     28 C          -4.0256    6.2747   24.3650 C.ar    1  UNL1       -0.0002
     29 C          -3.0574    5.8941   23.2843 C.ar    1  UNL1        0.0144
     30 C          -5.3079    5.6862   26.5465 C.3     1  UNL1        0.2827
     31 O          -4.2421    5.4665   27.5789 O.3     1  UNL1       -0.3692
     32 H          -4.6027    5.6512   28.4603 H       1  UNL1        0.2112
     33 C          -6.2762    6.0669   27.6271 C.3     1  UNL1        0.4311
     34 F          -7.2444    6.4476   28.7076 F       1  UNL1       -0.1669
     35 F          -5.3566    7.1689   28.0628 F       1  UNL1       -0.1669
     36 F          -6.8849    5.4484   27.4495 F       1  UNL1       -0.1669
     37 C          -6.3737    5.9059   25.5141 C.3     1  UNL1        0.4311
     38 F          -7.4395    6.1257   24.4817 F       1  UNL1       -0.1669
     39 F          -6.4425    6.7832   25.6150 F       1  UNL1       -0.1669
     40 F          -6.6447    4.5329   24.9742 F       1  UNL1       -0.1669
@<TRIPOS>BOND
     1     5     6    1
     2     6     7    2
     3     6     8   am
     4     8     9    1
     5     9    10    1
     6    10    11   ar
     7    11    12   ar
     8    12    17    1
     9    17    18    2
    10    17    19    2
    11    17    20    1
    12    20    21    1
    13    21    22    1
    14    12    13   ar
    15    13    14   ar
    16    14    15   ar
    17    15    16    1
    18    16     1    1
    19     1     2    2
    20     1     3   am
    21     3    24    1
    22    24    25   ar
    23    25    26   ar
    24    26    27   ar
    25    27    30    1
    26    30    31    1
    27    30    33    1
    28    33    34    1
    29    33    35    1
    30    33    36    1
    31    30    37    1
    32    37    38    1
    33    37    39    1
    34    37    40    1
    35    27    28   ar
    36    28    29   ar
    37    16     8    1
    38    29    24   ar
    39    15    10   ar
    40    22    23    1
    41     3     4    1
    42    31    32    1
@<TRIPOS>MOLECULE
*****
 40 42 0 0 0
SMALL
GASTEIGER

@<TRIPOS>ATOM
      1 C           1.4158    0.1892   20.8813 C.2     1  UNL1        0.2485
      2 O           0.0969   -0.4868   20.6504 O.2     1  UNL1       -0.2726
      3 N           1.4580    1.6345   21.2807 N.am    1  UNL1       -0.2823
      4 H           2.3236    2.0783   21.4323 H       1  UNL1        0.1549
      5 C           3.8058   -0.6609   16.8563 C.3     1  UNL1        0.0949
      6 C           2.9803   -0.3386   18.0665 C.2     1  UNL1        0.2269
      7 O           1.7234    0.4675   17.9240 O.2     1  UNL1       -0.2748
      8 N           3.4116   -0.8226   19.4192 N.am    1  UNL1       -0.2655
      9 C           4.6378   -1.6341   19.7155 C.3     1  UNL1        0.1206
     10 C           4.6766   -1.8930   21.1925 C.ar    1  UNL1       -0.0030
     11 C           5.6512   -2.6379   22.0557 C.ar    1  UNL1        0.0155
     12 C           5.4236   -2.7312   23.5354 C.ar    1  UNL1        0.1055
     13 C           4.2214   -2.0797   24.1518 C.ar    1  UNL1        0.0181
     14 C           3.2467   -1.3349   23.2887 C.ar    1  UNL1       -0.0011
     15 C           3.4743   -1.2415   21.8090 C.ar    1  UNL1        0.0022
     16 C           2.6925   -0.5800   20.7130 C.3     1  UNL1        0.1750
     17 S           6.3984   -3.4761   24.3986 S.O2    1  UNL1        0.0112
     18 O           6.5526   -4.5152   23.3280 O.2     1  UNL1       -0.1685
     19 O           6.2441   -2.4370   25.4693 O.2     1  UNL1       -0.1685
     20 C           7.3730   -4.2209   25.2619 C.3     1  UNL1        0.1875
     21 C           6.9784   -5.5281   25.8828 C.3     1  UNL1        0.1629
     22 O           6.1003   -5.5462   27.0987 O.3     1  UNL1       -0.3801
     23 H           6.5741   -5.1482   27.8457 H       1  UNL1        0.2105
     24 C           0.1812    2.4037   21.4490 C.ar    1  UNL1        0.0503
     25 C          -0.6126    2.8125   20.2437 C.ar    1  UNL1        0.0144
     26 C          -1.8893    3.5817   20.4120 C.ar    1  UNL1       -0.0002
     27 C          -2.3722    3.9420   21.7857 C.ar    1  UNL1        0.0182
     28 C          -1.5784    3.5331   22.9910 C.ar    1  UNL1       -0.0002
     29 C          -0.3017    2.7640   22.8226 C.ar    1  UNL1        0.0144
     30 C          -3.6490    4.7111   21.9541 C.3     1  UNL1        0.2827
     31 O          -3.0262    5.8940   21.2736 O.3     1  UNL1       -0.3692
     32 H          -3.6704    6.6179   21.2297 H       1  UNL1        0.2112
     33 C          -4.9257    5.4802   22.1226 C.3     1  UNL1        0.4311
     34 F          -6.2025    6.2493   22.2910 F       1  UNL1       -0.1669
     35 F          -4.2316    6.4283   23.0550 F       1  UNL1       -0.1669
     36 F          -5.4245    4.9800   21.5882 F       1  UNL1       -0.1669
     37 C          -4.2717    3.5283   22.6345 C.3     1  UNL1        0.4311
     38 F          -4.8945    2.3453   23.3149 F       1  UNL1       -0.1669
     39 F          -4.3094    3.0019   21.9231 F       1  UNL1       -0.1669
     40 F          -4.4343    3.9723   24.0580 F       1  UNL1       -0.1669
@<TRIPOS>BOND
     1     5     6    1
     2     6     7    2
     3     6     8   am
     4     8     9    1
     5     9    10    1
     6    10    11   ar
     7    11    12   ar
     8    12    17    1
     9    17    18    2
    10    17    19    2
    11    17    20    1
    12    20    21    1
    13    21    22    1
    14    12    13   ar
    15    13    14   ar
    16    14    15   ar
    17    15    16    1
    18    16     1    1
    19     1     2    2
    20     1     3   am
    21     3    24    1
    22    24    25   ar
    23    25    26   ar
    24    26    27   ar
    25    27    30    1
    26    30    31    1
    27    30    33    1
    28    33    34    1
    29    33    35    1
    30    33    36    1
    31    30    37    1
    32    37    38    1
    33    37    39    1
    34    37    40    1
    35    27    28   ar
    36    28    29   ar
    37    16     8    1
    38    29    24   ar
    39    15    10   ar
    40    22    23    1
    41     3     4    1
    42    31    32    1
