@<TRIPOS>MOLECULE
*****
 48 53 0 0 0
SMALL
GASTEIGER

@<TRIPOS>ATOM
      1 C           1.2408    1.4947   28.0529 C.3     1  UNL1        0.1244
      2 N           1.5787    0.2305   28.7861 N.3     1  UNL1       -0.2823
      3 C           2.6545   -0.7690   28.4802 C.3     1  UNL1        0.1560
      4 C           3.6582   -0.7512   27.3655 C.2     1  UNL1        0.2457
      5 O           4.5254   -1.9698   27.4792 O.2     1  UNL1       -0.2730
      6 N           3.8337    0.2706   26.2814 N.am    1  UNL1       -0.2533
      7 C           3.0492    1.5269   26.0443 C.ar    1  UNL1        0.0518
      8 C           3.5541    2.2697   24.8430 C.ar    1  UNL1        0.0146
      9 C           2.9050    3.5574   24.4300 C.ar    1  UNL1        0.0013
     10 C           1.7511    4.1022   25.2184 C.ar    1  UNL1       -0.0002
     11 C           1.2462    3.3594   26.4197 C.ar    1  UNL1       -0.0014
     12 C           1.8952    2.0717   26.8326 C.ar    1  UNL1        0.0118
     13 H           0.7148   -0.3116   28.7723 H       1  UNL1        0.1243
     14 C           0.4562    2.7511   27.8157 C.ar    1  UNL1       -0.0019
     15 C           0.9121    4.0455   28.4211 C.ar    1  UNL1       -0.0026
     16 C           0.1276    5.3018   28.1840 C.ar    1  UNL1       -0.0003
     17 C          -1.1130    5.2635   27.3415 C.ar    1  UNL1       -0.0000
     18 C          -1.5688    3.9691   26.7362 C.ar    1  UNL1       -0.0003
     19 C          -0.7843    2.7128   26.9733 C.ar    1  UNL1       -0.0026
     20 C          -2.8093    3.9308   25.8937 C.ar    1  UNL1       -0.0000
     21 C          -2.7269    3.5115   24.4559 C.ar    1  UNL1       -0.0000
     22 C          -3.9674    3.4732   23.6135 C.ar    1  UNL1       -0.0000
     23 C          -5.2903    3.8543   24.2088 C.ar    1  UNL1        0.0000
     24 C          -5.3728    4.2737   25.6467 C.ar    1  UNL1       -0.0000
     25 C          -4.1323    4.3120   26.4891 C.ar    1  UNL1       -0.0000
     26 C           0.2372    1.4770   29.1675 C.3     1  UNL1        0.2256
     27 C          -0.8406    0.4340   29.1897 C.2     1  UNL1        0.0920
     28 O          -0.9845   -0.5204   28.0414 O.co2   1  UNL1       -0.5455
     29 O          -1.7746    0.3454   30.3601 O.co2   1  UNL1       -0.5455
     30 O           0.3115    2.5021   30.2600 O.3     1  UNL1       -0.4426
     31 C           1.9436    3.9130   34.9872 C.3     1  UNL1        0.0523
     32 C           1.9716    2.9508   33.8367 C.ar    1  UNL1        0.0652
     33 C           2.8436    1.7319   33.8994 C.ar    1  UNL1        0.0297
     34 C           2.8716    0.7698   32.7490 C.ar    1  UNL1        0.0652
     35 C           3.7437   -0.4491   32.8117 C.3     1  UNL1        0.0523
     36 N           2.0276    1.0265   31.5359 N.ar    1  UNL1       -0.1986
     37 C           1.1555    2.2454   31.4732 C.ar    1  UNL1        0.3196
     38 N           1.1276    3.2075   32.6236 N.ar    1  UNL1       -0.1986
     39 C           4.9403    0.0003   25.3054 C.3     1  UNL1        0.1292
     40 C           4.8051   -1.1113   24.3074 C.ar    1  UNL1        0.0531
     41 C           3.7288   -1.0559   23.2642 C.ar    1  UNL1        0.1422
     42 F           2.7092    0.0280   23.0757 F       1  UNL1       -0.2043
     43 C           3.5936   -2.1675   22.2662 C.ar    1  UNL1        0.0591
     44 C           4.5349   -3.3345   22.3113 C.ar    1  UNL1        0.1446
     45 F           4.3998   -4.4461   21.3133 F       1  UNL1       -0.2040
     46 C           5.6113   -3.3899   23.3545 C.ar    1  UNL1        0.0591
     47 C           5.7465   -2.2783   24.3525 C.ar    1  UNL1        0.1422
     48 F           6.8229   -2.3337   25.3958 F       1  UNL1       -0.2043
@<TRIPOS>UNITY_ATOM_ATTR
28 1
charge -1
@<TRIPOS>BOND
     1    31    32    1
     2    32    33   ar
     3    33    34   ar
     4    34    35    1
     5    34    36   ar
     6    36    37   ar
     7    37    30    1
     8    26    30    1
     9    26    27    1
    10    27    28   ar
    11    27    29   ar
    12    26     1    1
    13     1    14    1
    14    14    15   ar
    15    15    16   ar
    16    16    17   ar
    17    17    18   ar
    18    18    20    1
    19    20    21   ar
    20    21    22   ar
    21    22    23   ar
    22    23    24   ar
    23    24    25   ar
    24    18    19   ar
    25     1     2    1
    26     2     3    1
    27     3     4    1
    28     4     5    2
    29     4     6   am
    30     6    39    1
    31    39    40    1
    32    40    41   ar
    33    41    42    1
    34    41    43   ar
    35    43    44   ar
    36    44    45    1
    37    44    46   ar
    38    46    47   ar
    39    47    48    1
    40     6     7    1
    41     7     8   ar
    42     8     9   ar
    43     9    10   ar
    44    10    11   ar
    45    11    12   ar
    46    37    38   ar
    47    38    32   ar
    48    12     1    1
    49    19    14   ar
    50    47    40   ar
    51    12     7   ar
    52    25    20   ar
    53     2    13    1
@<TRIPOS>MOLECULE
*****
 48 53 0 0 0
SMALL
GASTEIGER

@<TRIPOS>ATOM
      1 C           1.2447    1.5443   28.0440 C.3     1  UNL1        0.1244
      2 N           1.5963    0.2743   28.7604 N.3     1  UNL1       -0.2823
      3 C           2.6714   -0.7185   28.4306 C.3     1  UNL1        0.1560
      4 C           3.6601   -0.6865   27.3030 C.2     1  UNL1        0.2457
      5 O           4.5328   -1.9031   27.3934 O.2     1  UNL1       -0.2730
      6 N           3.8180    0.3464   26.2268 N.am    1  UNL1       -0.2533
      7 C           3.0263    1.6022   26.0122 C.ar    1  UNL1        0.0518
      8 C           3.5129    2.3584   24.8117 C.ar    1  UNL1        0.0146
      9 C           2.8541    3.6478   24.4199 C.ar    1  UNL1        0.0013
     10 C           1.7089    4.1810   25.2286 C.ar    1  UNL1       -0.0002
     11 C           1.2223    3.4248   26.4292 C.ar    1  UNL1       -0.0014
     12 C           1.8810    2.1354   26.8209 C.ar    1  UNL1        0.0118
     13 H           0.7341   -0.2707   28.7526 H       1  UNL1        0.1243
     14 C           0.4528    2.8002   27.8294 C.ar    1  UNL1       -0.0019
     15 C           0.9182    4.0924   28.4324 C.ar    1  UNL1       -0.0026
     16 C           0.1265    5.3483   28.2179 C.ar    1  UNL1       -0.0003
     17 C          -1.1308    5.3118   27.4004 C.ar    1  UNL1       -0.0000
     18 C          -1.5961    4.0195   26.7975 C.ar    1  UNL1       -0.0003
     19 C          -0.8043    2.7638   27.0120 C.ar    1  UNL1       -0.0026
     20 C          -2.8532    3.9831   25.9800 C.ar    1  UNL1       -0.0000
     21 C          -4.1548    4.4175   26.5860 C.ar    1  UNL1       -0.0000
     22 C          -5.4119    4.3810   25.7685 C.ar    1  UNL1       -0.0000
     23 C          -5.3676    3.9102   24.3450 C.ar    1  UNL1        0.0000
     24 C          -4.0659    3.4758   23.7390 C.ar    1  UNL1       -0.0000
     25 C          -2.8088    3.5122   24.5564 C.ar    1  UNL1       -0.0000
     26 C           0.2559    1.5123   29.1715 C.3     1  UNL1        0.2256
     27 C          -0.8213    0.4687   29.1950 C.2     1  UNL1        0.0920
     28 O          -1.7546    0.3803   30.3660 O.co2   1  UNL1       -0.5455
     29 O          -0.9652   -0.4865   28.0475 O.co2   1  UNL1       -0.5455
     30 O           0.3443    2.5238   30.2756 O.3     1  UNL1       -0.4426
     31 C           3.7771   -0.4765   32.7685 C.3     1  UNL1        0.0523
     32 C           2.9068    0.7446   32.7288 C.ar    1  UNL1        0.0652
     33 C           2.8827    1.6867   33.8959 C.ar    1  UNL1        0.0297
     34 C           2.0124    2.9078   33.8561 C.ar    1  UNL1        0.0652
     35 C           1.9883    3.8498   35.0232 C.3     1  UNL1        0.0523
     36 N           1.1664    3.1868   32.6494 N.ar    1  UNL1       -0.1986
     37 C           1.1905    2.2447   31.4824 C.ar    1  UNL1        0.3196
     38 N           2.0607    1.0236   31.5221 N.ar    1  UNL1       -0.1986
     39 C           4.9125    0.0894   25.2337 C.3     1  UNL1        0.1292
     40 C           4.7923   -1.0475   24.2626 C.ar    1  UNL1        0.0531
     41 C           5.7207   -2.2213   24.3635 C.ar    1  UNL1        0.1422
     42 F           6.8184   -2.4206   25.3662 F       1  UNL1       -0.2043
     43 C           5.6007   -3.3582   23.3924 C.ar    1  UNL1        0.0591
     44 C           4.5521   -3.3213   22.3205 C.ar    1  UNL1        0.1446
     45 F           4.4319   -4.4582   21.3493 F       1  UNL1       -0.2040
     46 C           3.6237   -2.1475   22.2196 C.ar    1  UNL1        0.0591
     47 C           3.7438   -1.0106   23.1906 C.ar    1  UNL1        0.1422
     48 F           2.8153    0.1632   23.0898 F       1  UNL1       -0.2043
@<TRIPOS>UNITY_ATOM_ATTR
28 1
charge -1
@<TRIPOS>BOND
     1    31    32    1
     2    32    33   ar
     3    33    34   ar
     4    34    35    1
     5    34    36   ar
     6    36    37   ar
     7    37    30    1
     8    26    30    1
     9    26    27    1
    10    27    28   ar
    11    27    29   ar
    12    26     1    1
    13     1    14    1
    14    14    15   ar
    15    15    16   ar
    16    16    17   ar
    17    17    18   ar
    18    18    20    1
    19    20    21   ar
    20    21    22   ar
    21    22    23   ar
    22    23    24   ar
    23    24    25   ar
    24    18    19   ar
    25     1     2    1
    26     2     3    1
    27     3     4    1
    28     4     5    2
    29     4     6   am
    30     6    39    1
    31    39    40    1
    32    40    41   ar
    33    41    42    1
    34    41    43   ar
    35    43    44   ar
    36    44    45    1
    37    44    46   ar
    38    46    47   ar
    39    47    48    1
    40     6     7    1
    41     7     8   ar
    42     8     9   ar
    43     9    10   ar
    44    10    11   ar
    45    11    12   ar
    46    37    38   ar
    47    38    32   ar
    48    12     1    1
    49    19    14   ar
    50    47    40   ar
    51    12     7   ar
    52    25    20   ar
    53     2    13    1
@<TRIPOS>MOLECULE
*****
 48 53 0 0 0
SMALL
GASTEIGER

@<TRIPOS>ATOM
      1 C           1.7916    2.0514   23.6856 C.3     1  UNL1        0.1244
      2 N           2.7813    1.2015   24.4259 N.3     1  UNL1       -0.2823
      3 C           3.4128   -0.0890   23.9948 C.3     1  UNL1        0.1560
      4 C           3.2106   -0.8483   22.7170 C.2     1  UNL1        0.2457
      5 O           4.0635   -2.0818   22.7500 O.2     1  UNL1       -0.2730
      6 N           2.3268   -0.5045   21.5548 N.am    1  UNL1       -0.2533
      7 C           1.4270    0.6833   21.3832 C.ar    1  UNL1        0.0518
      8 C           0.7140    0.6447   20.0641 C.ar    1  UNL1        0.0146
      9 C          -0.2372    1.7436   19.6933 C.ar    1  UNL1        0.0013
     10 C          -0.4754    2.8812   20.6417 C.ar    1  UNL1       -0.0002
     11 C           0.2376    2.9198   21.9608 C.ar    1  UNL1       -0.0014
     12 C           1.1888    1.8209   22.3315 C.ar    1  UNL1        0.0118
     13 H           2.3177    0.9775   25.3064 H       1  UNL1        0.1243
     14 C           0.8918    3.2393   23.5141 C.ar    1  UNL1       -0.0019
     15 C           1.4353    4.5157   22.9436 C.ar    1  UNL1       -0.0026
     16 C           0.5356    5.7036   22.7721 C.ar    1  UNL1       -0.0003
     17 C          -0.9078    5.6150   23.1711 C.ar    1  UNL1       -0.0000
     18 C          -1.4512    4.3386   23.7415 C.ar    1  UNL1       -0.0003
     19 C          -0.5515    3.1508   23.9130 C.ar    1  UNL1       -0.0026
     20 C          -2.8945    4.2501   24.1405 C.ar    1  UNL1       -0.0000
     21 C          -3.2972    4.5117   25.5615 C.ar    1  UNL1       -0.0000
     22 C          -4.7405    4.4231   25.9605 C.ar    1  UNL1       -0.0000
     23 C          -5.7810    4.0731   24.9384 C.ar    1  UNL1        0.0000
     24 C          -5.3783    3.8115   23.5173 C.ar    1  UNL1       -0.0000
     25 C          -3.9351    3.9000   23.1183 C.ar    1  UNL1       -0.0000
     26 C           1.9938    2.8107   24.9634 C.3     1  UNL1        0.2256
     27 C           3.2644    3.5757   25.1881 C.2     1  UNL1        0.0920
     28 O           4.3891    3.4681   24.2014 O.co2   1  UNL1       -0.5455
     29 O           3.4102    4.4482   26.3994 O.co2   1  UNL1       -0.5455
     30 O           0.9256    2.8050   26.0163 O.3     1  UNL1       -0.4426
     31 C           3.4490   -0.4873   29.1458 C.3     1  UNL1        0.0523
     32 C           2.1625    0.0757   28.6184 C.ar    1  UNL1        0.0652
     33 C           0.8513   -0.4446   29.1284 C.ar    1  UNL1        0.0297
     34 C          -0.4352    0.1183   28.6010 C.ar    1  UNL1        0.0652
     35 C          -1.7464   -0.4020   29.1109 C.3     1  UNL1        0.0523
     36 N          -0.4104    1.2014   27.5637 N.ar    1  UNL1       -0.1986
     37 C           0.9009    1.7217   27.0537 C.ar    1  UNL1        0.3196
     38 N           2.1873    1.1588   27.5811 N.ar    1  UNL1       -0.1986
     39 C           2.3452   -1.4773   20.4132 C.3     1  UNL1        0.1292
     40 C           3.6215   -1.7358   19.6685 C.ar    1  UNL1        0.0531
     41 C           4.5722   -0.6082   19.3960 C.ar    1  UNL1        0.1422
     42 F           4.4060    0.8288   19.7928 F       1  UNL1       -0.2043
     43 C           5.8485   -0.8666   18.6514 C.ar    1  UNL1        0.0591
     44 C           6.1739   -2.2527   18.1794 C.ar    1  UNL1        0.1446
     45 F           7.4501   -2.5112   17.4348 F       1  UNL1       -0.2040
     46 C           5.2231   -3.3803   18.4520 C.ar    1  UNL1        0.0591
     47 C           3.9468   -3.1219   19.1966 C.ar    1  UNL1        0.1422
     48 F           2.9960   -4.2496   19.4692 F       1  UNL1       -0.2043
@<TRIPOS>UNITY_ATOM_ATTR
28 1
charge -1
@<TRIPOS>BOND
     1    31    32    1
     2    32    33   ar
     3    33    34   ar
     4    34    35    1
     5    34    36   ar
     6    36    37   ar
     7    37    30    1
     8    26    30    1
     9    26    27    1
    10    27    28   ar
    11    27    29   ar
    12    26     1    1
    13     1    14    1
    14    14    15   ar
    15    15    16   ar
    16    16    17   ar
    17    17    18   ar
    18    18    20    1
    19    20    21   ar
    20    21    22   ar
    21    22    23   ar
    22    23    24   ar
    23    24    25   ar
    24    18    19   ar
    25     1     2    1
    26     2     3    1
    27     3     4    1
    28     4     5    2
    29     4     6   am
    30     6    39    1
    31    39    40    1
    32    40    41   ar
    33    41    42    1
    34    41    43   ar
    35    43    44   ar
    36    44    45    1
    37    44    46   ar
    38    46    47   ar
    39    47    48    1
    40     6     7    1
    41     7     8   ar
    42     8     9   ar
    43     9    10   ar
    44    10    11   ar
    45    11    12   ar
    46    37    38   ar
    47    38    32   ar
    48    12     1    1
    49    19    14   ar
    50    47    40   ar
    51    12     7   ar
    52    25    20   ar
    53     2    13    1
@<TRIPOS>MOLECULE
*****
 48 53 0 0 0
SMALL
GASTEIGER

@<TRIPOS>ATOM
      1 C           1.7470    2.0361   23.6607 C.3     1  UNL1        0.1244
      2 N           2.7296    1.1690   24.3906 N.3     1  UNL1       -0.2823
      3 C           3.3472   -0.1235   23.9455 C.3     1  UNL1        0.1560
      4 C           3.1347   -0.8681   22.6608 C.2     1  UNL1        0.2457
      5 O           3.9752   -2.1103   22.6799 O.2     1  UNL1       -0.2730
      6 N           2.2521   -0.5040   21.5039 N.am    1  UNL1       -0.2533
      7 C           1.3641    0.6945   21.3458 C.ar    1  UNL1        0.0518
      8 C           0.6481    0.6761   20.0278 C.ar    1  UNL1        0.0146
      9 C          -0.2927    1.7881   19.6698 C.ar    1  UNL1        0.0013
     10 C          -0.5175    2.9186   20.6298 C.ar    1  UNL1       -0.0002
     11 C           0.1984    2.9370   21.9477 C.ar    1  UNL1       -0.0014
     12 C           1.1392    1.8250   22.3057 C.ar    1  UNL1        0.0118
     13 H           2.2654    0.9411   25.2698 H       1  UNL1        0.1243
     14 C           0.8589    3.2347   23.5027 C.ar    1  UNL1       -0.0019
     15 C           1.4127    4.5092   22.9382 C.ar    1  UNL1       -0.0026
     16 C           0.5247    5.7078   22.7801 C.ar    1  UNL1       -0.0003
     17 C          -0.9173    5.6316   23.1868 C.ar    1  UNL1       -0.0000
     18 C          -1.4710    4.3571   23.7513 C.ar    1  UNL1       -0.0003
     19 C          -0.5830    3.1586   23.9093 C.ar    1  UNL1       -0.0026
     20 C          -2.9128    4.2810   24.1579 C.ar    1  UNL1       -0.0000
     21 C          -3.2902    4.3833   25.6061 C.ar    1  UNL1       -0.0000
     22 C          -4.7320    4.3072   26.0126 C.ar    1  UNL1       -0.0000
     23 C          -5.7965    4.1288   24.9711 C.ar    1  UNL1        0.0000
     24 C          -5.4192    4.0264   23.5229 C.ar    1  UNL1       -0.0000
     25 C          -3.9774    4.1025   23.1163 C.ar    1  UNL1       -0.0000
     26 C           1.9594    2.7807   24.9455 C.3     1  UNL1        0.2256
     27 C           3.2400    3.5268   25.1770 C.2     1  UNL1        0.0920
     28 O           4.3680    3.4029   24.1960 O.co2   1  UNL1       -0.5455
     29 O           3.3925    4.3966   26.3894 O.co2   1  UNL1       -0.5455
     30 O           0.8913    2.7793   25.9986 O.3     1  UNL1       -0.4426
     31 C           3.4247   -0.4853   29.1490 C.3     1  UNL1        0.0523
     32 C           2.1366    0.0711   28.6187 C.ar    1  UNL1        0.0652
     33 C           0.8269   -0.4486   29.1334 C.ar    1  UNL1        0.0297
     34 C          -0.4612    0.1078   28.6031 C.ar    1  UNL1        0.0652
     35 C          -1.7709   -0.4119   29.1178 C.3     1  UNL1        0.0523
     36 N          -0.4398    1.1837   27.5582 N.ar    1  UNL1       -0.1986
     37 C           0.8699    1.7033   27.0436 C.ar    1  UNL1        0.3196
     38 N           2.1580    1.1470   27.5738 N.ar    1  UNL1       -0.1986
     39 C           2.2585   -1.4656   20.3527 C.3     1  UNL1        0.1292
     40 C           3.5337   -1.7408   19.6123 C.ar    1  UNL1        0.0531
     41 C           3.9065   -3.1500   19.2588 C.ar    1  UNL1        0.1422
     42 F           3.1268   -4.3942   19.5657 F       1  UNL1       -0.2043
     43 C           5.1817   -3.4253   18.5184 C.ar    1  UNL1        0.0591
     44 C           6.0841   -2.2912   18.1316 C.ar    1  UNL1        0.1446
     45 F           7.3593   -2.5665   17.3912 F       1  UNL1       -0.2040
     46 C           5.7113   -0.8821   18.4851 C.ar    1  UNL1        0.0591
     47 C           4.4361   -0.6068   19.2255 C.ar    1  UNL1        0.1422
     48 F           4.0633    0.8025   19.5791 F       1  UNL1       -0.2043
@<TRIPOS>UNITY_ATOM_ATTR
28 1
charge -1
@<TRIPOS>BOND
     1    31    32    1
     2    32    33   ar
     3    33    34   ar
     4    34    35    1
     5    34    36   ar
     6    36    37   ar
     7    37    30    1
     8    26    30    1
     9    26    27    1
    10    27    28   ar
    11    27    29   ar
    12    26     1    1
    13     1    14    1
    14    14    15   ar
    15    15    16   ar
    16    16    17   ar
    17    17    18   ar
    18    18    20    1
    19    20    21   ar
    20    21    22   ar
    21    22    23   ar
    22    23    24   ar
    23    24    25   ar
    24    18    19   ar
    25     1     2    1
    26     2     3    1
    27     3     4    1
    28     4     5    2
    29     4     6   am
    30     6    39    1
    31    39    40    1
    32    40    41   ar
    33    41    42    1
    34    41    43   ar
    35    43    44   ar
    36    44    45    1
    37    44    46   ar
    38    46    47   ar
    39    47    48    1
    40     6     7    1
    41     7     8   ar
    42     8     9   ar
    43     9    10   ar
    44    10    11   ar
    45    11    12   ar
    46    37    38   ar
    47    38    32   ar
    48    12     1    1
    49    19    14   ar
    50    47    40   ar
    51    12     7   ar
    52    25    20   ar
    53     2    13    1
@<TRIPOS>MOLECULE
*****
 48 53 0 0 0
SMALL
GASTEIGER

@<TRIPOS>ATOM
      1 C           5.6877   -1.7924   24.5941 C.3     1  UNL1        0.1244
      2 N           6.4680   -1.7718   25.8750 N.3     1  UNL1       -0.2823
      3 C           6.2194   -0.9552   27.1085 C.3     1  UNL1        0.1560
      4 C           5.1291    0.0425   27.3657 C.2     1  UNL1        0.2457
      5 O           5.3017    0.5982   28.7482 O.2     1  UNL1       -0.2730
      6 N           4.0182    0.4698   26.4529 N.am    1  UNL1       -0.2533
      7 C           3.7231    0.0052   25.0575 C.ar    1  UNL1        0.0518
      8 C           2.5117    0.6893   24.4968 C.ar    1  UNL1        0.0146
      9 C           2.0433    0.3665   23.1089 C.ar    1  UNL1        0.0013
     10 C           2.7863   -0.6403   22.2816 C.ar    1  UNL1       -0.0002
     11 C           3.9977   -1.3243   22.8423 C.ar    1  UNL1       -0.0014
     12 C           4.4662   -1.0016   24.2302 C.ar    1  UNL1        0.0118
     13 H           7.4167   -1.5255   25.5924 H       1  UNL1        0.1243
     14 C           5.3927   -2.2570   23.1987 C.ar    1  UNL1       -0.0019
     15 C           4.6445   -3.5380   22.9773 C.ar    1  UNL1       -0.0026
     16 C           4.3494   -4.0027   21.5819 C.ar    1  UNL1       -0.0003
     17 C           4.8027   -3.1862   20.4079 C.ar    1  UNL1       -0.0000
     18 C           5.5509   -1.9052   20.6295 C.ar    1  UNL1       -0.0003
     19 C           5.8459   -1.4406   22.0248 C.ar    1  UNL1       -0.0026
     20 C           6.0041   -1.0888   19.4556 C.ar    1  UNL1       -0.0000
     21 C           7.3694   -0.4675   19.4564 C.ar    1  UNL1       -0.0000
     22 C           7.8227    0.3489   18.2825 C.ar    1  UNL1       -0.0000
     23 C           6.9107    0.5441   17.1077 C.ar    1  UNL1        0.0000
     24 C           5.5453   -0.0772   17.1069 C.ar    1  UNL1       -0.0000
     25 C           5.0921   -0.8937   18.2808 C.ar    1  UNL1       -0.0000
     26 C           6.7780   -2.7900   24.3369 C.3     1  UNL1        0.2256
     27 C           8.1558   -2.3190   23.9766 C.2     1  UNL1        0.0920
     28 O           8.5426   -0.8877   24.2043 O.co2   1  UNL1       -0.5455
     29 O           9.1468   -3.2792   23.3885 O.co2   1  UNL1       -0.5455
     30 O           6.4905   -4.2585   24.4401 O.3     1  UNL1       -0.4426
     31 C           8.8899   -8.4010   26.4608 C.3     1  UNL1        0.0523
     32 C           8.1600   -7.1037   26.6464 C.ar    1  UNL1        0.0652
     33 C           7.9000   -6.5804   28.0279 C.ar    1  UNL1        0.0297
     34 C           7.1702   -5.2831   28.2135 C.ar    1  UNL1        0.0652
     35 C           6.9101   -4.7598   29.5950 C.3     1  UNL1        0.0523
     36 N           6.7003   -4.5092   27.0176 N.ar    1  UNL1       -0.1986
     37 C           6.9603   -5.0325   25.6360 C.ar    1  UNL1        0.3196
     38 N           7.6902   -6.3298   25.4505 N.ar    1  UNL1       -0.1986
     39 C           3.0780    1.4978   27.0090 C.3     1  UNL1        0.1292
     40 C           1.7360    1.0809   27.5336 C.ar    1  UNL1        0.0531
     41 C           1.6285   -0.0723   28.4867 C.ar    1  UNL1        0.1422
     42 F           2.7519   -0.9137   29.0161 F       1  UNL1       -0.2043
     43 C           0.2866   -0.4892   29.0114 C.ar    1  UNL1        0.0591
     44 C          -0.9480    0.2471   28.5829 C.ar    1  UNL1        0.1446
     45 F          -2.2900   -0.1697   29.1075 F       1  UNL1       -0.2040
     46 C          -0.8406    1.4003   27.6298 C.ar    1  UNL1        0.0591
     47 C           0.5014    1.8173   27.1051 C.ar    1  UNL1        0.1422
     48 F           0.6089    2.9705   26.1519 F       1  UNL1       -0.2043
@<TRIPOS>UNITY_ATOM_ATTR
28 1
charge -1
@<TRIPOS>BOND
     1    31    32    1
     2    32    33   ar
     3    33    34   ar
     4    34    35    1
     5    34    36   ar
     6    36    37   ar
     7    37    30    1
     8    26    30    1
     9    26    27    1
    10    27    28   ar
    11    27    29   ar
    12    26     1    1
    13     1    14    1
    14    14    15   ar
    15    15    16   ar
    16    16    17   ar
    17    17    18   ar
    18    18    20    1
    19    20    21   ar
    20    21    22   ar
    21    22    23   ar
    22    23    24   ar
    23    24    25   ar
    24    18    19   ar
    25     1     2    1
    26     2     3    1
    27     3     4    1
    28     4     5    2
    29     4     6   am
    30     6    39    1
    31    39    40    1
    32    40    41   ar
    33    41    42    1
    34    41    43   ar
    35    43    44   ar
    36    44    45    1
    37    44    46   ar
    38    46    47   ar
    39    47    48    1
    40     6     7    1
    41     7     8   ar
    42     8     9   ar
    43     9    10   ar
    44    10    11   ar
    45    11    12   ar
    46    37    38   ar
    47    38    32   ar
    48    12     1    1
    49    19    14   ar
    50    47    40   ar
    51    12     7   ar
    52    25    20   ar
    53     2    13    1
@<TRIPOS>MOLECULE
*****
 48 53 0 0 0
SMALL
GASTEIGER

@<TRIPOS>ATOM
      1 C           4.0664   -0.9239   22.5485 C.3     1  UNL1        0.1244
      2 N           4.5320   -1.0457   23.9692 N.3     1  UNL1       -0.2823
      3 C           3.8636   -0.5516   25.2179 C.3     1  UNL1        0.1560
      4 C           2.5647    0.1862   25.3543 C.2     1  UNL1        0.2457
      5 O           2.3194    0.4641   26.8077 O.2     1  UNL1       -0.2730
      6 N           1.6134    0.6120   24.2756 N.am    1  UNL1       -0.2533
      7 C           1.7259    0.4054   22.7941 C.ar    1  UNL1        0.0518
      8 C           0.5507    0.9904   22.0684 C.ar    1  UNL1        0.0146
      9 C           0.4673    0.8918   20.5740 C.ar    1  UNL1        0.0013
     10 C           1.5591    0.2082   19.8053 C.ar    1  UNL1       -0.0002
     11 C           2.7342   -0.3768   20.5311 C.ar    1  UNL1       -0.0014
     12 C           2.8176   -0.2782   22.0255 C.ar    1  UNL1        0.0118
     13 H           5.4492   -0.5995   23.9766 H       1  UNL1        0.1243
     14 C           4.1790   -1.1306   21.0670 C.ar    1  UNL1       -0.0019
     15 C           3.6774   -2.4008   20.4467 C.ar    1  UNL1       -0.0026
     16 C           3.7899   -2.6075   18.9652 C.ar    1  UNL1       -0.0003
     17 C           4.4042   -1.5438   18.1041 C.ar    1  UNL1       -0.0000
     18 C           4.9059   -0.2737   18.7245 C.ar    1  UNL1       -0.0003
     19 C           4.7933   -0.0670   20.2059 C.ar    1  UNL1       -0.0026
     20 C           5.5201    0.7899   17.8634 C.ar    1  UNL1       -0.0000
     21 C           5.0966    2.2202   18.0213 C.ar    1  UNL1       -0.0000
     22 C           5.7108    3.2838   17.1603 C.ar    1  UNL1       -0.0000
     23 C           6.7487    2.9172   16.1413 C.ar    1  UNL1        0.0000
     24 C           7.1723    1.4868   15.9833 C.ar    1  UNL1       -0.0000
     25 C           6.5580    0.4233   16.8444 C.ar    1  UNL1       -0.0000
     26 C           5.3654   -1.6617   22.4121 C.3     1  UNL1        0.2256
     27 C           6.6570   -0.9014   22.3526 C.2     1  UNL1        0.0920
     28 O           6.8205    0.3625   23.1439 O.co2   1  UNL1       -0.5455
     29 O           7.7852   -1.4049   21.5020 O.co2   1  UNL1       -0.5455
     30 O           5.3726   -3.1597   22.3351 O.3     1  UNL1       -0.4426
     31 C           6.9022   -4.1680   27.1975 C.3     1  UNL1        0.0523
     32 C           6.9689   -4.4602   25.7278 C.ar    1  UNL1        0.0652
     33 C           7.8671   -5.5487   25.2195 C.ar    1  UNL1        0.0297
     34 C           7.9338   -5.8409   23.7497 C.ar    1  UNL1        0.0652
     35 C           8.8321   -6.9294   23.2414 C.3     1  UNL1        0.0523
     36 N           7.1024   -5.0446   22.7883 N.ar    1  UNL1       -0.1986
     37 C           6.2041   -3.9560   23.2966 C.ar    1  UNL1        0.3196
     38 N           6.1374   -3.6639   24.7664 N.ar    1  UNL1       -0.1986
     39 C           0.3873    1.3410   24.7397 C.3     1  UNL1        0.1292
     40 C           0.5211    2.6441   25.4705 C.ar    1  UNL1        0.0531
     41 C          -0.1956    2.8513   26.7717 C.ar    1  UNL1        0.1422
     42 F          -1.0809    1.8698   27.4810 F       1  UNL1       -0.2043
     43 C          -0.0619    4.1543   27.5025 C.ar    1  UNL1        0.0591
     44 C           0.7887    5.2502   26.9320 C.ar    1  UNL1        0.1446
     45 F           0.9225    6.5534   27.6628 F       1  UNL1       -0.2040
     46 C           1.5055    5.0431   25.6308 C.ar    1  UNL1        0.0591
     47 C           1.3717    3.7400   24.9000 C.ar    1  UNL1        0.1422
     48 F           2.0885    3.5328   23.5987 F       1  UNL1       -0.2043
@<TRIPOS>UNITY_ATOM_ATTR
28 1
charge -1
@<TRIPOS>BOND
     1    31    32    1
     2    32    33   ar
     3    33    34   ar
     4    34    35    1
     5    34    36   ar
     6    36    37   ar
     7    37    30    1
     8    26    30    1
     9    26    27    1
    10    27    28   ar
    11    27    29   ar
    12    26     1    1
    13     1    14    1
    14    14    15   ar
    15    15    16   ar
    16    16    17   ar
    17    17    18   ar
    18    18    20    1
    19    20    21   ar
    20    21    22   ar
    21    22    23   ar
    22    23    24   ar
    23    24    25   ar
    24    18    19   ar
    25     1     2    1
    26     2     3    1
    27     3     4    1
    28     4     5    2
    29     4     6   am
    30     6    39    1
    31    39    40    1
    32    40    41   ar
    33    41    42    1
    34    41    43   ar
    35    43    44   ar
    36    44    45    1
    37    44    46   ar
    38    46    47   ar
    39    47    48    1
    40     6     7    1
    41     7     8   ar
    42     8     9   ar
    43     9    10   ar
    44    10    11   ar
    45    11    12   ar
    46    37    38   ar
    47    38    32   ar
    48    12     1    1
    49    19    14   ar
    50    47    40   ar
    51    12     7   ar
    52    25    20   ar
    53     2    13    1
@<TRIPOS>MOLECULE
*****
 48 53 0 0 0
SMALL
GASTEIGER

@<TRIPOS>ATOM
      1 C           1.5404    2.3917   22.5270 C.3     1  UNL1        0.1244
      2 N           0.8538    2.8032   21.2584 N.3     1  UNL1       -0.2823
      3 C           0.7368    2.0444   19.9698 C.3     1  UNL1        0.1560
      4 C           1.2776    0.6868   19.6314 C.2     1  UNL1        0.2457
      5 O           0.9010    0.3575   18.2173 O.2     1  UNL1       -0.2730
      6 N           2.0689   -0.2473   20.4982 N.am    1  UNL1       -0.2533
      7 C           2.5148   -0.0546   21.9173 C.ar    1  UNL1        0.0518
      8 C           3.2888   -1.2395   22.4143 C.ar    1  UNL1        0.0146
      9 C           3.8276   -1.2499   23.8141 C.ar    1  UNL1        0.0013
     10 C           3.5924   -0.0754   24.7170 C.ar    1  UNL1       -0.0002
     11 C           2.8184    1.1095   24.2201 C.ar    1  UNL1       -0.0014
     12 C           2.2796    1.1199   22.8203 C.ar    1  UNL1        0.0118
     13 H           1.3028    3.6813   20.9981 H       1  UNL1        0.1243
     14 C           1.9863    2.5845   23.9462 C.ar    1  UNL1       -0.0019
     15 C           3.2692    3.3049   24.2379 C.ar    1  UNL1       -0.0026
     16 C           3.7151    3.4977   25.6571 C.ar    1  UNL1       -0.0003
     17 C           2.8781    2.9699   26.7845 C.ar    1  UNL1       -0.0000
     18 C           1.5952    2.2495   26.4927 C.ar    1  UNL1       -0.0003
     19 C           1.1494    2.0567   25.0736 C.ar    1  UNL1       -0.0026
     20 C           0.7583    1.7218   27.6200 C.ar    1  UNL1       -0.0000
     21 C          -0.4330    0.8579   27.3292 C.ar    1  UNL1       -0.0000
     22 C          -1.2700    0.3302   28.4566 C.ar    1  UNL1       -0.0000
     23 C          -0.9157    0.6663   29.8748 C.ar    1  UNL1        0.0000
     24 C           0.2756    1.5302   30.1657 C.ar    1  UNL1       -0.0000
     25 C           1.1126    2.0579   29.0384 C.ar    1  UNL1       -0.0000
     26 C           0.9996    3.7493   22.8654 C.3     1  UNL1        0.2256
     27 C           1.5461    4.9665   22.1799 C.2     1  UNL1        0.0920
     28 O           2.7620    4.8542   21.3086 O.co2   1  UNL1       -0.5455
     29 O           0.8769    6.2959   22.3658 O.co2   1  UNL1       -0.5455
     30 O          -0.0876    3.8897   23.8891 O.3     1  UNL1       -0.4426
     31 C          -3.6743    3.3705   20.1653 C.3     1  UNL1        0.0523
     32 C          -3.3185    3.5103   21.6158 C.ar    1  UNL1        0.0652
     33 C          -4.4002    3.5304   22.6549 C.ar    1  UNL1        0.0297
     34 C          -4.0443    3.6703   24.1053 C.ar    1  UNL1        0.0652
     35 C          -5.1260    3.6904   25.1444 C.3     1  UNL1        0.0523
     36 N          -2.6069    3.7900   24.5167 N.ar    1  UNL1       -0.1986
     37 C          -1.5252    3.7700   23.4776 C.ar    1  UNL1        0.3196
     38 N          -1.8810    3.6301   22.0272 N.ar    1  UNL1       -0.1986
     39 C           2.4668   -1.5459   19.8616 C.3     1  UNL1        0.1292
     40 C           3.8927   -1.7769   19.4570 C.ar    1  UNL1        0.0531
     41 C           4.6186   -0.7452   18.6455 C.ar    1  UNL1        0.1422
     42 F           4.0754    0.5645   18.1561 F       1  UNL1       -0.2043
     43 C           6.0444   -0.9762   18.2409 C.ar    1  UNL1        0.0591
     44 C           6.7442   -2.2390   18.6478 C.ar    1  UNL1        0.1446
     45 F           8.1701   -2.4700   18.2432 F       1  UNL1       -0.2040
     46 C           6.0183   -3.2707   19.4592 C.ar    1  UNL1        0.0591
     47 C           4.5926   -3.0397   19.8638 C.ar    1  UNL1        0.1422
     48 F           3.8666   -4.0715   20.6753 F       1  UNL1       -0.2043
@<TRIPOS>UNITY_ATOM_ATTR
28 1
charge -1
@<TRIPOS>BOND
     1    31    32    1
     2    32    33   ar
     3    33    34   ar
     4    34    35    1
     5    34    36   ar
     6    36    37   ar
     7    37    30    1
     8    26    30    1
     9    26    27    1
    10    27    28   ar
    11    27    29   ar
    12    26     1    1
    13     1    14    1
    14    14    15   ar
    15    15    16   ar
    16    16    17   ar
    17    17    18   ar
    18    18    20    1
    19    20    21   ar
    20    21    22   ar
    21    22    23   ar
    22    23    24   ar
    23    24    25   ar
    24    18    19   ar
    25     1     2    1
    26     2     3    1
    27     3     4    1
    28     4     5    2
    29     4     6   am
    30     6    39    1
    31    39    40    1
    32    40    41   ar
    33    41    42    1
    34    41    43   ar
    35    43    44   ar
    36    44    45    1
    37    44    46   ar
    38    46    47   ar
    39    47    48    1
    40     6     7    1
    41     7     8   ar
    42     8     9   ar
    43     9    10   ar
    44    10    11   ar
    45    11    12   ar
    46    37    38   ar
    47    38    32   ar
    48    12     1    1
    49    19    14   ar
    50    47    40   ar
    51    12     7   ar
    52    25    20   ar
    53     2    13    1
@<TRIPOS>MOLECULE
*****
 48 53 0 0 0
SMALL
GASTEIGER

@<TRIPOS>ATOM
      1 C           5.2266   -0.8468   23.4706 C.3     1  UNL1        0.1244
      2 N           6.1132   -1.1076   24.6520 N.3     1  UNL1       -0.2823
      3 C           6.0089   -0.5500   26.0406 C.3     1  UNL1        0.1560
      4 C           4.9924    0.4061   26.5908 C.2     1  UNL1        0.2457
      5 O           5.3078    0.6661   28.0340 O.2     1  UNL1       -0.2730
      6 N           3.8290    1.0406   25.8880 N.am    1  UNL1       -0.2533
      7 C           3.3948    0.8759   24.4617 C.ar    1  UNL1        0.0518
      8 C           2.1733    1.6936   24.1628 C.ar    1  UNL1        0.0146
      9 C           1.5738    1.6713   22.7880 C.ar    1  UNL1        0.0013
     10 C           2.1958    0.8313   21.7121 C.ar    1  UNL1       -0.0002
     11 C           3.4173    0.0136   22.0110 C.ar    1  UNL1       -0.0014
     12 C           4.0168    0.0360   23.3858 C.ar    1  UNL1        0.0118
     13 H           7.0448   -0.8366   24.3371 H       1  UNL1        0.1243
     14 C           4.7924   -1.0115   22.0442 C.ar    1  UNL1       -0.0019
     15 C           3.8172   -2.0904   21.6769 C.ar    1  UNL1       -0.0026
     16 C           3.3830   -2.2552   20.2506 C.ar    1  UNL1       -0.0003
     17 C           3.9241   -1.3409   19.1916 C.ar    1  UNL1       -0.0000
     18 C           4.8993   -0.2620   19.5589 C.ar    1  UNL1       -0.0003
     19 C           5.3334   -0.0973   20.9852 C.ar    1  UNL1       -0.0026
     20 C           5.4403    0.6522   18.4999 C.ar    1  UNL1       -0.0000
     21 C           6.3197    0.1054   17.4147 C.ar    1  UNL1       -0.0000
     22 C           6.8607    1.0196   16.3557 C.ar    1  UNL1       -0.0000
     23 C           6.5224    2.4806   16.3818 C.ar    1  UNL1        0.0000
     24 C           5.6430    3.0276   17.4670 C.ar    1  UNL1       -0.0000
     25 C           5.1020    2.1134   18.5260 C.ar    1  UNL1       -0.0000
     26 C           6.2432   -1.8028   22.9204 C.3     1  UNL1        0.2256
     27 C           7.5946   -1.3028   22.5038 C.2     1  UNL1        0.0920
     28 O           8.4102   -2.0815   21.5147 O.co2   1  UNL1       -0.5455
     29 O           8.1303   -0.0240   23.0762 O.co2   1  UNL1       -0.5455
     30 O           5.9083   -3.2588   22.7870 O.3     1  UNL1       -0.4426
     31 C           9.0425   -7.3635   23.3600 C.3     1  UNL1        0.0523
     32 C           8.1471   -6.3193   23.9581 C.ar    1  UNL1        0.0652
     33 C           7.9233   -6.2832   25.4409 C.ar    1  UNL1        0.0297
     34 C           7.0278   -5.2389   26.0391 C.ar    1  UNL1        0.0652
     35 C           6.8040   -5.2028   27.5219 C.3     1  UNL1        0.0523
     36 N           6.3562   -4.2309   25.1544 N.ar    1  UNL1       -0.1986
     37 C           6.5800   -4.2670   23.6716 C.ar    1  UNL1        0.3196
     38 N           7.4754   -5.3112   23.0735 N.ar    1  UNL1       -0.1986
     39 C           2.9886    1.9617   26.7219 C.3     1  UNL1        0.1292
     40 C           1.7006    1.4717   27.3143 C.ar    1  UNL1        0.0531
     41 C           1.6826    0.2175   28.1368 C.ar    1  UNL1        0.1422
     42 F           2.8512   -0.6638   28.4648 F       1  UNL1       -0.2043
     43 C           0.3946   -0.2725   28.7291 C.ar    1  UNL1        0.0591
     44 C          -0.8754    0.4917   28.4990 C.ar    1  UNL1        0.1446
     45 F          -2.1635    0.0016   29.0913 F       1  UNL1       -0.2040
     46 C          -0.8574    1.7459   27.6764 C.ar    1  UNL1        0.0591
     47 C           0.4305    2.2359   27.0841 C.ar    1  UNL1        0.1422
     48 F           0.4485    3.4902   26.2615 F       1  UNL1       -0.2043
@<TRIPOS>UNITY_ATOM_ATTR
28 1
charge -1
@<TRIPOS>BOND
     1    31    32    1
     2    32    33   ar
     3    33    34   ar
     4    34    35    1
     5    34    36   ar
     6    36    37   ar
     7    37    30    1
     8    26    30    1
     9    26    27    1
    10    27    28   ar
    11    27    29   ar
    12    26     1    1
    13     1    14    1
    14    14    15   ar
    15    15    16   ar
    16    16    17   ar
    17    17    18   ar
    18    18    20    1
    19    20    21   ar
    20    21    22   ar
    21    22    23   ar
    22    23    24   ar
    23    24    25   ar
    24    18    19   ar
    25     1     2    1
    26     2     3    1
    27     3     4    1
    28     4     5    2
    29     4     6   am
    30     6    39    1
    31    39    40    1
    32    40    41   ar
    33    41    42    1
    34    41    43   ar
    35    43    44   ar
    36    44    45    1
    37    44    46   ar
    38    46    47   ar
    39    47    48    1
    40     6     7    1
    41     7     8   ar
    42     8     9   ar
    43     9    10   ar
    44    10    11   ar
    45    11    12   ar
    46    37    38   ar
    47    38    32   ar
    48    12     1    1
    49    19    14   ar
    50    47    40   ar
    51    12     7   ar
    52    25    20   ar
    53     2    13    1
@<TRIPOS>MOLECULE
*****
 48 53 0 0 0
SMALL
GASTEIGER

@<TRIPOS>ATOM
      1 C           1.6792    1.7874   23.1774 C.3     1  UNL1        0.1244
      2 N           2.4790    0.9531   24.1335 N.3     1  UNL1       -0.2823
      3 C           3.2083   -0.3310   23.8701 C.3     1  UNL1        0.1560
      4 C           3.3179   -1.0979   22.5856 C.2     1  UNL1        0.2457
      5 O           4.1538   -2.3202   22.8246 O.2     1  UNL1       -0.2730
      6 N           2.7253   -0.7699   21.2472 N.am    1  UNL1       -0.2533
      7 C           1.8767    0.4057   20.8627 C.ar    1  UNL1        0.0518
      8 C           1.4910    0.3528   19.4141 C.ar    1  UNL1        0.0146
      9 C           0.6398    1.4381   18.8246 C.ar    1  UNL1        0.0013
     10 C           0.1743    2.5762   19.6836 C.ar    1  UNL1       -0.0002
     11 C           0.5599    2.6291   21.1322 C.ar    1  UNL1       -0.0014
     12 C           1.4111    1.5438   21.7217 C.ar    1  UNL1        0.0118
     13 H           1.8256    0.7267   24.8834 H       1  UNL1        0.1243
     14 C           0.8305    2.9631   22.7929 C.ar    1  UNL1       -0.0019
     15 C           1.4759    4.2268   22.3066 C.ar    1  UNL1       -0.0026
     16 C           0.6274    5.4024   21.9221 C.ar    1  UNL1       -0.0003
     17 C          -0.8667    5.3143   22.0241 C.ar    1  UNL1       -0.0000
     18 C          -1.5119    4.0506   22.5104 C.ar    1  UNL1       -0.0003
     19 C          -0.6634    2.8750   22.8948 C.ar    1  UNL1       -0.0026
     20 C          -3.0059    3.9625   22.6123 C.ar    1  UNL1       -0.0000
     21 C          -3.8322    3.7721   21.3750 C.ar    1  UNL1       -0.0000
     22 C          -5.3261    3.6840   21.4769 C.ar    1  UNL1       -0.0000
     23 C          -5.9938    3.7863   22.8161 C.ar    1  UNL1        0.0000
     24 C          -5.1675    3.9767   24.0536 C.ar    1  UNL1       -0.0000
     25 C          -3.6736    4.0648   23.9517 C.ar    1  UNL1       -0.0000
     26 C           1.5695    2.5542   24.4619 C.3     1  UNL1        0.2256
     27 C           2.6622    3.4986   24.8671 C.2     1  UNL1        0.0920
     28 O           2.3474    4.6826   25.7328 O.co2   1  UNL1       -0.5455
     29 O           4.0695    3.2591   24.4068 O.co2   1  UNL1       -0.5455
     30 O           0.3673    2.3767   25.3411 O.3     1  UNL1       -0.4426
     31 C          -1.9444   -0.0169   29.3320 C.3     1  UNL1        0.0523
     32 C          -0.7025    0.3147   28.5589 C.ar    1  UNL1        0.0652
     33 C           0.6256   -0.2188   29.0081 C.ar    1  UNL1        0.0297
     34 C           1.8675    0.1129   28.2350 C.ar    1  UNL1        0.0652
     35 C           3.1955   -0.4206   28.6843 C.3     1  UNL1        0.0523
     36 N           1.7814    0.9780   27.0127 N.ar    1  UNL1       -0.1986
     37 C           0.4533    1.5115   26.5635 C.ar    1  UNL1        0.3196
     38 N          -0.7886    1.1798   27.3366 N.ar    1  UNL1       -0.1986
     39 C           3.0202   -1.7469   20.1479 C.3     1  UNL1        0.1292
     40 C           4.4349   -1.9681   19.7006 C.ar    1  UNL1        0.0531
     41 C           5.0634   -3.3225   19.8431 C.ar    1  UNL1        0.1422
     42 F           4.4270   -4.5583   20.4070 F       1  UNL1       -0.2043
     43 C           6.4780   -3.5438   19.3960 C.ar    1  UNL1        0.0591
     44 C           7.2640   -2.4105   18.8062 C.ar    1  UNL1        0.1446
     45 F           8.6786   -2.6316   18.3590 F       1  UNL1       -0.2040
     46 C           6.6355   -1.0560   18.6637 C.ar    1  UNL1        0.0591
     47 C           5.2209   -0.8348   19.1109 C.ar    1  UNL1        0.1422
     48 F           4.5923    0.5197   18.9684 F       1  UNL1       -0.2043
@<TRIPOS>UNITY_ATOM_ATTR
28 1
charge -1
@<TRIPOS>BOND
     1    31    32    1
     2    32    33   ar
     3    33    34   ar
     4    34    35    1
     5    34    36   ar
     6    36    37   ar
     7    37    30    1
     8    26    30    1
     9    26    27    1
    10    27    28   ar
    11    27    29   ar
    12    26     1    1
    13     1    14    1
    14    14    15   ar
    15    15    16   ar
    16    16    17   ar
    17    17    18   ar
    18    18    20    1
    19    20    21   ar
    20    21    22   ar
    21    22    23   ar
    22    23    24   ar
    23    24    25   ar
    24    18    19   ar
    25     1     2    1
    26     2     3    1
    27     3     4    1
    28     4     5    2
    29     4     6   am
    30     6    39    1
    31    39    40    1
    32    40    41   ar
    33    41    42    1
    34    41    43   ar
    35    43    44   ar
    36    44    45    1
    37    44    46   ar
    38    46    47   ar
    39    47    48    1
    40     6     7    1
    41     7     8   ar
    42     8     9   ar
    43     9    10   ar
    44    10    11   ar
    45    11    12   ar
    46    37    38   ar
    47    38    32   ar
    48    12     1    1
    49    19    14   ar
    50    47    40   ar
    51    12     7   ar
    52    25    20   ar
    53     2    13    1
