@<TRIPOS>MOLECULE
*****
 39 44 0 0 0
SMALL
GASTEIGER

@<TRIPOS>ATOM
      1 C           4.9995   -1.4719   33.1731 C.ar    1  UNL1        0.0146
      2 C           5.4761   -0.9249   34.4859 C.ar    1  UNL1       -0.0011
      3 C           4.8927    0.3478   35.0243 C.ar    1  UNL1        0.0014
      4 C           3.8327    1.0734   34.2499 C.ar    1  UNL1        0.0206
      5 C           3.3561    0.5264   32.9370 C.ar    1  UNL1        0.0989
      6 C           3.9395   -0.7462   32.3986 C.ar    1  UNL1        0.1511
      7 O           3.4629   -1.2933   31.0857 O.3     1  UNL1       -0.4678
      8 C           2.4029   -0.5676   30.3112 C.3     1  UNL1        0.2510
      9 C           1.8195    0.7051   30.8497 C.ar    1  UNL1        0.1087
     10 C           0.7699    1.6333   30.3143 C.ar    1  UNL1        0.1516
     11 N           0.5977    2.7540   31.2964 N.ar    1  UNL1       -0.2192
     12 C           1.5410    2.5184   32.4386 C.ar    1  UNL1        0.1828
     13 N           2.2961    1.2521   32.1625 N.ar    1  UNL1       -0.2851
     14 C           0.0234    1.4696   29.0236 C.2     1  UNL1        0.2648
     15 O          -0.9469    0.3380   28.8567 O.2     1  UNL1       -0.2684
     16 N           0.2474    2.4375   27.8998 N.am    1  UNL1       -0.3012
     17 H           0.8843    3.1803   28.0093 H       1  UNL1        0.1497
     18 C          -0.4991    2.2738   26.6090 C.3     1  UNL1        0.0720
     19 C           0.0012    1.3148   25.5698 C.3     1  UNL1        0.0213
     20 C          -1.7458    3.0691   26.3575 C.3     1  UNL1        0.0213
     21 C           5.5829   -2.7446   32.6346 C.3     1  UNL1        0.0468
     22 C           6.9721   -2.7524   32.0689 C.3     1  UNL1        0.0770
     23 N           7.8394   -4.9926   28.2637 N.pl3   1  UNL1       -0.3046
     24 C           8.4387   -3.6360   28.4886 C.3     1  UNL1        0.1081
     25 C           8.1496   -2.8892   29.7570 C.3     1  UNL1        0.0938
     26 N           7.2612   -3.4991   30.8005 N.3     1  UNL1       -0.2695
     27 C           6.6619   -4.8557   30.5756 C.3     1  UNL1        0.0938
     28 C           6.9511   -5.6024   29.3072 C.3     1  UNL1        0.1081
     29 C           6.0713   -3.6621   21.7558 C.3     1  UNL1        0.0521
     30 C           6.5856   -4.1814   23.0657 C.ar    1  UNL1        0.0593
     31 C           6.2965   -3.4347   24.3340 C.ar    1  UNL1        0.0148
     32 C           6.8108   -3.9540   25.6439 C.ar    1  UNL1        0.0039
     33 C           7.6142   -5.2200   25.6855 C.ar    1  UNL1        0.0310
     34 C           8.1285   -5.7393   26.9953 C.ar    1  UNL1        0.0493
     35 C           8.9320   -7.0053   27.0368 C.ar    1  UNL1        0.0146
     36 C           9.2211   -7.7520   25.7684 C.ar    1  UNL1        0.0028
     37 C           8.7068   -7.2327   24.4586 C.ar    1  UNL1        0.0192
     38 C           7.9034   -5.9667   24.4170 C.ar    1  UNL1        0.0821
     39 N           7.3891   -5.4474   23.1071 N.ar    1  UNL1       -0.2496
@<TRIPOS>BOND
     1    29    30    1
     2    30    31   ar
     3    31    32   ar
     4    32    33   ar
     5    33    34   ar
     6    34    23    1
     7    23    24    1
     8    24    25    1
     9    25    26    1
    10    26    22    1
    11    22    21    1
    12    21     1    1
    13     1     2   ar
    14     2     3   ar
    15     3     4   ar
    16     4     5   ar
    17     5     6   ar
    18     6     7    1
    19     7     8    1
    20     8     9    1
    21     9    10   ar
    22    10    14    1
    23    14    15    2
    24    14    16   am
    25    16    18    1
    26    18    19    1
    27    18    20    1
    28    10    11   ar
    29    11    12   ar
    30    12    13   ar
    31    26    27    1
    32    27    28    1
    33    34    35   ar
    34    35    36   ar
    35    36    37   ar
    36    37    38   ar
    37    38    39   ar
    38    39    30   ar
    39    38    33   ar
    40    28    23    1
    41     6     1   ar
    42    13     9   ar
    43    13     5    1
    44    16    17    1
@<TRIPOS>MOLECULE
*****
 39 44 0 0 0
SMALL
GASTEIGER

@<TRIPOS>ATOM
      1 C           7.2984   -2.7971   29.1377 C.ar    1  UNL1        0.0146
      2 C           8.0782   -2.9204   30.4131 C.ar    1  UNL1       -0.0011
      3 C           7.5203   -2.3651   31.6899 C.ar    1  UNL1        0.0014
      4 C           6.1826   -1.6866   31.6914 C.ar    1  UNL1        0.0206
      5 C           5.4027   -1.5633   30.4161 C.ar    1  UNL1        0.0989
      6 C           5.9606   -2.1186   29.1392 C.ar    1  UNL1        0.1511
      7 O           5.1807   -1.9953   27.8638 O.3     1  UNL1       -0.4678
      8 C           3.8430   -1.3168   27.8653 C.3     1  UNL1        0.2510
      9 C           3.2851   -0.7615   29.1422 C.ar    1  UNL1        0.1087
     10 C           2.0032   -0.0460   29.4500 C.ar    1  UNL1        0.1516
     11 N           1.9908    0.2730   30.9156 N.ar    1  UNL1       -0.2192
     12 C           3.2650   -0.2454   31.5136 C.ar    1  UNL1        0.1828
     13 N           4.0649   -0.8848   30.4176 N.ar    1  UNL1       -0.2851
     14 C           0.9233    0.2914   28.4651 C.2     1  UNL1        0.2648
     15 O          -0.4391   -0.3198   28.6072 O.2     1  UNL1       -0.2684
     16 N           1.2059    1.2400   27.3380 N.am    1  UNL1       -0.3012
     17 H           2.1001    1.6412   27.2447 H       1  UNL1        0.1497
     18 C           0.1261    1.5774   26.3531 C.3     1  UNL1        0.0720
     19 C           0.2298    1.1019   24.9342 C.3     1  UNL1        0.0213
     20 C          -1.0577    2.3902   26.7870 C.3     1  UNL1        0.0213
     21 C           7.8563   -3.3523   27.8608 C.3     1  UNL1        0.0468
     22 C           8.2331   -2.4269   26.7420 C.3     1  UNL1        0.0770
     23 N           6.1034   -2.6943   22.7869 N.pl3   1  UNL1       -0.3046
     24 C           7.0442   -1.5576   23.0568 C.3     1  UNL1        0.1081
     25 C           7.7541   -1.4685   24.3752 C.3     1  UNL1        0.0938
     26 N           7.5232   -2.5160   25.4236 N.3     1  UNL1       -0.2695
     27 C           6.5824   -3.6528   25.1537 C.3     1  UNL1        0.0938
     28 C           5.8725   -3.7419   23.8354 C.3     1  UNL1        0.1081
     29 C           0.3775    0.3760   20.5426 C.3     1  UNL1        0.0521
     30 C           1.6315   -0.4138   20.7740 C.ar    1  UNL1        0.0593
     31 C           2.3414   -0.3247   22.0924 C.ar    1  UNL1        0.0148
     32 C           3.5954   -1.1146   22.3239 C.ar    1  UNL1        0.0039
     33 C           4.1395   -1.9935   21.2370 C.ar    1  UNL1        0.0310
     34 C           5.3935   -2.7834   21.4685 C.ar    1  UNL1        0.0493
     35 C           5.9377   -3.6624   20.3816 C.ar    1  UNL1        0.0146
     36 C           5.2278   -3.7515   19.0632 C.ar    1  UNL1        0.0028
     37 C           3.9738   -2.9616   18.8317 C.ar    1  UNL1        0.0192
     38 C           3.4296   -2.0827   19.9186 C.ar    1  UNL1        0.0821
     39 N           2.1756   -1.2928   19.6871 N.ar    1  UNL1       -0.2496
@<TRIPOS>BOND
     1    29    30    1
     2    30    31   ar
     3    31    32   ar
     4    32    33   ar
     5    33    34   ar
     6    34    23    1
     7    23    24    1
     8    24    25    1
     9    25    26    1
    10    26    22    1
    11    22    21    1
    12    21     1    1
    13     1     2   ar
    14     2     3   ar
    15     3     4   ar
    16     4     5   ar
    17     5     6   ar
    18     6     7    1
    19     7     8    1
    20     8     9    1
    21     9    10   ar
    22    10    14    1
    23    14    15    2
    24    14    16   am
    25    16    18    1
    26    18    19    1
    27    18    20    1
    28    10    11   ar
    29    11    12   ar
    30    12    13   ar
    31    26    27    1
    32    27    28    1
    33    34    35   ar
    34    35    36   ar
    35    36    37   ar
    36    37    38   ar
    37    38    39   ar
    38    39    30   ar
    39    38    33   ar
    40    28    23    1
    41     6     1   ar
    42    13     9   ar
    43    13     5    1
    44    16    17    1
@<TRIPOS>MOLECULE
*****
 39 44 0 0 0
SMALL
GASTEIGER

@<TRIPOS>ATOM
      1 C          -0.8179    3.4092   23.8826 C.ar    1  UNL1        0.0146
      2 C          -2.2016    3.9422   24.1089 C.ar    1  UNL1       -0.0011
      3 C          -2.9112    3.6623   25.4004 C.ar    1  UNL1        0.0014
      4 C          -2.2371    2.8493   26.4656 C.ar    1  UNL1        0.0206
      5 C          -0.8534    2.3162   26.2393 C.ar    1  UNL1        0.0989
      6 C          -0.1438    2.5962   24.9478 C.ar    1  UNL1        0.1511
      7 O           1.2399    2.0631   24.7214 O.3     1  UNL1       -0.4678
      8 C           1.9140    1.2501   25.7866 C.3     1  UNL1        0.2510
      9 C           1.2044    0.9702   27.0782 C.ar    1  UNL1        0.1087
     10 C           1.6125    0.2054   28.3023 C.ar    1  UNL1        0.1516
     11 N           0.4810    0.2657   29.2852 N.ar    1  UNL1       -0.2192
     12 C          -0.6264    1.0679   28.6685 C.ar    1  UNL1        0.1828
     13 N          -0.1793    1.5033   27.3045 N.ar    1  UNL1       -0.2851
     14 C           2.9221   -0.4966   28.5075 C.2     1  UNL1        0.2648
     15 O           3.2830   -1.6757   27.6535 O.2     1  UNL1       -0.2684
     16 N           3.8709   -0.0192   29.5667 N.am    1  UNL1       -0.3012
     17 H           3.6341    0.7547   30.1272 H       1  UNL1        0.1497
     18 C           5.1806   -0.7212   29.7719 C.3     1  UNL1        0.0720
     19 C           6.3162   -0.4830   28.8213 C.3     1  UNL1        0.0213
     20 C           5.3547   -1.6614   30.9278 C.3     1  UNL1        0.0213
     21 C          -0.1082    3.6891   22.5910 C.3     1  UNL1        0.0468
     22 C          -0.3218    2.7917   21.4082 C.3     1  UNL1        0.0770
     23 N           2.6599   -0.4464   20.4731 N.pl3   1  UNL1       -0.3046
     24 C           3.1358    0.9153   20.8846 C.3     1  UNL1        0.1081
     25 C           2.1419    1.9947   21.1963 C.3     1  UNL1        0.0938
     26 N           0.6721    1.7124   21.0965 N.3     1  UNL1       -0.2695
     27 C           0.1962    0.3507   20.6849 C.3     1  UNL1        0.0938
     28 C           1.1900   -0.7287   20.3733 C.3     1  UNL1        0.1081
     29 C           6.5235   -4.3389   24.6168 C.3     1  UNL1        0.0521
     30 C           5.8061   -3.6356   23.5029 C.ar    1  UNL1        0.0593
     31 C           4.8122   -2.5563   23.8146 C.ar    1  UNL1        0.0148
     32 C           4.0948   -1.8530   22.7008 C.ar    1  UNL1        0.0039
     33 C           4.3712   -2.2290   21.2752 C.ar    1  UNL1        0.0310
     34 C           3.6537   -1.5257   20.1614 C.ar    1  UNL1        0.0493
     35 C           3.9302   -1.9018   18.7358 C.ar    1  UNL1        0.0146
     36 C           4.9241   -2.9812   18.4242 C.ar    1  UNL1        0.0028
     37 C           5.6415   -3.6845   19.5380 C.ar    1  UNL1        0.0192
     38 C           5.3651   -3.3084   20.9635 C.ar    1  UNL1        0.0821
     39 N           6.0825   -4.0117   22.0773 N.ar    1  UNL1       -0.2496
@<TRIPOS>BOND
     1    29    30    1
     2    30    31   ar
     3    31    32   ar
     4    32    33   ar
     5    33    34   ar
     6    34    23    1
     7    23    24    1
     8    24    25    1
     9    25    26    1
    10    26    22    1
    11    22    21    1
    12    21     1    1
    13     1     2   ar
    14     2     3   ar
    15     3     4   ar
    16     4     5   ar
    17     5     6   ar
    18     6     7    1
    19     7     8    1
    20     8     9    1
    21     9    10   ar
    22    10    14    1
    23    14    15    2
    24    14    16   am
    25    16    18    1
    26    18    19    1
    27    18    20    1
    28    10    11   ar
    29    11    12   ar
    30    12    13   ar
    31    26    27    1
    32    27    28    1
    33    34    35   ar
    34    35    36   ar
    35    36    37   ar
    36    37    38   ar
    37    38    39   ar
    38    39    30   ar
    39    38    33   ar
    40    28    23    1
    41     6     1   ar
    42    13     9   ar
    43    13     5    1
    44    16    17    1
@<TRIPOS>MOLECULE
*****
 39 44 0 0 0
SMALL
GASTEIGER

@<TRIPOS>ATOM
      1 C           8.0503   -6.5798   25.5899 C.ar    1  UNL1        0.0146
      2 C           8.7408   -7.9113   25.6087 C.ar    1  UNL1       -0.0011
      3 C           9.0818   -8.5608   26.9170 C.ar    1  UNL1        0.0014
      4 C           8.7324   -7.8788   28.2065 C.ar    1  UNL1        0.0206
      5 C           8.0420   -6.5474   28.1877 C.ar    1  UNL1        0.0989
      6 C           7.7009   -5.8979   26.8794 C.ar    1  UNL1        0.1511
      7 O           7.0104   -4.5663   26.8605 O.3     1  UNL1       -0.4678
      8 C           6.6610   -3.8844   28.1501 C.3     1  UNL1        0.2510
      9 C           7.0021   -4.5340   29.4584 C.ar    1  UNL1        0.1087
     10 C           6.7841   -4.1047   30.8790 C.ar    1  UNL1        0.1516
     11 N           7.3399   -5.1709   31.7759 N.ar    1  UNL1       -0.2192
     12 C           7.9014   -6.2591   30.9095 C.ar    1  UNL1        0.1828
     13 N           7.6926   -5.8654   29.4772 N.ar    1  UNL1       -0.2851
     14 C           6.1260   -2.8326   31.3246 C.2     1  UNL1        0.2648
     15 O           6.6132   -1.5134   30.8030 O.2     1  UNL1       -0.2684
     16 N           4.9804   -2.8798   32.2919 N.am    1  UNL1       -0.3012
     17 H           4.6606   -3.7456   32.6343 H       1  UNL1        0.1497
     18 C           4.3223   -1.6077   32.7375 C.3     1  UNL1        0.0720
     19 C           4.4762   -1.1399   34.1544 C.3     1  UNL1        0.0213
     20 C           3.5101   -0.8032   31.7662 C.3     1  UNL1        0.0213
     21 C           7.7092   -5.9302   24.2815 C.3     1  UNL1        0.0468
     22 C           8.5557   -4.8079   23.7582 C.3     1  UNL1        0.0770
     23 N           6.9516   -2.0843   20.5552 N.pl3   1  UNL1       -0.3046
     24 C           7.1399   -3.5453   20.2723 C.3     1  UNL1        0.1081
     25 C           7.6746   -4.4532   21.3400 C.3     1  UNL1        0.0938
     26 N           8.0210   -3.9000   22.6906 N.3     1  UNL1       -0.2695
     27 C           7.8327   -2.4390   22.9734 C.3     1  UNL1        0.0938
     28 C           7.2980   -1.5312   21.9058 C.3     1  UNL1        0.1081
     29 C           0.6443    0.4585   19.5538 C.3     1  UNL1        0.0521
     30 C           2.0875    0.0498   19.5373 C.ar    1  UNL1        0.0593
     31 C           2.6222   -0.8581   20.6049 C.ar    1  UNL1        0.0148
     32 C           4.0653   -1.2668   20.5884 C.ar    1  UNL1        0.0039
     33 C           4.9738   -0.7677   19.5042 C.ar    1  UNL1        0.0310
     34 C           6.4169   -1.1765   19.4876 C.ar    1  UNL1        0.0493
     35 C           7.3254   -0.6773   18.4033 C.ar    1  UNL1        0.0146
     36 C           6.7907    0.2305   17.3357 C.ar    1  UNL1        0.0028
     37 C           5.3476    0.6393   17.3522 C.ar    1  UNL1        0.0192
     38 C           4.4391    0.1402   18.4364 C.ar    1  UNL1        0.0821
     39 N           2.9960    0.5489   18.4530 N.ar    1  UNL1       -0.2496
@<TRIPOS>BOND
     1    29    30    1
     2    30    31   ar
     3    31    32   ar
     4    32    33   ar
     5    33    34   ar
     6    34    23    1
     7    23    24    1
     8    24    25    1
     9    25    26    1
    10    26    22    1
    11    22    21    1
    12    21     1    1
    13     1     2   ar
    14     2     3   ar
    15     3     4   ar
    16     4     5   ar
    17     5     6   ar
    18     6     7    1
    19     7     8    1
    20     8     9    1
    21     9    10   ar
    22    10    14    1
    23    14    15    2
    24    14    16   am
    25    16    18    1
    26    18    19    1
    27    18    20    1
    28    10    11   ar
    29    11    12   ar
    30    12    13   ar
    31    26    27    1
    32    27    28    1
    33    34    35   ar
    34    35    36   ar
    35    36    37   ar
    36    37    38   ar
    37    38    39   ar
    38    39    30   ar
    39    38    33   ar
    40    28    23    1
    41     6     1   ar
    42    13     9   ar
    43    13     5    1
    44    16    17    1
@<TRIPOS>MOLECULE
*****
 39 44 0 0 0
SMALL
GASTEIGER

@<TRIPOS>ATOM
      1 C           1.7533    0.6832   22.7120 C.ar    1  UNL1        0.0146
      2 C           1.0844    0.7413   21.3706 C.ar    1  UNL1       -0.0011
      3 C           1.4521   -0.2489   20.3057 C.ar    1  UNL1        0.0014
      4 C           2.4887   -1.2973   20.5821 C.ar    1  UNL1        0.0206
      5 C           3.1576   -1.3555   21.9234 C.ar    1  UNL1        0.0989
      6 C           2.7899   -0.3652   22.9884 C.ar    1  UNL1        0.1511
      7 O           3.4587   -0.4233   24.3298 O.3     1  UNL1       -0.4678
      8 C           4.4953   -1.4717   24.6062 C.3     1  UNL1        0.2510
      9 C           4.8630   -2.4620   23.5412 C.ar    1  UNL1        0.1087
     10 C           5.8407   -3.5993   23.5227 C.ar    1  UNL1        0.1516
     11 N           5.7762   -4.2442   22.1699 N.ar    1  UNL1       -0.2192
     12 C           4.7585   -3.5053   21.3524 C.ar    1  UNL1        0.1828
     13 N           4.1941   -2.4039   22.1998 N.ar    1  UNL1       -0.2851
     14 C           6.7274   -4.0183   24.6577 C.2     1  UNL1        0.2648
     15 O           8.2031   -4.1742   24.4387 O.2     1  UNL1       -0.2684
     16 N           6.1383   -4.2814   26.0119 N.am    1  UNL1       -0.3012
     17 H           5.1697   -4.1791   26.1557 H       1  UNL1        0.1497
     18 C           7.0249   -4.7004   27.1470 C.3     1  UNL1        0.0720
     19 C           7.5895   -3.6687   28.0779 C.3     1  UNL1        0.0213
     20 C           7.3470   -6.1512   27.3511 C.3     1  UNL1        0.0213
     21 C           1.3856    1.6735   23.7770 C.3     1  UNL1        0.0468
     22 C           0.3320    1.3308   24.7882 C.3     1  UNL1        0.0770
     23 N           1.1253    1.9746   29.1706 N.pl3   1  UNL1       -0.3046
     24 C          -0.0852    1.2046   28.7328 C.3     1  UNL1        0.1081
     25 C          -0.3497    0.9900   27.2719 C.3     1  UNL1        0.0938
     26 N           0.5964    1.5454   26.2490 N.3     1  UNL1       -0.2695
     27 C           1.8070    2.3154   26.6869 C.3     1  UNL1        0.0938
     28 C           2.0714    2.5300   28.1477 C.3     1  UNL1        0.1081
     29 C           4.8169   -1.6931   33.6618 C.3     1  UNL1        0.0521
     30 C           3.9601   -0.7226   32.9042 C.ar    1  UNL1        0.0593
     31 C           3.6956   -0.9371   31.4434 C.ar    1  UNL1        0.0148
     32 C           2.8389    0.0334   30.6858 C.ar    1  UNL1        0.0039
     33 C           2.2465    1.2186   31.3890 C.ar    1  UNL1        0.0310
     34 C           1.3897    2.1891   30.6314 C.ar    1  UNL1        0.0493
     35 C           0.7974    3.3743   31.3347 C.ar    1  UNL1        0.0146
     36 C           1.0618    3.5889   32.7955 C.ar    1  UNL1        0.0028
     37 C           1.9186    2.6183   33.5531 C.ar    1  UNL1        0.0192
     38 C           2.5109    1.4332   32.8499 C.ar    1  UNL1        0.0821
     39 N           3.3677    0.4626   33.6075 N.ar    1  UNL1       -0.2496
@<TRIPOS>BOND
     1    29    30    1
     2    30    31   ar
     3    31    32   ar
     4    32    33   ar
     5    33    34   ar
     6    34    23    1
     7    23    24    1
     8    24    25    1
     9    25    26    1
    10    26    22    1
    11    22    21    1
    12    21     1    1
    13     1     2   ar
    14     2     3   ar
    15     3     4   ar
    16     4     5   ar
    17     5     6   ar
    18     6     7    1
    19     7     8    1
    20     8     9    1
    21     9    10   ar
    22    10    14    1
    23    14    15    2
    24    14    16   am
    25    16    18    1
    26    18    19    1
    27    18    20    1
    28    10    11   ar
    29    11    12   ar
    30    12    13   ar
    31    26    27    1
    32    27    28    1
    33    34    35   ar
    34    35    36   ar
    35    36    37   ar
    36    37    38   ar
    37    38    39   ar
    38    39    30   ar
    39    38    33   ar
    40    28    23    1
    41     6     1   ar
    42    13     9   ar
    43    13     5    1
    44    16    17    1
@<TRIPOS>MOLECULE
*****
 39 44 0 0 0
SMALL
GASTEIGER

@<TRIPOS>ATOM
      1 C           5.2355   -3.0014   21.4466 C.ar    1  UNL1        0.0146
      2 C           6.4800   -3.8328   21.3478 C.ar    1  UNL1       -0.0011
      3 C           7.3036   -4.0985   22.5730 C.ar    1  UNL1        0.0014
      4 C           6.8826   -3.5328   23.8969 C.ar    1  UNL1        0.0206
      5 C           5.6381   -2.7013   23.9956 C.ar    1  UNL1        0.0989
      6 C           4.8145   -2.4356   22.7705 C.ar    1  UNL1        0.1511
      7 O           3.5700   -1.6041   22.8692 O.3     1  UNL1       -0.4678
      8 C           3.1490   -1.0383   24.1931 C.3     1  UNL1        0.2510
      9 C           3.9727   -1.3041   25.4183 C.ar    1  UNL1        0.1087
     10 C           3.8092   -0.8823   26.8484 C.ar    1  UNL1        0.1516
     11 N           4.9527   -1.4532   27.6336 N.ar    1  UNL1       -0.2192
     12 C           5.8229   -2.2277   26.6887 C.ar    1  UNL1        0.1828
     13 N           5.2172   -2.1355   25.3195 N.ar    1  UNL1       -0.2851
     14 C           2.6974   -0.0380   27.3971 C.2     1  UNL1        0.2648
     15 O           2.5681    1.3965   26.9782 O.2     1  UNL1       -0.2684
     16 N           1.7148   -0.6283   28.3647 N.am    1  UNL1       -0.3012
     17 H           1.7997   -1.5698   28.6396 H       1  UNL1        0.1497
     18 C           0.6030    0.2160   28.9133 C.3     1  UNL1        0.0720
     19 C          -0.8059   -0.0045   28.4482 C.3     1  UNL1        0.0213
     20 C           0.9001    1.2809   29.9272 C.3     1  UNL1        0.0213
     21 C           4.4118   -2.7356   20.2214 C.3     1  UNL1        0.0468
     22 C           4.3903   -1.3638   19.6151 C.3     1  UNL1        0.0770
     23 N           1.0744    1.4991   20.6439 N.pl3   1  UNL1       -0.3046
     24 C           2.4966    1.9752   20.6226 C.3     1  UNL1        0.1081
     25 C           3.6020    1.0209   20.2797 C.3     1  UNL1        0.0938
     26 N           3.2850   -0.4095   19.9581 N.3     1  UNL1       -0.2695
     27 C           1.8627   -0.8856   19.9794 C.3     1  UNL1        0.0938
     28 C           0.7574    0.0687   20.3223 C.3     1  UNL1        0.1081
     29 C          -1.7331    3.1450   26.6986 C.3     1  UNL1        0.0521
     30 C          -1.3075    2.9721   25.2707 C.ar    1  UNL1        0.0593
     31 C          -0.2022    2.0178   24.9277 C.ar    1  UNL1        0.0148
     32 C           0.2233    1.8449   23.4998 C.ar    1  UNL1        0.0039
     33 C          -0.4565    2.6263   22.4148 C.ar    1  UNL1        0.0310
     34 C          -0.0309    2.4534   20.9868 C.ar    1  UNL1        0.0493
     35 C          -0.7107    3.2348   19.9018 C.ar    1  UNL1        0.0146
     36 C          -1.8160    4.1891   20.2447 C.ar    1  UNL1        0.0028
     37 C          -2.2416    4.3620   21.6726 C.ar    1  UNL1        0.0192
     38 C          -1.5618    3.5806   22.7577 C.ar    1  UNL1        0.0821
     39 N          -1.9874    3.7535   24.1856 N.ar    1  UNL1       -0.2496
@<TRIPOS>BOND
     1    29    30    1
     2    30    31   ar
     3    31    32   ar
     4    32    33   ar
     5    33    34   ar
     6    34    23    1
     7    23    24    1
     8    24    25    1
     9    25    26    1
    10    26    22    1
    11    22    21    1
    12    21     1    1
    13     1     2   ar
    14     2     3   ar
    15     3     4   ar
    16     4     5   ar
    17     5     6   ar
    18     6     7    1
    19     7     8    1
    20     8     9    1
    21     9    10   ar
    22    10    14    1
    23    14    15    2
    24    14    16   am
    25    16    18    1
    26    18    19    1
    27    18    20    1
    28    10    11   ar
    29    11    12   ar
    30    12    13   ar
    31    26    27    1
    32    27    28    1
    33    34    35   ar
    34    35    36   ar
    35    36    37   ar
    36    37    38   ar
    37    38    39   ar
    38    39    30   ar
    39    38    33   ar
    40    28    23    1
    41     6     1   ar
    42    13     9   ar
    43    13     5    1
    44    16    17    1
@<TRIPOS>MOLECULE
*****
 39 44 0 0 0
SMALL
GASTEIGER

@<TRIPOS>ATOM
      1 C           8.1637   -2.8213   28.6253 C.ar    1  UNL1        0.0146
      2 C           9.1694   -3.3688   29.5942 C.ar    1  UNL1       -0.0011
      3 C           8.8821   -3.3462   31.0662 C.ar    1  UNL1        0.0014
      4 C           7.5891   -2.7761   31.5693 C.ar    1  UNL1        0.0206
      5 C           6.5834   -2.2286   30.6004 C.ar    1  UNL1        0.0989
      6 C           6.8707   -2.2513   29.1284 C.ar    1  UNL1        0.1511
      7 O           5.8650   -1.7037   28.1594 O.3     1  UNL1       -0.4678
      8 C           4.5720   -1.1336   28.6625 C.3     1  UNL1        0.2510
      9 C           4.2847   -1.1111   30.1346 C.ar    1  UNL1        0.1087
     10 C           3.1062   -0.6164   30.9197 C.ar    1  UNL1        0.1516
     11 N           3.3835   -0.8582   32.3739 N.ar    1  UNL1       -0.2192
     12 C           4.7334   -1.5023   32.4875 C.ar    1  UNL1        0.1828
     13 N           5.2904   -1.6586   31.1035 N.ar    1  UNL1       -0.2851
     14 C           1.8678    0.0100   30.3506 C.2     1  UNL1        0.2648
     15 O           1.2634    1.2127   31.0126 O.2     1  UNL1       -0.2684
     16 N           1.2337   -0.5663   29.1193 N.am    1  UNL1       -0.3012
     17 H           1.6304   -1.3557   28.6848 H       1  UNL1        0.1497
     18 C          -0.0047    0.0601   28.5502 C.3     1  UNL1        0.0720
     19 C           0.1082    1.2088   27.5922 C.3     1  UNL1        0.0213
     20 C          -1.3561   -0.4621   28.9390 C.3     1  UNL1        0.0213
     21 C           8.4510   -2.8439   27.1532 C.3     1  UNL1        0.0468
     22 C           8.1475   -4.0730   26.3486 C.3     1  UNL1        0.0770
     23 N           6.1426   -3.6980   22.3374 N.pl3   1  UNL1       -0.3046
     24 C           7.4270   -4.4621   22.4653 C.3     1  UNL1        0.1081
     25 C           8.0953   -4.5871   23.8024 C.3     1  UNL1        0.0938
     26 N           7.4792   -3.9480   25.0115 N.3     1  UNL1       -0.2695
     27 C           6.1947   -3.1838   24.8835 C.3     1  UNL1        0.0938
     28 C           5.5265   -3.0588   23.5465 C.3     1  UNL1        0.1081
     29 C           7.2388    0.6770   17.1501 C.3     1  UNL1        0.0521
     30 C           6.7977   -0.3855   18.1127 C.ar    1  UNL1        0.0593
     31 C           7.4660   -0.5105   19.4497 C.ar    1  UNL1        0.0148
     32 C           7.0248   -1.5730   20.4123 C.ar    1  UNL1        0.0039
     33 C           5.9155   -2.5105   20.0378 C.ar    1  UNL1        0.0310
     34 C           5.4743   -3.5730   21.0003 C.ar    1  UNL1        0.0493
     35 C           4.3649   -4.5105   20.6257 C.ar    1  UNL1        0.0146
     36 C           3.6966   -4.3855   19.2887 C.ar    1  UNL1        0.0028
     37 C           4.1377   -3.3230   18.3261 C.ar    1  UNL1        0.0192
     38 C           5.2471   -2.3855   18.7006 C.ar    1  UNL1        0.0821
     39 N           5.6882   -1.3230   17.7381 N.ar    1  UNL1       -0.2496
@<TRIPOS>BOND
     1    29    30    1
     2    30    31   ar
     3    31    32   ar
     4    32    33   ar
     5    33    34   ar
     6    34    23    1
     7    23    24    1
     8    24    25    1
     9    25    26    1
    10    26    22    1
    11    22    21    1
    12    21     1    1
    13     1     2   ar
    14     2     3   ar
    15     3     4   ar
    16     4     5   ar
    17     5     6   ar
    18     6     7    1
    19     7     8    1
    20     8     9    1
    21     9    10   ar
    22    10    14    1
    23    14    15    2
    24    14    16   am
    25    16    18    1
    26    18    19    1
    27    18    20    1
    28    10    11   ar
    29    11    12   ar
    30    12    13   ar
    31    26    27    1
    32    27    28    1
    33    34    35   ar
    34    35    36   ar
    35    36    37   ar
    36    37    38   ar
    37    38    39   ar
    38    39    30   ar
    39    38    33   ar
    40    28    23    1
    41     6     1   ar
    42    13     9   ar
    43    13     5    1
    44    16    17    1
@<TRIPOS>MOLECULE
*****
 39 44 0 0 0
SMALL
GASTEIGER

@<TRIPOS>ATOM
      1 C           1.6861    1.0010   23.5127 C.ar    1  UNL1        0.0146
      2 C           0.9146    1.3107   22.2642 C.ar    1  UNL1       -0.0011
      3 C           1.1379    0.4977   21.0236 C.ar    1  UNL1        0.0014
      4 C           2.1326   -0.6251   21.0316 C.ar    1  UNL1        0.0206
      5 C           2.9040   -0.9348   22.2801 C.ar    1  UNL1        0.0989
      6 C           2.6808   -0.1217   23.5207 C.ar    1  UNL1        0.1511
      7 O           3.4522   -0.4314   24.7694 O.3     1  UNL1       -0.4678
      8 C           4.4469   -1.5541   24.7773 C.3     1  UNL1        0.2510
      9 C           4.6702   -2.3672   23.5367 C.ar    1  UNL1        0.1087
     10 C           5.5773   -3.5258   23.2457 C.ar    1  UNL1        0.1516
     11 N           5.3666   -3.9321   21.8173 N.ar    1  UNL1       -0.2192
     12 C           4.3291   -3.0247   21.2255 C.ar    1  UNL1        0.1828
     13 N           3.8987   -2.0575   22.2881 N.ar    1  UNL1       -0.2851
     14 C           6.5283   -4.1656   24.2133 C.2     1  UNL1        0.2648
     15 O           7.8222   -4.7439   23.7220 O.2     1  UNL1       -0.2684
     16 N           6.1853   -4.2272   25.6723 N.am    1  UNL1       -0.3012
     17 H           5.3361   -3.8477   25.9948 H       1  UNL1        0.1497
     18 C           7.1362   -4.8671   26.6399 C.3     1  UNL1        0.0720
     19 C           6.9655   -6.3089   27.0170 C.3     1  UNL1        0.0213
     20 C           8.2581   -4.0653   27.2305 C.3     1  UNL1        0.0213
     21 C           1.4628    1.8140   24.7534 C.3     1  UNL1        0.0468
     22 C           0.6147    1.2695   25.8644 C.3     1  UNL1        0.0770
     23 N           2.4289    0.4999   29.9099 N.pl3   1  UNL1       -0.3046
     24 C           1.0307    0.0433   29.6158 C.3     1  UNL1        0.1081
     25 C           0.4259    0.2998   28.2673 C.3     1  UNL1        0.0938
     26 N           1.2194    1.0130   27.2129 N.3     1  UNL1       -0.2695
     27 C           2.6177    1.4696   27.5070 C.3     1  UNL1        0.0938
     28 C           3.2224    1.2130   28.8555 C.3     1  UNL1        0.1081
     29 C           1.9263    3.9972   35.8062 C.3     1  UNL1        0.0521
     30 C           2.2031    3.0587   34.6692 C.ar    1  UNL1        0.0593
     31 C           1.5984    3.3153   33.3207 C.ar    1  UNL1        0.0148
     32 C           1.8752    2.3768   32.1838 C.ar    1  UNL1        0.0039
     33 C           2.7568    1.1818   32.3953 C.ar    1  UNL1        0.0310
     34 C           3.0336    0.2433   31.2584 C.ar    1  UNL1        0.0493
     35 C           3.9152   -0.9518   31.4700 C.ar    1  UNL1        0.0146
     36 C           4.5198   -1.2083   32.8185 C.ar    1  UNL1        0.0028
     37 C           4.2430   -0.2698   33.9554 C.ar    1  UNL1        0.0192
     38 C           3.3615    0.9252   33.7439 C.ar    1  UNL1        0.0821
     39 N           3.0847    1.8637   34.8808 N.ar    1  UNL1       -0.2496
@<TRIPOS>BOND
     1    29    30    1
     2    30    31   ar
     3    31    32   ar
     4    32    33   ar
     5    33    34   ar
     6    34    23    1
     7    23    24    1
     8    24    25    1
     9    25    26    1
    10    26    22    1
    11    22    21    1
    12    21     1    1
    13     1     2   ar
    14     2     3   ar
    15     3     4   ar
    16     4     5   ar
    17     5     6   ar
    18     6     7    1
    19     7     8    1
    20     8     9    1
    21     9    10   ar
    22    10    14    1
    23    14    15    2
    24    14    16   am
    25    16    18    1
    26    18    19    1
    27    18    20    1
    28    10    11   ar
    29    11    12   ar
    30    12    13   ar
    31    26    27    1
    32    27    28    1
    33    34    35   ar
    34    35    36   ar
    35    36    37   ar
    36    37    38   ar
    37    38    39   ar
    38    39    30   ar
    39    38    33   ar
    40    28    23    1
    41     6     1   ar
    42    13     9   ar
    43    13     5    1
    44    16    17    1
@<TRIPOS>MOLECULE
*****
 39 44 0 0 0
SMALL
GASTEIGER

@<TRIPOS>ATOM
      1 C          -1.4186    4.1893   19.7935 C.ar    1  UNL1        0.0146
      2 C          -2.7064    4.6566   19.1827 C.ar    1  UNL1       -0.0011
      3 C          -3.9361    4.7849   20.0319 C.ar    1  UNL1        0.0014
      4 C          -3.8781    4.4459   21.4919 C.ar    1  UNL1        0.0206
      5 C          -2.5903    3.9786   22.1028 C.ar    1  UNL1        0.0989
      6 C          -1.3605    3.8503   21.2536 C.ar    1  UNL1        0.1511
      7 O          -0.0727    3.3830   21.8644 O.3     1  UNL1       -0.4678
      8 C          -0.0146    3.0440   23.3244 C.3     1  UNL1        0.2510
      9 C          -1.2445    3.1724   24.1737 C.ar    1  UNL1        0.1087
     10 C          -1.4898    2.9122   25.6304 C.ar    1  UNL1        0.1516
     11 N          -2.9294    3.2188   25.9199 N.ar    1  UNL1       -0.2192
     12 C          -3.5736    3.6683   24.6420 C.ar    1  UNL1        0.1828
     13 N          -2.5323    3.6396   23.5628 N.ar    1  UNL1       -0.2851
     14 C          -0.4741    2.4302   26.6233 C.2     1  UNL1        0.2648
     15 O          -0.2140    0.9610   26.7770 O.2     1  UNL1       -0.2684
     16 N           0.2815    3.4176   27.4625 N.am    1  UNL1       -0.3012
     17 H           0.1108    4.3819   27.3616 H       1  UNL1        0.1497
     18 C           1.2973    2.9355   28.4554 C.3     1  UNL1        0.0720
     19 C           2.7054    2.6633   28.0158 C.3     1  UNL1        0.0213
     20 C           0.9051    2.7257   29.8880 C.3     1  UNL1        0.0213
     21 C          -0.1887    4.0610   18.9443 C.3     1  UNL1        0.0468
     22 C           0.0985    2.7736   18.2301 C.3     1  UNL1        0.0770
     23 N           2.5231   -0.4308   20.2557 N.pl3   1  UNL1       -0.3046
     24 C           3.2063    0.6122   19.4219 C.3     1  UNL1        0.1081
     25 C           2.3981    1.6804   18.7466 C.3     1  UNL1        0.0938
     26 N           0.9067    1.7055   18.9053 N.3     1  UNL1       -0.2695
     27 C           0.2235    0.6625   19.7392 C.3     1  UNL1        0.0938
     28 C           1.0317   -0.4056   20.4144 C.3     1  UNL1        0.1081
     29 C           4.3743   -1.1927   26.8316 C.3     1  UNL1        0.0521
     30 C           4.1135   -1.2692   25.3565 C.ar    1  UNL1        0.0593
     31 C           3.3053   -0.2011   24.6813 C.ar    1  UNL1        0.0148
     32 C           3.0446   -0.2777   23.2061 C.ar    1  UNL1        0.0039
     33 C           3.5920   -1.4223   22.4061 C.ar    1  UNL1        0.0310
     34 C           3.3312   -1.4989   20.9309 C.ar    1  UNL1        0.0493
     35 C           3.8787   -2.6436   20.1309 C.ar    1  UNL1        0.0146
     36 C           4.6869   -3.7118   20.8061 C.ar    1  UNL1        0.0028
     37 C           4.9477   -3.6352   22.2813 C.ar    1  UNL1        0.0192
     38 C           4.4002   -2.4905   23.0813 C.ar    1  UNL1        0.0821
     39 N           4.6610   -2.4140   24.5565 N.ar    1  UNL1       -0.2496
@<TRIPOS>BOND
     1    29    30    1
     2    30    31   ar
     3    31    32   ar
     4    32    33   ar
     5    33    34   ar
     6    34    23    1
     7    23    24    1
     8    24    25    1
     9    25    26    1
    10    26    22    1
    11    22    21    1
    12    21     1    1
    13     1     2   ar
    14     2     3   ar
    15     3     4   ar
    16     4     5   ar
    17     5     6   ar
    18     6     7    1
    19     7     8    1
    20     8     9    1
    21     9    10   ar
    22    10    14    1
    23    14    15    2
    24    14    16   am
    25    16    18    1
    26    18    19    1
    27    18    20    1
    28    10    11   ar
    29    11    12   ar
    30    12    13   ar
    31    26    27    1
    32    27    28    1
    33    34    35   ar
    34    35    36   ar
    35    36    37   ar
    36    37    38   ar
    37    38    39   ar
    38    39    30   ar
    39    38    33   ar
    40    28    23    1
    41     6     1   ar
    42    13     9   ar
    43    13     5    1
    44    16    17    1
