@<TRIPOS>MOLECULE
*****
 37 40 0 0 0
SMALL
GASTEIGER

@<TRIPOS>ATOM
      1 C          -0.3780    5.4572   20.3869 C.3     1  UNL1        0.0972
      2 C          -1.5767    4.7417   20.9355 C.3     1  UNL1        0.0431
      3 C          -1.2427    4.2723   22.3204 C.3     1  UNL1        0.0968
      4 N           0.1625    4.6977   22.6278 N.am    1  UNL1       -0.2623
      5 C           0.9032    4.4366   23.9058 C.2     1  UNL1        0.3073
      6 O           2.3117    4.9258   24.0696 O.2     1  UNL1       -0.2523
      7 N           0.2354    3.6864   25.0199 N.am    1  UNL1       -0.2626
      8 C          -1.1611    3.1389   25.0012 C.3     1  UNL1        0.0964
      9 C          -1.4127    2.4662   26.3180 C.3     1  UNL1        0.0390
     10 C          -0.1719    2.5979   27.1505 C.3     1  UNL1        0.0759
     11 C           0.8467    3.3520   26.3482 C.3     1  UNL1        0.1106
     12 C           0.6969    5.4300   21.4328 C.3     1  UNL1        0.1147
     13 C           0.4489    5.3764   17.9252 C.2     1  UNL1        0.2491
     14 O           0.5543    6.0082   16.5689 O.2     1  UNL1       -0.2699
     15 N          -0.2726    6.0890   19.0305 N.am    1  UNL1       -0.2742
     16 C          -0.8886    7.4334   18.7794 C.3     1  UNL1        0.1152
     17 C           2.2971    1.3432   18.6783 C.ar    1  UNL1        0.0000
     18 C           3.1599    2.5697   18.6482 C.ar    1  UNL1        0.0001
     19 C           2.5439    3.9141   18.3972 C.ar    1  UNL1        0.0045
     20 C           1.0649    4.0320   18.1762 C.ar    1  UNL1        0.0536
     21 C           0.2021    2.8054   18.2063 C.ar    1  UNL1        0.0045
     22 C           0.8181    1.4610   18.4574 C.ar    1  UNL1        0.0001
     23 C           4.1452   -2.6901   19.4315 C.ar    1  UNL1       -0.0222
     24 C           3.2730   -2.0581   20.4753 C.ar    1  UNL1       -0.0043
     25 C           2.6569   -0.7137   20.2243 C.ar    1  UNL1       -0.0003
     26 C           2.9131   -0.0013   18.9294 C.ar    1  UNL1       -0.0000
     27 C           3.7854   -0.6333   17.8855 C.ar    1  UNL1       -0.0003
     28 C           4.4014   -1.9777   18.1366 C.ar    1  UNL1       -0.0043
     29 C           4.5449   -5.1527   18.7065 C.3     1  UNL1        0.0050
     30 C           4.7613   -4.0345   19.6825 C.3     1  UNL1        0.0264
     31 N           0.0172    2.0683   28.5411 N.3     1  UNL1       -0.2962
     32 H          -0.6973    2.5062   29.1226 H       1  UNL1        0.1233
     33 C          -0.0594    0.5926   28.7986 C.3     1  UNL1        0.0841
     34 C          -1.3950   -0.0834   28.8954 C.3     1  UNL1        0.0197
     35 C           1.1993   -0.2071   28.9592 C.3     1  UNL1        0.1578
     36 O           1.6803   -0.5816   30.3298 O.3     1  UNL1       -0.3497
     37 C           3.1503   -0.6111   30.6267 C.3     1  UNL1        0.1742
@<TRIPOS>BOND
     1    29    30    1
     2    30    23    1
     3    23    24   ar
     4    24    25   ar
     5    25    26   ar
     6    26    17    1
     7    17    18   ar
     8    18    19   ar
     9    19    20   ar
    10    20    13    1
    11    13    14    2
    12    13    15   am
    13    15    16    1
    14     1    15    1
    15     1     2    1
    16     2     3    1
    17     3     4    1
    18     4     5   am
    19     5     6    2
    20     5     7   am
    21     7     8    1
    22     8     9    1
    23     9    10    1
    24    10    31    1
    25    31    33    1
    26    33    34    1
    27    33    35    1
    28    35    36    1
    29    36    37    1
    30    10    11    1
    31     4    12    1
    32    20    21   ar
    33    21    22   ar
    34    26    27   ar
    35    27    28   ar
    36    28    23   ar
    37    22    17   ar
    38    12     1    1
    39    11     7    1
    40    31    32    1
@<TRIPOS>MOLECULE
*****
 37 40 0 0 0
SMALL
GASTEIGER

@<TRIPOS>ATOM
      1 C          -1.2742    4.5865   23.8881 C.3     1  UNL1        0.0972
      2 C          -2.2019    3.5608   24.4688 C.3     1  UNL1        0.0431
      3 C          -1.4435    2.7824   25.5027 C.3     1  UNL1        0.0968
      4 N          -0.0470    3.3270   25.5609 N.am    1  UNL1       -0.2623
      5 C           1.0518    2.8418   26.4593 C.2     1  UNL1        0.3073
      6 O           2.4047    3.4875   26.4055 O.2     1  UNL1       -0.2523
      7 N           0.7979    1.7109   27.4115 N.am    1  UNL1       -0.2626
      8 C          -0.4967    0.9713   27.5766 C.3     1  UNL1        0.0964
      9 C          -0.3008   -0.0756   28.6328 C.3     1  UNL1        0.0390
     10 C           1.1147    0.0171   29.1205 C.3     1  UNL1        0.0759
     11 C           1.7937    1.1212   28.3656 C.3     1  UNL1        0.1106
     12 C           0.0576    4.4420   24.5630 C.3     1  UNL1        0.1147
     13 C          -1.1565    5.3587   21.4102 C.2     1  UNL1        0.2491
     14 O          -1.5002    6.3542   20.3421 O.2     1  UNL1       -0.2699
     15 N          -1.6179    5.5820   22.8199 N.am    1  UNL1       -0.2742
     16 C          -2.4230    6.8006   23.1614 C.3     1  UNL1        0.1152
     17 C           1.2589    1.7028   20.3855 C.ar    1  UNL1        0.0000
     18 C          -0.2393    1.6323   20.3992 C.ar    1  UNL1        0.0001
     19 C          -1.0444    2.8509   20.7407 C.ar    1  UNL1        0.0045
     20 C          -0.3513    4.1401   21.0686 C.ar    1  UNL1        0.0536
     21 C           1.1469    4.2106   21.0550 C.ar    1  UNL1        0.0045
     22 C           1.9520    2.9920   20.7135 C.ar    1  UNL1        0.0001
     23 C           3.6743   -1.9532   19.3609 C.ar    1  UNL1       -0.0222
     24 C           3.1223   -1.7827   20.7451 C.ar    1  UNL1       -0.0043
     25 C           2.3172   -0.5640   21.0867 C.ar    1  UNL1       -0.0003
     26 C           2.0641    0.4841   20.0440 C.ar    1  UNL1       -0.0000
     27 C           2.6161    0.3136   18.6598 C.ar    1  UNL1       -0.0003
     28 C           3.4212   -0.9050   18.3182 C.ar    1  UNL1       -0.0043
     29 C           3.8458   -4.5301   19.0784 C.3     1  UNL1        0.0050
     30 C           4.4794   -3.1718   19.0194 C.3     1  UNL1        0.0264
     31 N           1.7413   -0.8434   30.1774 N.3     1  UNL1       -0.2962
     32 H           2.2397   -1.5895   29.6924 H       1  UNL1        0.1233
     33 C           2.7058   -0.2444   31.1576 C.3     1  UNL1        0.0841
     34 C           2.4097    1.0865   31.7833 C.3     1  UNL1        0.0197
     35 C           3.9662   -0.9760   31.5123 C.3     1  UNL1        0.1578
     36 O           3.9542   -2.0060   32.6026 O.3     1  UNL1       -0.3497
     37 C           4.3073   -1.6155   34.0072 C.3     1  UNL1        0.1742
@<TRIPOS>BOND
     1    29    30    1
     2    30    23    1
     3    23    24   ar
     4    24    25   ar
     5    25    26   ar
     6    26    17    1
     7    17    18   ar
     8    18    19   ar
     9    19    20   ar
    10    20    13    1
    11    13    14    2
    12    13    15   am
    13    15    16    1
    14     1    15    1
    15     1     2    1
    16     2     3    1
    17     3     4    1
    18     4     5   am
    19     5     6    2
    20     5     7   am
    21     7     8    1
    22     8     9    1
    23     9    10    1
    24    10    31    1
    25    31    33    1
    26    33    34    1
    27    33    35    1
    28    35    36    1
    29    36    37    1
    30    10    11    1
    31     4    12    1
    32    20    21   ar
    33    21    22   ar
    34    26    27   ar
    35    27    28   ar
    36    28    23   ar
    37    22    17   ar
    38    12     1    1
    39    11     7    1
    40    31    32    1
@<TRIPOS>MOLECULE
*****
 37 40 0 0 0
SMALL
GASTEIGER

@<TRIPOS>ATOM
      1 C           3.9275    1.8052   34.0629 C.3     1  UNL1        0.0972
      2 C           4.8255    2.4245   33.0333 C.3     1  UNL1        0.0431
      3 C           4.0244    2.6274   31.7814 C.3     1  UNL1        0.0968
      4 N           2.6314    2.1334   32.0373 N.am    1  UNL1       -0.2623
      5 C           1.4974    2.1455   31.0556 C.2     1  UNL1        0.3073
      6 O           0.1527    1.6152   31.4564 O.2     1  UNL1       -0.2523
      7 N           1.7080    2.6880   29.6730 N.am    1  UNL1       -0.2626
      8 C           2.9896    3.2489   29.1318 C.3     1  UNL1        0.0964
      9 C           2.7477    3.6723   27.7133 C.3     1  UNL1        0.0390
     10 C           1.3166    3.3731   27.3779 C.3     1  UNL1        0.0759
     11 C           0.6741    2.7647   28.5890 C.3     1  UNL1        0.1106
     12 C           2.5715    1.6253   33.4473 C.3     1  UNL1        0.1147
     13 C           5.0542    0.1503   35.7189 C.2     1  UNL1        0.2491
     14 O           5.4438   -0.2235   37.1183 O.2     1  UNL1       -0.2699
     15 N           4.3172    1.4313   35.4624 N.am    1  UNL1       -0.2742
     16 C           3.9697    2.3385   36.6053 C.3     1  UNL1        0.1152
     17 C           6.0965   -2.5712   32.2901 C.ar    1  UNL1        0.0000
     18 C           4.7383   -2.6475   32.9221 C.ar    1  UNL1        0.0001
     19 C           4.3909   -1.7404   34.0650 C.ar    1  UNL1        0.0045
     20 C           5.4016   -0.7569   34.5759 C.ar    1  UNL1        0.0536
     21 C           6.7598   -0.6805   33.9439 C.ar    1  UNL1        0.0045
     22 C           7.1072   -1.5877   32.8010 C.ar    1  UNL1        0.0001
     23 C           7.1388   -5.2928   28.8612 C.ar    1  UNL1       -0.0222
     24 C           7.2496   -5.7884   30.2726 C.ar    1  UNL1       -0.0043
     25 C           6.9021   -4.8812   31.4156 C.ar    1  UNL1       -0.0003
     26 C           6.4439   -3.4784   31.1471 C.ar    1  UNL1       -0.0000
     27 C           6.3331   -2.9828   29.7357 C.ar    1  UNL1       -0.0003
     28 C           6.6805   -3.8900   28.5928 C.ar    1  UNL1       -0.0043
     29 C           7.1296   -5.8085   26.3149 C.3     1  UNL1        0.0050
     30 C           7.4862   -6.2000   27.7183 C.3     1  UNL1        0.0264
     31 N           0.6459    3.6360   26.0622 N.3     1  UNL1       -0.2962
     32 H           1.3792    3.6394   25.3533 H       1  UNL1        0.1233
     33 C          -0.4281    2.7117   25.5700 C.3     1  UNL1        0.0841
     34 C          -0.0790    1.3172   25.1416 C.3     1  UNL1        0.0197
     35 C          -1.8510    3.1818   25.5060 C.3     1  UNL1        0.1578
     36 O          -2.6723    3.2597   26.7588 O.3     1  UNL1       -0.3497
     37 C          -3.9607    4.0279   26.7645 C.3     1  UNL1        0.1742
@<TRIPOS>BOND
     1    29    30    1
     2    30    23    1
     3    23    24   ar
     4    24    25   ar
     5    25    26   ar
     6    26    17    1
     7    17    18   ar
     8    18    19   ar
     9    19    20   ar
    10    20    13    1
    11    13    14    2
    12    13    15   am
    13    15    16    1
    14     1    15    1
    15     1     2    1
    16     2     3    1
    17     3     4    1
    18     4     5   am
    19     5     6    2
    20     5     7   am
    21     7     8    1
    22     8     9    1
    23     9    10    1
    24    10    31    1
    25    31    33    1
    26    33    34    1
    27    33    35    1
    28    35    36    1
    29    36    37    1
    30    10    11    1
    31     4    12    1
    32    20    21   ar
    33    21    22   ar
    34    26    27   ar
    35    27    28   ar
    36    28    23   ar
    37    22    17   ar
    38    12     1    1
    39    11     7    1
    40    31    32    1
@<TRIPOS>MOLECULE
*****
 37 40 0 0 0
SMALL
GASTEIGER

@<TRIPOS>ATOM
      1 C           3.5908   -0.4413   19.9572 C.3     1  UNL1        0.0972
      2 C           2.1685   -0.7128   20.3487 C.3     1  UNL1        0.0431
      3 C           1.9152   -0.0448   21.6676 C.3     1  UNL1        0.0968
      4 N           3.1810    0.6395   22.0913 N.am    1  UNL1       -0.2623
      5 C           3.3769    1.4300   23.3509 C.2     1  UNL1        0.3073
      6 O           4.7066    2.0604   23.6417 O.2     1  UNL1       -0.2523
      7 N           2.2430    1.5902   24.3198 N.am    1  UNL1       -0.2626
      8 C           0.8640    1.0206   24.1651 C.3     1  UNL1        0.0964
      9 C           0.0578    1.4264   25.3632 C.3     1  UNL1        0.0390
     10 C           0.9386    2.2468   26.2583 C.3     1  UNL1        0.0759
     11 C           2.2891    2.3480   25.6135 C.3     1  UNL1        0.1106
     12 C           4.2166    0.3944   21.0342 C.3     1  UNL1        0.1147
     13 C           5.3267   -1.9813   18.7887 C.2     1  UNL1        0.2491
     14 O           6.0043   -2.4612   17.5395 O.2     1  UNL1       -0.2699
     15 N           4.2684   -0.9213   18.7079 N.am    1  UNL1       -0.2742
     16 C           3.8877   -0.3413   17.3780 C.3     1  UNL1        0.1152
     17 C           6.4688   -3.7213   22.7784 C.ar    1  UNL1        0.0000
     18 C           7.4604   -2.9033   22.0054 C.ar    1  UNL1        0.0001
     19 C           7.0797   -2.3233   20.6754 C.ar    1  UNL1        0.0045
     20 C           5.7074   -2.5613   20.1186 C.ar    1  UNL1        0.0536
     21 C           4.7158   -3.3792   20.8916 C.ar    1  UNL1        0.0045
     22 C           5.0965   -3.9592   22.2215 C.ar    1  UNL1        0.0001
     23 C           7.6108   -5.4613   26.7682 C.ar    1  UNL1       -0.0222
     24 C           6.8505   -4.1700   26.7031 C.ar    1  UNL1       -0.0043
     25 C           6.4698   -3.5900   25.3731 C.ar    1  UNL1       -0.0003
     26 C           6.8495   -4.3013   24.1083 C.ar    1  UNL1       -0.0000
     27 C           7.6098   -5.5926   24.1734 C.ar    1  UNL1       -0.0003
     28 C           7.9905   -6.1726   25.5033 C.ar    1  UNL1       -0.0043
     29 C           7.1519   -5.7574   29.3081 C.3     1  UNL1        0.0050
     30 C           7.9915   -6.0413   28.0981 C.3     1  UNL1        0.0264
     31 N           0.5390    2.8586   27.5683 N.3     1  UNL1       -0.2962
     32 H          -0.4496    3.0979   27.4921 H       1  UNL1        0.1233
     33 C           0.6992    2.0793   28.8398 C.3     1  UNL1        0.0841
     34 C           0.7047    2.7913   30.1602 C.3     1  UNL1        0.0197
     35 C           0.8539    0.5881   28.7913 C.3     1  UNL1        0.1578
     36 O          -0.3370   -0.2810   28.5150 O.3     1  UNL1       -0.3497
     37 C          -1.6568    0.0290   29.1570 C.3     1  UNL1        0.1742
@<TRIPOS>BOND
     1    29    30    1
     2    30    23    1
     3    23    24   ar
     4    24    25   ar
     5    25    26   ar
     6    26    17    1
     7    17    18   ar
     8    18    19   ar
     9    19    20   ar
    10    20    13    1
    11    13    14    2
    12    13    15   am
    13    15    16    1
    14     1    15    1
    15     1     2    1
    16     2     3    1
    17     3     4    1
    18     4     5   am
    19     5     6    2
    20     5     7   am
    21     7     8    1
    22     8     9    1
    23     9    10    1
    24    10    31    1
    25    31    33    1
    26    33    34    1
    27    33    35    1
    28    35    36    1
    29    36    37    1
    30    10    11    1
    31     4    12    1
    32    20    21   ar
    33    21    22   ar
    34    26    27   ar
    35    27    28   ar
    36    28    23   ar
    37    22    17   ar
    38    12     1    1
    39    11     7    1
    40    31    32    1
@<TRIPOS>MOLECULE
*****
 37 40 0 0 0
SMALL
GASTEIGER

@<TRIPOS>ATOM
      1 C           5.3908   -2.1486   21.6891 C.3     1  UNL1        0.0972
      2 C           4.6113   -2.9279   22.7064 C.3     1  UNL1        0.0431
      3 C           4.3479   -2.0282   23.8774 C.3     1  UNL1        0.0968
      4 N           4.9648   -0.6927   23.5837 N.am    1  UNL1       -0.2623
      5 C           4.9412    0.5066   24.4844 C.2     1  UNL1        0.3073
      6 O           5.6045    1.7811   24.0536 O.2     1  UNL1       -0.2523
      7 N           4.2543    0.4313   25.8157 N.am    1  UNL1       -0.2626
      8 C           3.5517   -0.7685   26.3788 C.3     1  UNL1        0.0964
      9 C           3.0126   -0.3987   27.7288 C.3     1  UNL1        0.0390
     10 C           3.3819    1.0296   28.0001 C.3     1  UNL1        0.0759
     11 C           4.1493    1.5425   26.8178 C.3     1  UNL1        0.1106
     12 C           5.6093   -0.7672   22.2313 C.3     1  UNL1        0.1147
     13 C           5.2098   -2.1949   19.0978 C.2     1  UNL1        0.2491
     14 O           5.6871   -2.7071   17.7712 O.2     1  UNL1       -0.2699
     15 N           5.8681   -2.6608   20.3625 N.am    1  UNL1       -0.2742
     16 C           7.0037   -3.6388   20.3006 C.3     1  UNL1        0.1152
     17 C           1.8030    0.7392   19.2833 C.ar    1  UNL1        0.0000
     18 C           1.6400   -0.6367   19.8580 C.ar    1  UNL1        0.0001
     19 C           2.7756   -1.6147   19.7962 C.ar    1  UNL1        0.0045
     20 C           4.0742   -1.2169   19.1596 C.ar    1  UNL1        0.0536
     21 C           4.2372    0.1590   18.5849 C.ar    1  UNL1        0.0045
     22 C           3.1016    1.1370   18.6467 C.ar    1  UNL1        0.0001
     23 C          -1.6039    3.6733   19.4688 C.ar    1  UNL1       -0.0222
     24 C          -1.3166    2.7825   20.6409 C.ar    1  UNL1       -0.0043
     25 C          -0.1809    1.8045   20.5791 C.ar    1  UNL1       -0.0003
     26 C           0.6674    1.7172   19.3451 C.ar    1  UNL1       -0.0000
     27 C           0.3801    2.6080   18.1730 C.ar    1  UNL1       -0.0003
     28 C          -0.7556    3.5860   18.2348 C.ar    1  UNL1       -0.0043
     29 C          -4.1554    4.1626   19.4518 C.3     1  UNL1        0.0050
     30 C          -2.7395    4.6513   19.5306 C.3     1  UNL1        0.0264
     31 N           3.0433    1.8082   29.2366 N.3     1  UNL1       -0.2962
     32 H           2.6556    2.6993   28.9266 H       1  UNL1        0.1233
     33 C           2.0813    1.2428   30.2390 C.3     1  UNL1        0.0841
     34 C           2.5856    0.7265   31.5540 C.3     1  UNL1        0.0197
     35 C           0.6151    1.1936   29.9265 C.3     1  UNL1        0.1578
     36 O          -0.0423   -0.1186   29.6169 O.3     1  UNL1       -0.3497
     37 C          -1.3456   -0.1480   28.8750 C.3     1  UNL1        0.1742
@<TRIPOS>BOND
     1    29    30    1
     2    30    23    1
     3    23    24   ar
     4    24    25   ar
     5    25    26   ar
     6    26    17    1
     7    17    18   ar
     8    18    19   ar
     9    19    20   ar
    10    20    13    1
    11    13    14    2
    12    13    15   am
    13    15    16    1
    14     1    15    1
    15     1     2    1
    16     2     3    1
    17     3     4    1
    18     4     5   am
    19     5     6    2
    20     5     7   am
    21     7     8    1
    22     8     9    1
    23     9    10    1
    24    10    31    1
    25    31    33    1
    26    33    34    1
    27    33    35    1
    28    35    36    1
    29    36    37    1
    30    10    11    1
    31     4    12    1
    32    20    21   ar
    33    21    22   ar
    34    26    27   ar
    35    27    28   ar
    36    28    23   ar
    37    22    17   ar
    38    12     1    1
    39    11     7    1
    40    31    32    1
@<TRIPOS>MOLECULE
*****
 37 40 0 0 0
SMALL
GASTEIGER

@<TRIPOS>ATOM
      1 C           3.5277    0.0075   28.0388 C.3     1  UNL1        0.0972
      2 C           3.3544   -1.2428   27.2284 C.3     1  UNL1        0.0431
      3 C           3.6371   -0.9082   25.7937 C.3     1  UNL1        0.0968
      4 N           3.9851    0.5490   25.7175 N.am    1  UNL1       -0.2623
      5 C           4.3386    1.3070   24.4724 C.2     1  UNL1        0.3073
      6 O           4.6654    2.7688   24.5517 O.2     1  UNL1       -0.2523
      7 N           4.3653    0.6033   23.1479 N.am    1  UNL1       -0.2626
      8 C           4.0632   -0.8473   22.9141 C.3     1  UNL1        0.0964
      9 C           4.2100   -1.1205   21.4465 C.3     1  UNL1        0.0390
     10 C           4.6028    0.1611   20.7734 C.3     1  UNL1        0.0759
     11 C           4.6987    1.2265   21.8250 C.3     1  UNL1        0.1106
     12 C           3.9174    1.1149   27.1050 C.3     1  UNL1        0.1147
     13 C           2.1321    0.8210   30.0737 C.2     1  UNL1        0.2491
     14 O           1.9480    0.9426   31.5573 O.2     1  UNL1       -0.2699
     15 N           3.3435    0.1291   29.5225 N.am    1  UNL1       -0.2742
     16 C           4.3708   -0.4411   30.4550 C.3     1  UNL1        0.1152
     17 C          -0.9497    2.5318   27.2762 C.ar    1  UNL1        0.0000
     18 C          -0.9868    1.0753   27.6329 C.ar    1  UNL1        0.0001
     19 C           0.0405    0.5050   28.5653 C.ar    1  UNL1        0.0045
     20 C           1.1049    1.3913   29.1412 C.ar    1  UNL1        0.0536
     21 C           1.1420    2.8477   28.7845 C.ar    1  UNL1        0.0045
     22 C           0.1147    3.4180   27.8520 C.ar    1  UNL1        0.0001
     23 C          -4.0315    4.2426   24.4788 C.ar    1  UNL1       -0.0222
     24 C          -2.7324    3.7241   23.9370 C.ar    1  UNL1       -0.0043
     25 C          -1.7051    3.1539   24.8695 C.ar    1  UNL1       -0.0003
     26 C          -1.9770    3.1020   26.3437 C.ar    1  UNL1       -0.0000
     27 C          -3.2761    3.6205   26.8855 C.ar    1  UNL1       -0.0003
     28 C          -4.3033    4.1907   25.9530 C.ar    1  UNL1       -0.0043
     29 C          -6.1210    3.9258   22.9676 C.3     1  UNL1        0.0050
     30 C          -5.0588    4.8128   23.5463 C.3     1  UNL1        0.0264
     31 N           4.8552    0.3452   19.3063 N.3     1  UNL1       -0.2962
     32 H           5.6864   -0.2009   19.0798 H       1  UNL1        0.1233
     33 C           3.8011   -0.0374   18.3101 C.3     1  UNL1        0.0841
     34 C           2.4492    0.6106   18.3625 C.3     1  UNL1        0.0197
     35 C           4.0986   -1.0679   17.2616 C.3     1  UNL1        0.1578
     36 O           5.3032   -1.9511   17.3984 O.3     1  UNL1       -0.3497
     37 C           5.2703   -3.1252   18.3314 C.3     1  UNL1        0.1742
@<TRIPOS>BOND
     1    29    30    1
     2    30    23    1
     3    23    24   ar
     4    24    25   ar
     5    25    26   ar
     6    26    17    1
     7    17    18   ar
     8    18    19   ar
     9    19    20   ar
    10    20    13    1
    11    13    14    2
    12    13    15   am
    13    15    16    1
    14     1    15    1
    15     1     2    1
    16     2     3    1
    17     3     4    1
    18     4     5   am
    19     5     6    2
    20     5     7   am
    21     7     8    1
    22     8     9    1
    23     9    10    1
    24    10    31    1
    25    31    33    1
    26    33    34    1
    27    33    35    1
    28    35    36    1
    29    36    37    1
    30    10    11    1
    31     4    12    1
    32    20    21   ar
    33    21    22   ar
    34    26    27   ar
    35    27    28   ar
    36    28    23   ar
    37    22    17   ar
    38    12     1    1
    39    11     7    1
    40    31    32    1
@<TRIPOS>MOLECULE
*****
 37 40 0 0 0
SMALL
GASTEIGER

@<TRIPOS>ATOM
      1 C           4.5834   -0.0781   19.8833 C.3     1  UNL1        0.0972
      2 C           5.2666    0.2766   21.1707 C.3     1  UNL1        0.0431
      3 C           4.2086    0.6124   22.1796 C.3     1  UNL1        0.0968
      4 N           2.8715    0.4652   21.5157 N.am    1  UNL1       -0.2623
      5 C           1.5371    0.7031   22.1582 C.2     1  UNL1        0.3073
      6 O           0.2784    0.5148   21.3645 O.2     1  UNL1       -0.2523
      7 N           1.4615    1.1291   23.5944 N.am    1  UNL1       -0.2626
      8 C           2.6284    1.3564   24.5093 C.3     1  UNL1        0.0964
      9 C           2.0939    1.7705   25.8482 C.3     1  UNL1        0.0390
     10 C           0.5967    1.7991   25.7609 C.3     1  UNL1        0.0759
     11 C           0.2059    1.4027   24.3680 C.3     1  UNL1        0.1106
     12 C           3.1032    0.0385   20.0965 C.3     1  UNL1        0.1147
     13 C           6.1870   -1.6592   18.5876 C.2     1  UNL1        0.2491
     14 O           6.8649   -2.0601   17.3110 O.2     1  UNL1       -0.2699
     15 N           5.2615   -0.4790   18.6066 N.am    1  UNL1       -0.2742
     16 C           5.0139    0.3004   17.3492 C.3     1  UNL1        0.1152
     17 C           6.9296   -3.9975   22.3600 C.ar    1  UNL1        0.0000
     18 C           5.5513   -3.9427   21.7706 C.ar    1  UNL1        0.0001
     19 C           5.3038   -3.1633   20.5131 C.ar    1  UNL1        0.0045
     20 C           6.4345   -2.4387   19.8450 C.ar    1  UNL1        0.0536
     21 C           7.8127   -2.4934   20.4344 C.ar    1  UNL1        0.0045
     22 C           8.0602   -3.2728   21.6919 C.ar    1  UNL1        0.0001
     23 C           7.6722   -6.3357   26.1324 C.ar    1  UNL1       -0.0222
     24 C           6.8658   -5.0719   26.1799 C.ar    1  UNL1       -0.0043
     25 C           6.6182   -4.2924   24.9224 C.ar    1  UNL1       -0.0003
     26 C           7.1771   -4.7769   23.6174 C.ar    1  UNL1       -0.0000
     27 C           7.9835   -6.0408   23.5700 C.ar    1  UNL1       -0.0003
     28 C           8.2310   -6.8202   24.8274 C.ar    1  UNL1       -0.0043
     29 C           8.2890   -8.5669   27.3120 C.3     1  UNL1        0.0050
     30 C           7.9197   -7.1152   27.3899 C.3     1  UNL1        0.0264
     31 N          -0.3445    2.1606   26.8715 N.3     1  UNL1       -0.2962
     32 H          -1.2356    1.7114   26.6603 H       1  UNL1        0.1233
     33 C          -0.0049    1.8040   28.2883 C.3     1  UNL1        0.0841
     34 C           0.6427    2.8193   29.1827 C.3     1  UNL1        0.0197
     35 C          -0.3128    0.4321   28.8109 C.3     1  UNL1        0.1578
     36 O           0.7490   -0.3569   29.5181 O.3     1  UNL1       -0.3497
     37 C           2.1241   -0.4613   28.9281 C.3     1  UNL1        0.1742
@<TRIPOS>BOND
     1    29    30    1
     2    30    23    1
     3    23    24   ar
     4    24    25   ar
     5    25    26   ar
     6    26    17    1
     7    17    18   ar
     8    18    19   ar
     9    19    20   ar
    10    20    13    1
    11    13    14    2
    12    13    15   am
    13    15    16    1
    14     1    15    1
    15     1     2    1
    16     2     3    1
    17     3     4    1
    18     4     5   am
    19     5     6    2
    20     5     7   am
    21     7     8    1
    22     8     9    1
    23     9    10    1
    24    10    31    1
    25    31    33    1
    26    33    34    1
    27    33    35    1
    28    35    36    1
    29    36    37    1
    30    10    11    1
    31     4    12    1
    32    20    21   ar
    33    21    22   ar
    34    26    27   ar
    35    27    28   ar
    36    28    23   ar
    37    22    17   ar
    38    12     1    1
    39    11     7    1
    40    31    32    1
@<TRIPOS>MOLECULE
*****
 37 40 0 0 0
SMALL
GASTEIGER

@<TRIPOS>ATOM
      1 C           3.4024    0.0560   28.2445 C.3     1  UNL1        0.0972
      2 C           3.3634   -1.2668   27.5384 C.3     1  UNL1        0.0431
      3 C           3.5859   -1.0184   26.0760 C.3     1  UNL1        0.0968
      4 N           3.7623    0.4580   25.8781 N.am    1  UNL1       -0.2623
      5 C           4.0088    1.1490   24.5698 C.2     1  UNL1        0.3073
      6 O           4.1658    2.6402   24.5271 O.2     1  UNL1       -0.2523
      7 N           4.0984    0.3489   23.3042 N.am    1  UNL1       -0.2626
      8 C           3.9625   -1.1408   23.1914 C.3     1  UNL1        0.0964
      9 C           4.1197   -1.5124   21.7467 C.3     1  UNL1        0.0390
     10 C           4.3526   -0.2525   20.9667 C.3     1  UNL1        0.0759
     11 C           4.3395    0.8978   21.9292 C.3     1  UNL1        0.1106
     12 C           3.6489    1.1220   27.2183 C.3     1  UNL1        0.1147
     13 C           2.0279    1.0199   30.2274 C.2     1  UNL1        0.2491
     14 O           1.8514    1.2384   31.7008 O.2     1  UNL1       -0.2699
     15 N           3.2258    0.2746   29.7180 N.am    1  UNL1       -0.2742
     16 C           4.2472   -0.2522   30.6820 C.3     1  UNL1        0.1152
     17 C          -1.0362    2.6001   27.3354 C.ar    1  UNL1        0.0000
     18 C          -1.0306    1.1456   27.7017 C.ar    1  UNL1        0.0001
     19 C          -0.0093    0.6188   28.6657 C.ar    1  UNL1        0.0045
     20 C           1.0065    1.5466   29.2634 C.ar    1  UNL1        0.0536
     21 C           1.0010    3.0012   28.8971 C.ar    1  UNL1        0.0045
     22 C          -0.0204    3.5279   27.9331 C.ar    1  UNL1        0.0001
     23 C          -4.1004    4.1804   24.4434 C.ar    1  UNL1       -0.0222
     24 C          -4.3714    4.2181   25.9182 C.ar    1  UNL1       -0.0043
     25 C          -3.3500    3.6913   26.8822 C.ar    1  UNL1       -0.0003
     26 C          -2.0576    3.1269   26.3714 C.ar    1  UNL1       -0.0000
     27 C          -1.7865    3.0892   24.8966 C.ar    1  UNL1       -0.0003
     28 C          -2.8079    3.6160   23.9326 C.ar    1  UNL1       -0.0043
     29 C          -4.9890    4.4178   22.0136 C.3     1  UNL1        0.0050
     30 C          -5.1217    4.7072   23.4794 C.3     1  UNL1        0.0264
     31 N           4.5620   -0.1593   19.4843 N.3     1  UNL1       -0.2962
     32 H           5.2116   -0.9039   19.2312 H       1  UNL1        0.1233
     33 C           3.3914   -0.2708   18.5530 C.3     1  UNL1        0.0841
     34 C           3.6050   -0.6792   17.1255 C.3     1  UNL1        0.0197
     35 C           2.0074    0.0261   19.0491 C.3     1  UNL1        0.1578
     36 O           0.9930    0.6316   18.1247 O.3     1  UNL1       -0.3497
     37 C           0.5290    2.0416   18.3404 C.3     1  UNL1        0.1742
@<TRIPOS>BOND
     1    29    30    1
     2    30    23    1
     3    23    24   ar
     4    24    25   ar
     5    25    26   ar
     6    26    17    1
     7    17    18   ar
     8    18    19   ar
     9    19    20   ar
    10    20    13    1
    11    13    14    2
    12    13    15   am
    13    15    16    1
    14     1    15    1
    15     1     2    1
    16     2     3    1
    17     3     4    1
    18     4     5   am
    19     5     6    2
    20     5     7   am
    21     7     8    1
    22     8     9    1
    23     9    10    1
    24    10    31    1
    25    31    33    1
    26    33    34    1
    27    33    35    1
    28    35    36    1
    29    36    37    1
    30    10    11    1
    31     4    12    1
    32    20    21   ar
    33    21    22   ar
    34    26    27   ar
    35    27    28   ar
    36    28    23   ar
    37    22    17   ar
    38    12     1    1
    39    11     7    1
    40    31    32    1
@<TRIPOS>MOLECULE
*****
 37 40 0 0 0
SMALL
GASTEIGER

@<TRIPOS>ATOM
      1 C           3.1500    2.0543   32.9701 C.3     1  UNL1        0.0972
      2 C           4.0378    2.4078   31.8139 C.3     1  UNL1        0.0431
      3 C           3.2518    2.2170   30.5507 C.3     1  UNL1        0.0968
      4 N           1.8782    1.7455   30.9262 N.am    1  UNL1       -0.2623
      5 C           0.7633    1.4300   29.9736 C.2     1  UNL1        0.3073
      6 O          -0.5630    0.9660   30.4987 O.2     1  UNL1       -0.2523
      7 N           0.9746    1.5783   28.4960 N.am    1  UNL1       -0.2626
      8 C           2.2392    2.0296   27.8272 C.3     1  UNL1        0.0964
      9 C           2.0047    2.0317   26.3457 C.3     1  UNL1        0.0390
     10 C           0.5952    1.5817   26.0989 C.3     1  UNL1        0.0759
     11 C          -0.0414    1.3015   27.4278 C.3     1  UNL1        0.1106
     12 C           1.8153    1.6450   32.4215 C.3     1  UNL1        0.1147
     13 C           4.4195    1.0408   34.9978 C.2     1  UNL1        0.2491
     14 O           4.7996    1.0883   36.4480 O.2     1  UNL1       -0.2699
     15 N           3.5302    2.1018   34.4204 N.am    1  UNL1       -0.2742
     16 C           3.0211    3.2103   35.2933 C.3     1  UNL1        0.1152
     17 C           5.9469   -2.2848   32.3792 C.ar    1  UNL1        0.0000
     18 C           4.6242   -2.4236   33.0727 C.ar    1  UNL1        0.0001
     19 C           4.1150   -1.3151   33.9456 C.ar    1  UNL1        0.0045
     20 C           4.9286   -0.0678   34.1249 C.ar    1  UNL1        0.0536
     21 C           6.2514    0.0710   33.4314 C.ar    1  UNL1        0.0045
     22 C           6.7605   -1.0375   32.5585 C.ar    1  UNL1        0.0001
     23 C           7.4744   -5.6105   29.7606 C.ar    1  UNL1       -0.0222
     24 C           7.1318   -4.2796   29.1594 C.ar    1  UNL1       -0.0043
     25 C           6.6226   -3.1711   30.0323 C.ar    1  UNL1       -0.0003
     26 C           6.4561   -3.3934   31.5063 C.ar    1  UNL1       -0.0000
     27 C           6.7988   -4.7242   32.1075 C.ar    1  UNL1       -0.0003
     28 C           7.3079   -5.8327   31.2346 C.ar    1  UNL1       -0.0043
     29 C           9.0350   -6.4381   27.8555 C.3     1  UNL1        0.0050
     30 C           7.9836   -6.7190   28.8877 C.3     1  UNL1        0.0264
     31 N          -0.0622    1.4372   24.7584 N.3     1  UNL1       -0.2962
     32 H          -1.0574    1.2965   24.9322 H       1  UNL1        0.1233
     33 C           0.0491    2.5383   23.7459 C.3     1  UNL1        0.0841
     34 C          -0.3896    3.9287   24.0986 C.3     1  UNL1        0.0197
     35 C           0.5991    2.2491   22.3807 C.3     1  UNL1        0.1578
     36 O          -0.2857    1.6533   21.3262 O.3     1  UNL1       -0.3497
     37 C           0.2555    0.6093   20.3950 C.3     1  UNL1        0.1742
@<TRIPOS>BOND
     1    29    30    1
     2    30    23    1
     3    23    24   ar
     4    24    25   ar
     5    25    26   ar
     6    26    17    1
     7    17    18   ar
     8    18    19   ar
     9    19    20   ar
    10    20    13    1
    11    13    14    2
    12    13    15   am
    13    15    16    1
    14     1    15    1
    15     1     2    1
    16     2     3    1
    17     3     4    1
    18     4     5   am
    19     5     6    2
    20     5     7   am
    21     7     8    1
    22     8     9    1
    23     9    10    1
    24    10    31    1
    25    31    33    1
    26    33    34    1
    27    33    35    1
    28    35    36    1
    29    36    37    1
    30    10    11    1
    31     4    12    1
    32    20    21   ar
    33    21    22   ar
    34    26    27   ar
    35    27    28   ar
    36    28    23   ar
    37    22    17   ar
    38    12     1    1
    39    11     7    1
    40    31    32    1
