@<TRIPOS>MOLECULE
*****
 26 29 0 0 0
SMALL
GASTEIGER

@<TRIPOS>ATOM
      1 N          -7.3483  -19.0508   20.9827 N.am    1  UNL1       -0.2707
      2 C          -6.0997  -19.8821   20.9926 C.2     1  UNL1        0.2686
      3 O          -6.1779  -21.3563   20.7271 O.2     1  UNL1       -0.2682
      4 C          -4.7728  -19.2390   21.2681 C.ar    1  UNL1        0.1535
      5 C          -3.7458  -18.8619   20.2419 C.ar    1  UNL1        0.1012
      6 N          -2.5783  -18.2500   20.9577 N.ar    1  UNL1       -0.3057
      7 C          -1.3252  -17.7304   20.3173 C.3     1  UNL1        0.1321
      8 C          -2.8837  -18.2489   22.4263 C.ar    1  UNL1        0.1787
      9 N          -4.2399  -18.8601   22.6181 N.ar    1  UNL1       -0.2192
     10 C          -7.2700  -17.5766   21.2482 C.3     1  UNL1        0.0941
     11 C          -8.2785  -15.2616   27.3540 C.3     1  UNL1        0.0896
     12 N          -8.0496  -15.7871   25.9679 N.3     1  UNL1       -0.2715
     13 C          -6.8347  -15.5440   25.1222 C.3     1  UNL1        0.0722
     14 C          -7.0296  -16.2547   23.8157 C.3     1  UNL1        0.0191
     15 C          -8.3649  -16.9371   23.8539 C.3     1  UNL1        0.0191
     16 C          -8.9952  -16.6482   25.1841 C.3     1  UNL1        0.0722
     17 C          -7.4990  -17.0511   22.6344 C.3     1  UNL1        0.0226
     18 C          -8.6752  -19.6939   20.7073 C.3     1  UNL1        0.1205
     19 C          -9.8981  -19.2365   21.4459 C.ar    1  UNL1       -0.0000
     20 C         -10.1816  -19.7588   22.8231 C.ar    1  UNL1       -0.0016
     21 C         -11.4045  -19.3014   23.5616 C.ar    1  UNL1        0.0134
     22 C         -12.3437  -18.3217   22.9229 C.ar    1  UNL1        0.0850
     23 CL        -13.5666  -17.8642   23.6614 Cl      1  UNL1       -0.0799
     24 C         -12.0601  -17.7993   21.5457 C.ar    1  UNL1        0.1503
     25 F         -12.9994  -16.8196   20.9070 F       1  UNL1       -0.2033
     26 C         -10.8373  -18.2568   20.8072 C.ar    1  UNL1        0.0279
@<TRIPOS>BOND
     1    11    12    1
     2    12    13    1
     3    14    13    1
     4    14    15    1
     5    15    16    1
     6    15    17    1
     7    17    10    1
     8    10     1    1
     9     1    18    1
    10    18    19    1
    11    19    20   ar
    12    20    21   ar
    13    21    22   ar
    14    22    23    1
    15    22    24   ar
    16    24    25    1
    17    24    26   ar
    18     1     2   am
    19     2     3    2
    20     2     4    1
    21     4     5   ar
    22     5     6   ar
    23     6     7    1
    24     6     8   ar
    25     8     9   ar
    26    16    12    1
    27    26    19   ar
    28     9     4   ar
    29    17    14    1
@<TRIPOS>MOLECULE
*****
 26 29 0 0 0
SMALL
GASTEIGER

@<TRIPOS>ATOM
      1 N          -8.5313  -18.7131   20.6699 N.am    1  UNL1       -0.2707
      2 C          -9.8847  -19.3448   20.8100 C.2     1  UNL1        0.2686
      3 O         -10.1028  -20.7586   20.3590 O.2     1  UNL1       -0.2682
      4 C         -11.0199  -18.5625   21.4012 C.ar    1  UNL1        0.1535
      5 C         -11.7445  -18.8854   22.6742 C.ar    1  UNL1        0.1012
      6 N         -12.8021  -17.8425   22.8828 N.ar    1  UNL1       -0.3057
      7 C         -13.7622  -17.7783   24.0336 C.3     1  UNL1        0.1321
      8 C         -12.7313  -16.8751   21.7387 C.ar    1  UNL1        0.1787
      9 N         -11.6298  -17.3201   20.8230 N.ar    1  UNL1       -0.2192
     10 C          -8.3133  -17.2993   21.1210 C.3     1  UNL1        0.0941
     11 C          -8.2023  -15.8691   27.5707 C.3     1  UNL1        0.0896
     12 N          -8.2275  -16.1938   26.1065 N.3     1  UNL1       -0.2715
     13 C          -7.3128  -15.6264   25.0617 C.3     1  UNL1        0.0722
     14 C          -7.6918  -16.2248   23.7394 C.3     1  UNL1        0.0191
     15 C          -8.8406  -17.1621   23.9670 C.3     1  UNL1        0.0191
     16 C          -9.1717  -17.1429   25.4300 C.3     1  UNL1        0.0722
     17 C          -8.2881  -16.9746   22.5851 C.3     1  UNL1        0.0226
     18 C          -7.3962  -19.4953   20.0788 C.3     1  UNL1        0.1205
     19 C          -6.0016  -19.3003   20.5957 C.ar    1  UNL1       -0.0000
     20 C          -5.7216  -19.4255   22.0640 C.ar    1  UNL1       -0.0016
     21 C          -4.3269  -19.2305   22.5809 C.ar    1  UNL1        0.0134
     22 C          -3.2124  -18.9102   21.6295 C.ar    1  UNL1        0.0850
     23 CL         -1.8179  -18.7151   22.1463 Cl      1  UNL1       -0.0799
     24 C          -3.4925  -18.7850   20.1611 C.ar    1  UNL1        0.1503
     25 F          -2.3779  -18.4647   19.2097 F       1  UNL1       -0.2033
     26 C          -4.8870  -18.9800   19.6443 C.ar    1  UNL1        0.0279
@<TRIPOS>BOND
     1    11    12    1
     2    12    13    1
     3    14    13    1
     4    14    15    1
     5    15    16    1
     6    15    17    1
     7    17    10    1
     8    10     1    1
     9     1    18    1
    10    18    19    1
    11    19    20   ar
    12    20    21   ar
    13    21    22   ar
    14    22    23    1
    15    22    24   ar
    16    24    25    1
    17    24    26   ar
    18     1     2   am
    19     2     3    2
    20     2     4    1
    21     4     5   ar
    22     5     6   ar
    23     6     7    1
    24     6     8   ar
    25     8     9   ar
    26    16    12    1
    27    26    19   ar
    28     9     4   ar
    29    17    14    1
@<TRIPOS>MOLECULE
*****
 26 29 0 0 0
SMALL
GASTEIGER

@<TRIPOS>ATOM
      1 N          -8.0723  -18.7284   21.8961 N.am    1  UNL1       -0.2707
      2 C          -9.4988  -19.0947   21.6114 C.2     1  UNL1        0.2686
      3 O          -9.8951  -20.5371   21.5007 O.2     1  UNL1       -0.2682
      4 C         -10.5290  -18.0184   21.4372 C.ar    1  UNL1        0.1535
      5 C         -11.0108  -17.4622   20.1302 C.ar    1  UNL1        0.1012
      6 N         -12.0378  -16.4094   20.4247 N.ar    1  UNL1       -0.3057
      7 C         -12.7814  -15.5942   19.4085 C.3     1  UNL1        0.1321
      8 C         -12.1907  -16.3149   21.9139 C.ar    1  UNL1        0.1787
      9 N         -11.2583  -17.3093   22.5397 N.ar    1  UNL1       -0.2192
     10 C          -7.6760  -17.2860   22.0068 C.3     1  UNL1        0.0941
     11 C          -6.8494  -14.5342   27.9567 C.3     1  UNL1        0.0896
     12 N          -7.0371  -15.1589   26.6060 N.3     1  UNL1       -0.2715
     13 C          -5.9686  -15.3643   25.5733 C.3     1  UNL1        0.0722
     14 C          -6.5973  -16.0203   24.3798 C.3     1  UNL1        0.0191
     15 C          -8.0544  -16.2203   24.6748 C.3     1  UNL1        0.0191
     16 C          -8.3262  -15.6880   26.0506 C.3     1  UNL1        0.0722
     17 C          -7.4884  -16.6613   23.3575 C.3     1  UNL1        0.0226
     18 C          -7.0421  -19.8047   22.0703 C.3     1  UNL1        0.1205
     19 C          -5.6330  -19.5757   21.6098 C.ar    1  UNL1       -0.0000
     20 C          -5.2316  -19.9434   20.2121 C.ar    1  UNL1       -0.0016
     21 C          -3.8224  -19.7144   19.7516 C.ar    1  UNL1        0.0134
     22 C          -2.8148  -19.1177   20.6889 C.ar    1  UNL1        0.0850
     23 CL         -1.4057  -18.8886   20.2284 Cl      1  UNL1       -0.0799
     24 C          -3.2162  -18.7499   22.0866 C.ar    1  UNL1        0.1503
     25 F          -2.2086  -18.1532   23.0239 F       1  UNL1       -0.2033
     26 C          -4.6253  -18.9789   22.5470 C.ar    1  UNL1        0.0279
@<TRIPOS>BOND
     1    11    12    1
     2    12    13    1
     3    14    13    1
     4    14    15    1
     5    15    16    1
     6    15    17    1
     7    17    10    1
     8    10     1    1
     9     1    18    1
    10    18    19    1
    11    19    20   ar
    12    20    21   ar
    13    21    22   ar
    14    22    23    1
    15    22    24   ar
    16    24    25    1
    17    24    26   ar
    18     1     2   am
    19     2     3    2
    20     2     4    1
    21     4     5   ar
    22     5     6   ar
    23     6     7    1
    24     6     8   ar
    25     8     9   ar
    26    16    12    1
    27    26    19   ar
    28     9     4   ar
    29    17    14    1
@<TRIPOS>MOLECULE
*****
 26 29 0 0 0
SMALL
GASTEIGER

@<TRIPOS>ATOM
      1 N         -11.9495   -1.6937   18.3432 N.am    1  UNL1       -0.2707
      2 C         -12.5451   -0.5647   17.5553 C.2     1  UNL1        0.2686
      3 O         -11.8594   -0.0718   16.3156 O.2     1  UNL1       -0.2682
      4 C         -13.8262    0.0712   18.0071 C.ar    1  UNL1        0.1535
      5 C         -15.2081   -0.4568   17.7589 C.ar    1  UNL1        0.1012
      6 N         -16.1863    0.4925   18.3848 N.ar    1  UNL1       -0.3057
      7 C         -17.6798    0.3518   18.3771 C.3     1  UNL1        0.1321
      8 C         -15.4091    1.6072   19.0198 C.ar    1  UNL1        0.1787
      9 N         -13.9505    1.3469   18.7864 N.ar    1  UNL1       -0.2192
     10 C         -12.6351   -2.1867   19.5829 C.3     1  UNL1        0.0941
     11 C         -16.2308   -7.7266   19.3885 C.3     1  UNL1        0.0896
     12 N         -15.4145   -6.4689   19.4326 N.3     1  UNL1       -0.2715
     13 C         -15.9503   -5.0743   19.5675 C.3     1  UNL1        0.0722
     14 C         -14.7860   -4.1285   19.5679 C.3     1  UNL1        0.0191
     15 C         -13.5307   -4.9385   19.4332 C.3     1  UNL1        0.0191
     16 C         -13.9191   -6.3850   19.3496 C.3     1  UNL1        0.0722
     17 C         -13.4514   -3.4443   19.5388 C.3     1  UNL1        0.0226
     18 C         -10.6683   -2.3297   17.8914 C.3     1  UNL1        0.1205
     19 C         -10.5553   -3.8240   17.8254 C.ar    1  UNL1       -0.0000
     20 C         -11.1974   -4.5756   16.6973 C.ar    1  UNL1       -0.0016
     21 C         -11.0843   -6.0700   16.6313 C.ar    1  UNL1        0.0134
     22 C         -10.3292   -6.8126   17.6935 C.ar    1  UNL1        0.0850
     23 CL        -10.2161   -8.3069   17.6276 Cl      1  UNL1       -0.0799
     24 C          -9.6871   -6.0609   18.8217 C.ar    1  UNL1        0.1503
     25 F          -8.9320   -6.8035   19.8839 F       1  UNL1       -0.2033
     26 C          -9.8002   -4.5667   18.8877 C.ar    1  UNL1        0.0279
@<TRIPOS>BOND
     1    11    12    1
     2    12    13    1
     3    14    13    1
     4    14    15    1
     5    15    16    1
     6    15    17    1
     7    17    10    1
     8    10     1    1
     9     1    18    1
    10    18    19    1
    11    19    20   ar
    12    20    21   ar
    13    21    22   ar
    14    22    23    1
    15    22    24   ar
    16    24    25    1
    17    24    26   ar
    18     1     2   am
    19     2     3    2
    20     2     4    1
    21     4     5   ar
    22     5     6   ar
    23     6     7    1
    24     6     8   ar
    25     8     9   ar
    26    16    12    1
    27    26    19   ar
    28     9     4   ar
    29    17    14    1
@<TRIPOS>MOLECULE
*****
 26 29 0 0 0
SMALL
GASTEIGER

@<TRIPOS>ATOM
      1 N          -6.7399  -18.5987   21.9239 N.am    1  UNL1       -0.2707
      2 C          -7.7865  -19.5047   21.3461 C.2     1  UNL1        0.2686
      3 O          -7.4974  -20.9655   21.1657 O.2     1  UNL1       -0.2682
      4 C          -9.1223  -18.9499   20.9486 C.ar    1  UNL1        0.1535
      5 C         -10.2881  -18.7176   21.8634 C.ar    1  UNL1        0.1012
      6 N         -11.4130  -18.1541   21.0468 N.ar    1  UNL1       -0.3057
      7 C         -12.7703  -17.7734   21.5596 C.3     1  UNL1        0.1321
      8 C         -10.9424  -18.0382   19.6272 C.ar    1  UNL1        0.1787
      9 N          -9.5268  -18.5301   19.5666 N.ar    1  UNL1       -0.2192
     10 C          -7.0290  -17.1380   22.1042 C.3     1  UNL1        0.0941
     11 C          -6.9313  -14.4726   28.1493 C.3     1  UNL1        0.0896
     12 N          -6.9535  -15.0777   26.7770 N.3     1  UNL1       -0.2715
     13 C          -5.7735  -15.2380   25.8648 C.3     1  UNL1        0.0722
     14 C          -6.2502  -15.8881   24.5999 C.3     1  UNL1        0.0191
     15 C          -7.7250  -16.1296   24.7302 C.3     1  UNL1        0.0191
     16 C          -8.1596  -15.6287   26.0757 C.3     1  UNL1        0.0722
     17 C          -7.0068  -16.5329   23.4765 C.3     1  UNL1        0.0226
     18 C          -5.4042  -19.1535   22.3213 C.3     1  UNL1        0.1205
     19 C          -4.1466  -18.5444   21.7757 C.ar    1  UNL1       -0.0000
     20 C          -3.3468  -17.5948   22.6174 C.ar    1  UNL1       -0.0016
     21 C          -2.0892  -16.9857   22.0718 C.ar    1  UNL1        0.0134
     22 C          -1.6315  -17.3263   20.6845 C.ar    1  UNL1        0.0850
     23 CL         -0.3740  -16.7173   20.1389 Cl      1  UNL1       -0.0799
     24 C          -2.4314  -18.2760   19.8428 C.ar    1  UNL1        0.1503
     25 F          -1.9737  -18.6166   18.4556 F       1  UNL1       -0.2033
     26 C          -3.6889  -18.8850   20.3884 C.ar    1  UNL1        0.0279
@<TRIPOS>BOND
     1    11    12    1
     2    12    13    1
     3    14    13    1
     4    14    15    1
     5    15    16    1
     6    15    17    1
     7    17    10    1
     8    10     1    1
     9     1    18    1
    10    18    19    1
    11    19    20   ar
    12    20    21   ar
    13    21    22   ar
    14    22    23    1
    15    22    24   ar
    16    24    25    1
    17    24    26   ar
    18     1     2   am
    19     2     3    2
    20     2     4    1
    21     4     5   ar
    22     5     6   ar
    23     6     7    1
    24     6     8   ar
    25     8     9   ar
    26    16    12    1
    27    26    19   ar
    28     9     4   ar
    29    17    14    1
@<TRIPOS>MOLECULE
*****
 26 29 0 0 0
SMALL
GASTEIGER

@<TRIPOS>ATOM
      1 N         -15.2643   -8.0429   17.0653 N.am    1  UNL1       -0.2707
      2 C         -15.7574   -9.1860   17.9022 C.2     1  UNL1        0.2686
      3 O         -14.8388  -10.3250   18.2319 O.2     1  UNL1       -0.2682
      4 C         -17.1690   -9.1900   18.4093 C.ar    1  UNL1        0.1535
      5 C         -17.6406   -8.6083   19.7090 C.ar    1  UNL1        0.1012
      6 N         -19.1199   -8.8351   19.8088 N.ar    1  UNL1       -0.3057
      7 C         -20.0018   -8.4140   20.9468 C.3     1  UNL1        0.1321
      8 C         -19.5627   -9.5571   18.5707 C.ar    1  UNL1        0.1787
      9 N         -18.3570   -9.7764   17.7059 N.ar    1  UNL1       -0.2192
     10 C         -16.1829   -6.9039   16.7356 C.3     1  UNL1        0.0941
     11 C         -15.5902   -1.1507   19.9303 C.3     1  UNL1        0.0896
     12 N         -15.7248   -2.4568   19.2050 N.3     1  UNL1       -0.2715
     13 C         -15.2168   -2.7558   17.8256 C.3     1  UNL1        0.0722
     14 C         -15.5690   -4.1770   17.4999 C.3     1  UNL1        0.0191
     15 C         -16.2946   -4.7564   18.6779 C.3     1  UNL1        0.0191
     16 C         -16.3909   -3.6933   19.7318 C.3     1  UNL1        0.0722
     17 C         -16.0484   -5.5978   17.4608 C.3     1  UNL1        0.0226
     18 C         -13.8527   -8.0390   16.5581 C.3     1  UNL1        0.1205
     19 C         -12.8214   -7.1717   17.2173 C.ar    1  UNL1       -0.0000
     20 C         -12.8739   -6.9373   18.6979 C.ar    1  UNL1       -0.0016
     21 C         -11.8426   -6.0700   19.3570 C.ar    1  UNL1        0.0134
     22 C         -10.7588   -5.4372   18.5354 C.ar    1  UNL1        0.0850
     23 CL         -9.7276   -4.5700   19.1945 Cl      1  UNL1       -0.0799
     24 C         -10.7064   -5.6716   17.0547 C.ar    1  UNL1        0.1503
     25 F          -9.6226   -5.0388   16.2332 F       1  UNL1       -0.2033
     26 C         -11.7376   -6.5388   16.3957 C.ar    1  UNL1        0.0279
@<TRIPOS>BOND
     1    11    12    1
     2    12    13    1
     3    14    13    1
     4    14    15    1
     5    15    16    1
     6    15    17    1
     7    17    10    1
     8    10     1    1
     9     1    18    1
    10    18    19    1
    11    19    20   ar
    12    20    21   ar
    13    21    22   ar
    14    22    23    1
    15    22    24   ar
    16    24    25    1
    17    24    26   ar
    18     1     2   am
    19     2     3    2
    20     2     4    1
    21     4     5   ar
    22     5     6   ar
    23     6     7    1
    24     6     8   ar
    25     8     9   ar
    26    16    12    1
    27    26    19   ar
    28     9     4   ar
    29    17    14    1
@<TRIPOS>MOLECULE
*****
 26 29 0 0 0
SMALL
GASTEIGER

@<TRIPOS>ATOM
      1 N          -6.9165  -17.2989   23.2320 N.am    1  UNL1       -0.2707
      2 C          -7.6640  -16.0509   22.8661 C.2     1  UNL1        0.2686
      3 O          -6.9915  -14.7146   22.9753 O.2     1  UNL1       -0.2682
      4 C          -9.0840  -16.1393   22.3909 C.ar    1  UNL1        0.1535
      5 C         -10.2575  -16.6046   23.2011 C.ar    1  UNL1        0.1012
      6 N         -11.4785  -16.5307   22.3331 N.ar    1  UNL1       -0.3057
      7 C         -12.8736  -16.9026   22.7402 C.3     1  UNL1        0.1321
      8 C         -11.0597  -16.0197   20.9864 C.ar    1  UNL1        0.1787
      9 N          -9.5799  -15.7778   21.0222 N.ar    1  UNL1       -0.2192
     10 C          -7.5891  -18.6352   23.1227 C.3     1  UNL1        0.0941
     11 C          -9.2066  -21.0440   17.1866 C.3     1  UNL1        0.0896
     12 N          -8.8394  -20.4971   18.5342 N.3     1  UNL1       -0.2715
     13 C          -9.7473  -19.7355   19.4539 C.3     1  UNL1        0.0722
     14 C          -8.9688  -19.3836   20.6869 C.3     1  UNL1        0.0191
     15 C          -7.5799  -19.9277   20.5292 C.3     1  UNL1        0.0191
     16 C          -7.4999  -20.6159   19.1987 C.3     1  UNL1        0.0722
     17 C          -7.9563  -19.1820   21.7751 C.3     1  UNL1        0.0226
     18 C          -5.4965  -17.2106   23.7072 C.3     1  UNL1        0.1205
     19 C          -4.3714  -17.5515   22.7755 C.ar    1  UNL1       -0.0000
     20 C          -4.3156  -18.9045   22.1304 C.ar    1  UNL1       -0.0016
     21 C          -3.1904  -19.2454   21.1988 C.ar    1  UNL1        0.0134
     22 C          -2.1210  -18.2332   20.9124 C.ar    1  UNL1        0.0850
     23 CL         -0.9959  -18.5741   19.9808 Cl      1  UNL1       -0.0799
     24 C          -2.1768  -16.8802   21.5576 C.ar    1  UNL1        0.1503
     25 F          -1.1074  -15.8681   21.2713 F       1  UNL1       -0.2033
     26 C          -3.3020  -16.5394   22.4892 C.ar    1  UNL1        0.0279
@<TRIPOS>BOND
     1    11    12    1
     2    12    13    1
     3    14    13    1
     4    14    15    1
     5    15    16    1
     6    15    17    1
     7    17    10    1
     8    10     1    1
     9     1    18    1
    10    18    19    1
    11    19    20   ar
    12    20    21   ar
    13    21    22   ar
    14    22    23    1
    15    22    24   ar
    16    24    25    1
    17    24    26   ar
    18     1     2   am
    19     2     3    2
    20     2     4    1
    21     4     5   ar
    22     5     6   ar
    23     6     7    1
    24     6     8   ar
    25     8     9   ar
    26    16    12    1
    27    26    19   ar
    28     9     4   ar
    29    17    14    1
@<TRIPOS>MOLECULE
*****
 26 29 0 0 0
SMALL
GASTEIGER

@<TRIPOS>ATOM
      1 N         -13.4757   -2.6768   18.1343 N.am    1  UNL1       -0.2707
      2 C         -14.3397   -1.5467   17.6585 C.2     1  UNL1        0.2686
      3 O         -14.0167   -0.8458   16.3722 O.2     1  UNL1       -0.2682
      4 C         -15.5266   -1.1174   18.4689 C.ar    1  UNL1        0.1535
      5 C         -15.5589    0.0122   19.4553 C.ar    1  UNL1        0.1012
      6 N         -16.9418    0.0854   20.0313 N.ar    1  UNL1       -0.3057
      7 C         -17.4187    1.0701   21.0575 C.3     1  UNL1        0.1321
      8 C         -17.7644   -0.9991   19.4009 C.ar    1  UNL1        0.1787
      9 N         -16.8898   -1.7424   18.4354 N.ar    1  UNL1       -0.2192
     10 C         -13.7987   -3.3777   19.4205 C.3     1  UNL1        0.0941
     11 C         -17.7961   -8.6386   19.4025 C.3     1  UNL1        0.0896
     12 N         -16.8886   -7.4443   19.4066 N.3     1  UNL1       -0.2715
     13 C         -15.3918   -7.4739   19.3129 C.3     1  UNL1        0.0722
     14 C         -14.8967   -6.0586   19.3535 C.3     1  UNL1        0.0191
     15 C         -16.0875   -5.1541   19.4723 C.3     1  UNL1        0.0191
     16 C         -17.3186   -6.0106   19.5051 C.3     1  UNL1        0.0722
     17 C         -14.7062   -4.5720   19.4164 C.3     1  UNL1        0.0226
     18 C         -12.2887   -3.1061   17.3238 C.3     1  UNL1        0.1205
     19 C         -11.5087   -4.3237   17.7229 C.ar    1  UNL1       -0.0000
     20 C         -10.3872   -4.2050   18.7118 C.ar    1  UNL1       -0.0016
     21 C          -9.6072   -5.4226   19.1109 C.ar    1  UNL1        0.0134
     22 C          -9.9488   -6.7588   18.5211 C.ar    1  UNL1        0.0850
     23 CL         -9.1689   -7.9763   18.9201 Cl      1  UNL1       -0.0799
     24 C         -11.0705   -6.8774   17.5321 C.ar    1  UNL1        0.1503
     25 F         -11.4121   -8.2136   16.9423 F       1  UNL1       -0.2033
     26 C         -11.8504   -5.6598   17.1331 C.ar    1  UNL1        0.0279
@<TRIPOS>BOND
     1    11    12    1
     2    12    13    1
     3    14    13    1
     4    14    15    1
     5    15    16    1
     6    15    17    1
     7    17    10    1
     8    10     1    1
     9     1    18    1
    10    18    19    1
    11    19    20   ar
    12    20    21   ar
    13    21    22   ar
    14    22    23    1
    15    22    24   ar
    16    24    25    1
    17    24    26   ar
    18     1     2   am
    19     2     3    2
    20     2     4    1
    21     4     5   ar
    22     5     6   ar
    23     6     7    1
    24     6     8   ar
    25     8     9   ar
    26    16    12    1
    27    26    19   ar
    28     9     4   ar
    29    17    14    1
@<TRIPOS>MOLECULE
*****
 26 29 0 0 0
SMALL
GASTEIGER

@<TRIPOS>ATOM
      1 N         -14.7443   -3.8927   17.8990 N.am    1  UNL1       -0.2707
      2 C         -15.0406   -2.4378   17.6851 C.2     1  UNL1        0.2686
      3 O         -14.4593   -1.7198   16.5034 O.2     1  UNL1       -0.2682
      4 C         -15.9184   -1.7011   18.6530 C.ar    1  UNL1        0.1535
      5 C         -17.4125   -1.8007   18.7403 C.ar    1  UNL1        0.1012
      6 N         -17.8736   -0.8966   19.8447 N.ar    1  UNL1       -0.3057
      7 C         -19.2945   -0.6875   20.2778 C.3     1  UNL1        0.1321
      8 C         -16.6644   -0.2381   20.4400 C.ar    1  UNL1        0.1787
      9 N         -15.4561   -0.7353   19.7035 N.ar    1  UNL1       -0.2192
     10 C         -15.3256   -4.6107   19.0807 C.3     1  UNL1        0.0941
     11 C         -17.2145  -10.9168   18.5131 C.3     1  UNL1        0.0896
     12 N         -16.7857   -9.4852   18.6419 N.3     1  UNL1       -0.2715
     13 C         -16.4573   -8.7749   19.9217 C.3     1  UNL1        0.0722
     14 C         -16.0786   -7.3632   19.5844 C.3     1  UNL1        0.0191
     15 C         -16.1730   -7.2010   18.0961 C.3     1  UNL1        0.0191
     16 C         -16.6099   -8.5125   17.5136 C.3     1  UNL1        0.0722
     17 C         -15.7544   -6.0423   18.9518 C.3     1  UNL1        0.0226
     18 C         -13.8666   -4.6295   16.9311 C.3     1  UNL1        0.1205
     19 C         -12.6969   -5.4230   17.4335 C.ar    1  UNL1       -0.0000
     20 C         -12.5565   -6.8693   17.0614 C.ar    1  UNL1       -0.0016
     21 C         -11.3868   -7.6628   17.5638 C.ar    1  UNL1        0.0134
     22 C         -10.3577   -7.0100   18.4383 C.ar    1  UNL1        0.0850
     23 CL         -9.1881   -7.8034   18.9407 Cl      1  UNL1       -0.0799
     24 C         -10.4982   -5.5636   18.8104 C.ar    1  UNL1        0.1503
     25 F          -9.4691   -4.9108   19.6848 F       1  UNL1       -0.2033
     26 C         -11.6678   -4.7702   18.3080 C.ar    1  UNL1        0.0279
@<TRIPOS>BOND
     1    11    12    1
     2    12    13    1
     3    14    13    1
     4    14    15    1
     5    15    16    1
     6    15    17    1
     7    17    10    1
     8    10     1    1
     9     1    18    1
    10    18    19    1
    11    19    20   ar
    12    20    21   ar
    13    21    22   ar
    14    22    23    1
    15    22    24   ar
    16    24    25    1
    17    24    26   ar
    18     1     2   am
    19     2     3    2
    20     2     4    1
    21     4     5   ar
    22     5     6   ar
    23     6     7    1
    24     6     8   ar
    25     8     9   ar
    26    16    12    1
    27    26    19   ar
    28     9     4   ar
    29    17    14    1
