@<TRIPOS>MOLECULE
*****
 28 31 0 0 0
SMALL
GASTEIGER

@<TRIPOS>ATOM
      1 N         -15.3836    1.5944   18.8319 N.ar    1  UNL1       -0.2782
      2 C         -14.6056    2.5902   18.0238 C.ar    1  UNL1        0.1808
      3 N         -13.2978    2.1954   17.4042 N.ar    1  UNL1       -0.2252
      4 C         -12.7680    0.8047   17.5928 C.ar    1  UNL1        0.0876
      5 C         -11.4603    0.4099   16.9733 C.ar    1  UNL1        0.0193
      6 C         -10.9306   -0.9807   17.1618 C.ar    1  UNL1        0.0015
      7 C         -11.7086   -1.9765   17.9699 C.ar    1  UNL1        0.0002
      8 C         -13.0164   -1.5817   18.5895 C.ar    1  UNL1        0.0063
      9 C         -13.5461   -0.1911   18.4009 C.ar    1  UNL1        0.0739
     10 C         -14.8539    0.2038   19.0204 C.ar    1  UNL1        0.2634
     11 O         -15.6320   -0.7920   19.8285 O.2     1  UNL1       -0.2669
     12 C         -11.1788   -3.3671   18.1585 C.ar    1  UNL1        0.0001
     13 C         -11.9286   -4.3460   19.0127 C.ar    1  UNL1        0.0009
     14 C         -11.3989   -5.7366   19.2012 C.ar    1  UNL1        0.0114
     15 C         -10.1193   -6.1484   18.5355 C.ar    1  UNL1        0.0577
     16 CL         -9.5895   -7.5390   18.7241 Cl      1  UNL1       -0.0822
     17 C          -9.3695   -5.1695   17.6813 C.ar    1  UNL1        0.0114
     18 C          -9.8993   -3.7789   17.4928 C.ar    1  UNL1        0.0009
     19 C         -16.6914    1.9892   19.4514 C.3     1  UNL1        0.1119
     20 N         -15.9933    4.1903   22.6791 N.3     1  UNL1       -0.2739
     21 C         -16.8140    3.4619   23.7018 C.3     1  UNL1        0.0720
     22 C         -17.5939    2.2427   23.3077 C.3     1  UNL1        0.0174
     23 C         -17.5530    1.7518   21.8909 C.3     1  UNL1        0.0048
     24 C         -16.7323    2.4801   20.8682 C.3     1  UNL1        0.0388
     25 C         -15.9524    3.6994   21.2623 C.3     1  UNL1        0.0739
     26 C         -13.7735    5.2817   23.4735 C.3     1  UNL1        0.0173
     27 C         -15.2134    5.4095   23.0732 C.3     1  UNL1        0.0576
     28 C         -15.8735    6.7564   23.0669 C.3     1  UNL1        0.0173
@<TRIPOS>BOND
     1    26    27    1
     2    27    28    1
     3    27    20    1
     4    20    21    1
     5    21    22    1
     6    22    23    1
     7    23    24    1
     8    24    19    1
     9    19     1    1
    10     1     2   ar
    11     2     3   ar
    12     3     4   ar
    13     4     5   ar
    14     5     6   ar
    15     6     7   ar
    16     7    12    1
    17    12    13   ar
    18    13    14   ar
    19    14    15   ar
    20    15    16    1
    21    15    17   ar
    22    17    18   ar
    23     7     8   ar
    24     8     9   ar
    25     9    10   ar
    26    10    11    2
    27    24    25    1
    28    25    20    1
    29    10     1   ar
    30     9     4   ar
    31    18    12   ar
@<TRIPOS>MOLECULE
*****
 28 31 0 0 0
SMALL
GASTEIGER

@<TRIPOS>ATOM
      1 N           8.7109   -4.0977   21.6992 N.ar    1  UNL1       -0.2782
      2 C           8.7591   -5.5446   21.3067 C.ar    1  UNL1        0.1808
      3 N           8.5144   -6.6092   22.3347 N.ar    1  UNL1       -0.2252
      4 C           8.2215   -6.2268   23.7553 C.ar    1  UNL1        0.0876
      5 C           7.9768   -7.2914   24.7833 C.ar    1  UNL1        0.0193
      6 C           7.6839   -6.9090   26.2038 C.ar    1  UNL1        0.0015
      7 C           7.6357   -5.4621   26.5964 C.ar    1  UNL1        0.0002
      8 C           7.8803   -4.3976   25.5684 C.ar    1  UNL1        0.0063
      9 C           8.1733   -4.7799   24.1478 C.ar    1  UNL1        0.0739
     10 C           8.4179   -3.7153   23.1198 C.ar    1  UNL1        0.2634
     11 O           8.3697   -2.2684   23.5123 O.2     1  UNL1       -0.2669
     12 C           7.3427   -5.0798   28.0170 C.ar    1  UNL1        0.0001
     13 C           7.4732   -6.0987   29.1100 C.ar    1  UNL1        0.0009
     14 C           7.1803   -5.7164   30.5306 C.ar    1  UNL1        0.0114
     15 C           6.7569   -4.3151   30.8581 C.ar    1  UNL1        0.0577
     16 CL          6.4639   -3.9328   32.2787 Cl      1  UNL1       -0.0822
     17 C           6.6264   -3.2962   29.7650 C.ar    1  UNL1        0.0114
     18 C           6.9193   -3.6786   28.3445 C.ar    1  UNL1        0.0009
     19 C           8.9556   -3.0331   20.6712 C.3     1  UNL1        0.1119
     20 N           5.2789   -2.4629   19.2904 N.3     1  UNL1       -0.2739
     21 C           5.5324   -1.4405   18.2226 C.3     1  UNL1        0.0720
     22 C           6.9271   -0.9489   17.9709 C.3     1  UNL1        0.0174
     23 C           8.0681   -1.4798   18.7872 C.3     1  UNL1        0.0048
     24 C           7.8145   -2.5022   19.8550 C.3     1  UNL1        0.0388
     25 C           6.4199   -2.9938   20.1066 C.3     1  UNL1        0.0739
     26 C           2.8297   -2.0037   20.0260 C.3     1  UNL1        0.0173
     27 C           3.8842   -2.9545   19.5421 C.3     1  UNL1        0.0576
     28 C           3.5440   -4.3968   19.3098 C.3     1  UNL1        0.0173
@<TRIPOS>BOND
     1    26    27    1
     2    27    28    1
     3    27    20    1
     4    20    21    1
     5    21    22    1
     6    22    23    1
     7    23    24    1
     8    24    19    1
     9    19     1    1
    10     1     2   ar
    11     2     3   ar
    12     3     4   ar
    13     4     5   ar
    14     5     6   ar
    15     6     7   ar
    16     7    12    1
    17    12    13   ar
    18    13    14   ar
    19    14    15   ar
    20    15    16    1
    21    15    17   ar
    22    17    18   ar
    23     7     8   ar
    24     8     9   ar
    25     9    10   ar
    26    10    11    2
    27    24    25    1
    28    25    20    1
    29    10     1   ar
    30     9     4   ar
    31    18    12   ar
@<TRIPOS>MOLECULE
*****
 28 31 0 0 0
SMALL
GASTEIGER

@<TRIPOS>ATOM
      1 N           0.3627    3.3708   25.1104 N.ar    1  UNL1       -0.2782
      2 C           0.9540    3.1669   26.4737 C.ar    1  UNL1        0.1808
      3 N           1.9215    2.0456   26.7115 N.ar    1  UNL1       -0.2252
      4 C           2.2977    1.1281   25.5860 C.ar    1  UNL1        0.0876
      5 C           3.2652    0.0068   25.8238 C.ar    1  UNL1        0.0193
      6 C           3.6414   -0.9105   24.6982 C.ar    1  UNL1        0.0015
      7 C           3.0500   -0.7066   23.3349 C.ar    1  UNL1        0.0002
      8 C           2.0826    0.4147   23.0971 C.ar    1  UNL1        0.0063
      9 C           1.7064    1.3321   24.2226 C.ar    1  UNL1        0.0739
     10 C           0.7389    2.4535   23.9848 C.ar    1  UNL1        0.2634
     11 O           0.1476    2.6574   22.6215 O.2     1  UNL1       -0.2669
     12 C           3.4263   -1.6240   22.2093 C.ar    1  UNL1        0.0001
     13 C           2.9266   -1.3523   20.8213 C.ar    1  UNL1        0.0009
     14 C           3.3029   -2.2698   19.6958 C.ar    1  UNL1        0.0114
     15 C           4.1787   -3.4589   19.9583 C.ar    1  UNL1        0.0577
     16 CL          4.5549   -4.3763   18.8328 Cl      1  UNL1       -0.0822
     17 C           4.6784   -3.7305   21.3463 C.ar    1  UNL1        0.0114
     18 C           4.3021   -2.8131   22.4718 C.ar    1  UNL1        0.0009
     19 C          -0.6048    4.4922   24.8726 C.3     1  UNL1        0.1119
     20 N          -4.4160    3.8490   23.9722 N.3     1  UNL1       -0.2739
     21 C          -5.0246    3.7882   25.3419 C.3     1  UNL1        0.0720
     22 C          -4.1598    3.9621   26.5552 C.3     1  UNL1        0.0174
     23 C          -2.6865    4.1968   26.3987 C.3     1  UNL1        0.0048
     24 C          -2.0781    4.2575   25.0290 C.3     1  UNL1        0.0388
     25 C          -2.9428    4.0836   23.8158 C.3     1  UNL1        0.0739
     26 C          -6.7068    4.1400   22.7815 C.3     1  UNL1        0.0173
     27 C          -5.2808    3.6751   22.7590 C.3     1  UNL1        0.0576
     28 C          -4.7196    3.0363   21.5233 C.3     1  UNL1        0.0173
@<TRIPOS>BOND
     1    26    27    1
     2    27    28    1
     3    27    20    1
     4    20    21    1
     5    21    22    1
     6    22    23    1
     7    23    24    1
     8    24    19    1
     9    19     1    1
    10     1     2   ar
    11     2     3   ar
    12     3     4   ar
    13     4     5   ar
    14     5     6   ar
    15     6     7   ar
    16     7    12    1
    17    12    13   ar
    18    13    14   ar
    19    14    15   ar
    20    15    16    1
    21    15    17   ar
    22    17    18   ar
    23     7     8   ar
    24     8     9   ar
    25     9    10   ar
    26    10    11    2
    27    24    25    1
    28    25    20    1
    29    10     1   ar
    30     9     4   ar
    31    18    12   ar
@<TRIPOS>MOLECULE
*****
 28 31 0 0 0
SMALL
GASTEIGER

@<TRIPOS>ATOM
      1 N           7.7298   -4.4586   21.6113 N.ar    1  UNL1       -0.2782
      2 C           8.3905   -5.7720   21.3139 C.ar    1  UNL1        0.1808
      3 N           8.7340   -6.7092   22.4334 N.ar    1  UNL1       -0.2252
      4 C           8.4168   -6.3331   23.8505 C.ar    1  UNL1        0.0876
      5 C           8.7604   -7.2704   24.9701 C.ar    1  UNL1        0.0193
      6 C           8.4432   -6.8943   26.3871 C.ar    1  UNL1        0.0015
      7 C           7.7825   -5.5809   26.6845 C.ar    1  UNL1        0.0002
      8 C           7.4389   -4.6436   25.5649 C.ar    1  UNL1        0.0063
      9 C           7.7561   -5.0197   24.1479 C.ar    1  UNL1        0.0739
     10 C           7.4126   -4.0825   23.0283 C.ar    1  UNL1        0.2634
     11 O           6.7519   -2.7691   23.3257 O.2     1  UNL1       -0.2669
     12 C           7.4653   -5.2048   28.1015 C.ar    1  UNL1        0.0001
     13 C           6.9432   -3.8339   28.4148 C.ar    1  UNL1        0.0009
     14 C           6.6260   -3.4578   29.8318 C.ar    1  UNL1        0.0114
     15 C           6.8310   -4.4526   30.9356 C.ar    1  UNL1        0.0577
     16 CL          6.5138   -4.0766   32.3526 Cl      1  UNL1       -0.0822
     17 C           7.3531   -5.8235   30.6224 C.ar    1  UNL1        0.0114
     18 C           7.6702   -6.1996   29.2053 C.ar    1  UNL1        0.0009
     19 C           7.3862   -3.5213   20.4916 C.3     1  UNL1        0.1119
     20 N           3.8501   -2.0031   19.5220 N.3     1  UNL1       -0.2739
     21 C           3.1422   -3.2285   19.0245 C.3     1  UNL1        0.0720
     22 C           3.8491   -4.5515   19.0161 C.3     1  UNL1        0.0174
     23 C           5.2638   -4.6490   19.5052 C.3     1  UNL1        0.0048
     24 C           5.9716   -3.4237   20.0026 C.3     1  UNL1        0.0388
     25 C           5.2648   -2.1007   20.0110 C.3     1  UNL1        0.0739
     26 C           2.1842   -0.3491   20.6352 C.3     1  UNL1        0.0173
     27 C           3.1433   -0.6801   19.5303 C.3     1  UNL1        0.0576
     28 C           3.3954    0.3119   18.4339 C.3     1  UNL1        0.0173
@<TRIPOS>BOND
     1    26    27    1
     2    27    28    1
     3    27    20    1
     4    20    21    1
     5    21    22    1
     6    22    23    1
     7    23    24    1
     8    24    19    1
     9    19     1    1
    10     1     2   ar
    11     2     3   ar
    12     3     4   ar
    13     4     5   ar
    14     5     6   ar
    15     6     7   ar
    16     7    12    1
    17    12    13   ar
    18    13    14   ar
    19    14    15   ar
    20    15    16    1
    21    15    17   ar
    22    17    18   ar
    23     7     8   ar
    24     8     9   ar
    25     9    10   ar
    26    10    11    2
    27    24    25    1
    28    25    20    1
    29    10     1   ar
    30     9     4   ar
    31    18    12   ar
@<TRIPOS>MOLECULE
*****
 28 31 0 0 0
SMALL
GASTEIGER

@<TRIPOS>ATOM
      1 N          -0.6881    3.1734   22.4145 N.ar    1  UNL1       -0.2782
      2 C          -1.1898    2.9141   21.0249 C.ar    1  UNL1        0.1808
      3 N          -0.6198    1.7836   20.2205 N.ar    1  UNL1       -0.2252
      4 C           0.4519    0.9124   20.8057 C.ar    1  UNL1        0.0876
      5 C           1.0219   -0.2181   20.0013 C.ar    1  UNL1        0.0193
      6 C           2.0935   -1.0893   20.5866 C.ar    1  UNL1        0.0015
      7 C           2.5952   -0.8300   21.9762 C.ar    1  UNL1        0.0002
      8 C           2.0252    0.3004   22.7806 C.ar    1  UNL1        0.0063
      9 C           0.9535    1.1716   22.1954 C.ar    1  UNL1        0.0739
     10 C           0.3835    2.3022   22.9998 C.ar    1  UNL1        0.2634
     11 O           0.8851    2.5614   24.3894 O.2     1  UNL1       -0.2669
     12 C           3.6669   -1.7013   22.5615 C.ar    1  UNL1        0.0001
     13 C           4.2826   -2.7907   21.7344 C.ar    1  UNL1        0.0009
     14 C           5.3543   -3.6619   22.3197 C.ar    1  UNL1        0.0114
     15 C           5.8102   -3.4438   23.7320 C.ar    1  UNL1        0.0577
     16 CL          6.8818   -4.3150   24.3172 Cl      1  UNL1       -0.0822
     17 C           5.1943   -2.3544   24.5590 C.ar    1  UNL1        0.0114
     18 C           4.1227   -1.4832   23.9738 C.ar    1  UNL1        0.0009
     19 C          -1.2582    4.3039   23.2189 C.3     1  UNL1        0.1119
     20 N          -5.1909    4.1676   23.7334 N.3     1  UNL1       -0.2739
     21 C          -5.2746    3.8558   25.1983 C.3     1  UNL1        0.0720
     22 C          -4.0194    3.6934   26.0033 C.3     1  UNL1        0.0174
     23 C          -2.6806    3.8428   25.3435 C.3     1  UNL1        0.0048
     24 C          -2.5970    4.1545   23.8787 C.3     1  UNL1        0.0388
     25 C          -3.8522    4.3170   23.0736 C.3     1  UNL1        0.0739
     26 C          -7.7662    4.4928   23.6219 C.3     1  UNL1        0.0173
     27 C          -6.4461    4.3300   22.9283 C.3     1  UNL1        0.0576
     28 C          -6.3813    4.3297   21.4297 C.3     1  UNL1        0.0173
@<TRIPOS>BOND
     1    26    27    1
     2    27    28    1
     3    27    20    1
     4    20    21    1
     5    21    22    1
     6    22    23    1
     7    23    24    1
     8    24    19    1
     9    19     1    1
    10     1     2   ar
    11     2     3   ar
    12     3     4   ar
    13     4     5   ar
    14     5     6   ar
    15     6     7   ar
    16     7    12    1
    17    12    13   ar
    18    13    14   ar
    19    14    15   ar
    20    15    16    1
    21    15    17   ar
    22    17    18   ar
    23     7     8   ar
    24     8     9   ar
    25     9    10   ar
    26    10    11    2
    27    24    25    1
    28    25    20    1
    29    10     1   ar
    30     9     4   ar
    31    18    12   ar
@<TRIPOS>MOLECULE
*****
 28 31 0 0 0
SMALL
GASTEIGER

@<TRIPOS>ATOM
      1 N           7.5037   -6.0428   29.1170 N.ar    1  UNL1       -0.2782
      2 C           8.5529   -7.0742   28.8249 C.ar    1  UNL1        0.1808
      3 N           8.9985   -7.3116   27.4124 N.ar    1  UNL1       -0.2252
      4 C           8.3947   -6.5177   26.2920 C.ar    1  UNL1        0.0876
      5 C           8.8402   -6.7551   24.8796 C.ar    1  UNL1        0.0193
      6 C           8.2365   -5.9612   23.7593 C.ar    1  UNL1        0.0015
      7 C           7.1872   -4.9299   24.0514 C.ar    1  UNL1        0.0002
      8 C           6.7417   -4.6924   25.4639 C.ar    1  UNL1        0.0063
      9 C           7.3454   -5.4863   26.5842 C.ar    1  UNL1        0.0739
     10 C           6.8999   -5.2489   27.9967 C.ar    1  UNL1        0.2634
     11 O           5.8506   -4.2176   28.2889 O.2     1  UNL1       -0.2669
     12 C           6.5834   -4.1359   22.9310 C.ar    1  UNL1        0.0001
     13 C           7.3548   -3.9226   21.6624 C.ar    1  UNL1        0.0009
     14 C           6.7510   -3.1287   20.5420 C.ar    1  UNL1        0.0114
     15 C           5.3759   -2.5481   20.6903 C.ar    1  UNL1        0.0577
     16 CL          4.7721   -1.7542   19.5700 Cl      1  UNL1       -0.0822
     17 C           4.6045   -2.7615   21.9590 C.ar    1  UNL1        0.0114
     18 C           5.2083   -3.5554   23.0793 C.ar    1  UNL1        0.0009
     19 C           7.0581   -5.8054   30.5296 C.3     1  UNL1        0.1119
     20 N           6.9531   -2.4245   32.6052 N.3     1  UNL1       -0.2739
     21 C           8.4172   -2.1220   32.7286 C.3     1  UNL1        0.0720
     22 C           9.4282   -3.0474   32.1190 C.3     1  UNL1        0.0174
     23 C           8.9751   -4.2752   31.3859 C.3     1  UNL1        0.0048
     24 C           7.5111   -4.5777   31.2626 C.3     1  UNL1        0.0388
     25 C           6.5001   -3.6523   31.8722 C.3     1  UNL1        0.0739
     26 C           6.2856   -0.0564   33.4398 C.3     1  UNL1        0.0173
     27 C           5.9422   -1.4992   33.2148 C.3     1  UNL1        0.0576
     28 C           4.5878   -2.0165   33.5993 C.3     1  UNL1        0.0173
@<TRIPOS>BOND
     1    26    27    1
     2    27    28    1
     3    27    20    1
     4    20    21    1
     5    21    22    1
     6    22    23    1
     7    23    24    1
     8    24    19    1
     9    19     1    1
    10     1     2   ar
    11     2     3   ar
    12     3     4   ar
    13     4     5   ar
    14     5     6   ar
    15     6     7   ar
    16     7    12    1
    17    12    13   ar
    18    13    14   ar
    19    14    15   ar
    20    15    16    1
    21    15    17   ar
    22    17    18   ar
    23     7     8   ar
    24     8     9   ar
    25     9    10   ar
    26    10    11    2
    27    24    25    1
    28    25    20    1
    29    10     1   ar
    30     9     4   ar
    31    18    12   ar
@<TRIPOS>MOLECULE
*****
 28 31 0 0 0
SMALL
GASTEIGER

@<TRIPOS>ATOM
      1 N          -0.1757    3.4499   23.0167 N.ar    1  UNL1       -0.2782
      2 C           0.2704    3.5262   24.4468 C.ar    1  UNL1        0.1808
      3 N           1.2416    2.5174   24.9843 N.ar    1  UNL1       -0.2252
      4 C           1.7668    1.4322   24.0917 C.ar    1  UNL1        0.0876
      5 C           2.7380    0.4234   24.6293 C.ar    1  UNL1        0.0193
      6 C           3.2632   -0.6617   23.7367 C.ar    1  UNL1        0.0015
      7 C           2.8171   -0.7380   22.3066 C.ar    1  UNL1        0.0002
      8 C           1.8459    0.2708   21.7691 C.ar    1  UNL1        0.0063
      9 C           1.3207    1.3559   22.6616 C.ar    1  UNL1        0.0739
     10 C           0.3494    2.3648   22.1241 C.ar    1  UNL1        0.2634
     11 O          -0.0966    2.2885   20.6940 O.2     1  UNL1       -0.2669
     12 C           3.3423   -1.8232   21.4140 C.ar    1  UNL1        0.0001
     13 C           4.2426   -2.8844   21.9735 C.ar    1  UNL1        0.0009
     14 C           4.7678   -3.9696   21.0809 C.ar    1  UNL1        0.0114
     15 C           4.3926   -3.9934   19.6288 C.ar    1  UNL1        0.0577
     16 CL          4.9178   -5.0785   18.7362 Cl      1  UNL1       -0.0822
     17 C           3.4923   -2.9321   19.0693 C.ar    1  UNL1        0.0114
     18 C           2.9671   -1.8470   19.9618 C.ar    1  UNL1        0.0009
     19 C          -1.1470    4.4588   22.4792 C.3     1  UNL1        0.1119
     20 N          -4.5074    3.6424   20.5323 N.3     1  UNL1       -0.2739
     21 C          -5.4106    3.2684   21.6701 C.3     1  UNL1        0.0720
     22 C          -4.8925    3.2912   23.0776 C.3     1  UNL1        0.0174
     23 C          -3.4712    3.6880   23.3473 C.3     1  UNL1        0.0048
     24 C          -2.5682    4.0620   22.2095 C.3     1  UNL1        0.0388
     25 C          -3.0863    4.0392   20.8020 C.3     1  UNL1        0.0739
     26 C          -6.4677    3.3018   18.8615 C.3     1  UNL1        0.0173
     27 C          -5.0255    3.6197   19.1248 C.3     1  UNL1        0.0576
     28 C          -4.1016    3.9147   17.9806 C.3     1  UNL1        0.0173
@<TRIPOS>BOND
     1    26    27    1
     2    27    28    1
     3    27    20    1
     4    20    21    1
     5    21    22    1
     6    22    23    1
     7    23    24    1
     8    24    19    1
     9    19     1    1
    10     1     2   ar
    11     2     3   ar
    12     3     4   ar
    13     4     5   ar
    14     5     6   ar
    15     6     7   ar
    16     7    12    1
    17    12    13   ar
    18    13    14   ar
    19    14    15   ar
    20    15    16    1
    21    15    17   ar
    22    17    18   ar
    23     7     8   ar
    24     8     9   ar
    25     9    10   ar
    26    10    11    2
    27    24    25    1
    28    25    20    1
    29    10     1   ar
    30     9     4   ar
    31    18    12   ar
@<TRIPOS>MOLECULE
*****
 28 31 0 0 0
SMALL
GASTEIGER

@<TRIPOS>ATOM
      1 N           7.4818   -3.4774   24.8884 N.ar    1  UNL1       -0.2782
      2 C           7.7757   -4.5744   23.9085 C.ar    1  UNL1        0.1808
      3 N           6.9653   -4.6947   22.6520 N.ar    1  UNL1       -0.2252
      4 C           5.8610   -3.7179   22.3754 C.ar    1  UNL1        0.0876
      5 C           5.0506   -3.8382   21.1189 C.ar    1  UNL1        0.0193
      6 C           3.9464   -2.8615   20.8423 C.ar    1  UNL1        0.0015
      7 C           3.6525   -1.7644   21.8222 C.ar    1  UNL1        0.0002
      8 C           4.4629   -1.6442   23.0787 C.ar    1  UNL1        0.0063
      9 C           5.5671   -2.6209   23.3553 C.ar    1  UNL1        0.0739
     10 C           6.3776   -2.5007   24.6118 C.ar    1  UNL1        0.2634
     11 O           6.0837   -1.4037   25.5917 O.2     1  UNL1       -0.2669
     12 C           2.5482   -0.7876   21.5456 C.ar    1  UNL1        0.0001
     13 C           2.2025    0.2609   22.5609 C.ar    1  UNL1        0.0009
     14 C           1.0982    1.2377   22.2843 C.ar    1  UNL1        0.0114
     15 C           0.3396    1.1658   20.9922 C.ar    1  UNL1        0.0577
     16 CL         -0.7646    2.1426   20.7156 Cl      1  UNL1       -0.0822
     17 C           0.6853    0.1172   19.9768 C.ar    1  UNL1        0.0114
     18 C           1.7896   -0.8595   20.2535 C.ar    1  UNL1        0.0009
     19 C           8.2923   -3.3572   26.1449 C.3     1  UNL1        0.1119
     20 N           6.8147   -3.8803   29.7909 N.3     1  UNL1       -0.2739
     21 C           6.9018   -5.3722   29.9206 C.3     1  UNL1        0.0720
     22 C           7.4523   -6.1924   28.7918 C.3     1  UNL1        0.0174
     23 C           7.9158   -5.5206   27.5332 C.3     1  UNL1        0.0048
     24 C           7.8288   -4.0288   27.4035 C.3     1  UNL1        0.0388
     25 C           7.2782   -3.2087   28.5323 C.3     1  UNL1        0.0739
     26 C           6.3375   -3.5755   32.3265 C.3     1  UNL1        0.0173
     27 C           6.2642   -3.0602   30.9197 C.3     1  UNL1        0.0576
     28 C           5.6403   -1.7247   30.6417 C.3     1  UNL1        0.0173
@<TRIPOS>BOND
     1    26    27    1
     2    27    28    1
     3    27    20    1
     4    20    21    1
     5    21    22    1
     6    22    23    1
     7    23    24    1
     8    24    19    1
     9    19     1    1
    10     1     2   ar
    11     2     3   ar
    12     3     4   ar
    13     4     5   ar
    14     5     6   ar
    15     6     7   ar
    16     7    12    1
    17    12    13   ar
    18    13    14   ar
    19    14    15   ar
    20    15    16    1
    21    15    17   ar
    22    17    18   ar
    23     7     8   ar
    24     8     9   ar
    25     9    10   ar
    26    10    11    2
    27    24    25    1
    28    25    20    1
    29    10     1   ar
    30     9     4   ar
    31    18    12   ar
@<TRIPOS>MOLECULE
*****
 28 31 0 0 0
SMALL
GASTEIGER

@<TRIPOS>ATOM
      1 N           7.9647   -4.2487   23.2514 N.ar    1  UNL1       -0.2782
      2 C           8.2092   -5.0152   21.9854 C.ar    1  UNL1        0.1808
      3 N           7.3227   -4.7993   20.7948 N.ar    1  UNL1       -0.2252
      4 C           6.1917   -3.8169   20.8702 C.ar    1  UNL1        0.0876
      5 C           5.3053   -3.6010   19.6796 C.ar    1  UNL1        0.0193
      6 C           4.1743   -2.6186   19.7550 C.ar    1  UNL1        0.0015
      7 C           3.9298   -1.8520   21.0209 C.ar    1  UNL1        0.0002
      8 C           4.8162   -2.0679   22.2115 C.ar    1  UNL1        0.0063
      9 C           5.9472   -3.0503   22.1361 C.ar    1  UNL1        0.0739
     10 C           6.8337   -3.2663   23.3268 C.ar    1  UNL1        0.2634
     11 O           6.5892   -2.4998   24.5927 O.2     1  UNL1       -0.2669
     12 C           2.7987   -0.8696   21.0963 C.ar    1  UNL1        0.0001
     13 C           2.7300    0.1094   22.2306 C.ar    1  UNL1        0.0009
     14 C           1.5989    1.0919   22.3060 C.ar    1  UNL1        0.0114
     15 C           0.5367    1.0953   21.2469 C.ar    1  UNL1        0.0577
     16 CL         -0.5943    2.0777   21.3222 Cl      1  UNL1       -0.0822
     17 C           0.6055    0.1162   20.1125 C.ar    1  UNL1        0.0114
     18 C           1.7365   -0.8661   20.0372 C.ar    1  UNL1        0.0009
     19 C           8.8512   -4.4646   24.4420 C.3     1  UNL1        0.1119
     20 N           8.1777   -6.4360   27.8198 N.3     1  UNL1       -0.2739
     21 C           7.9970   -7.8322   27.3020 C.3     1  UNL1        0.0720
     22 C           8.1010   -8.1058   25.8309 C.3     1  UNL1        0.0174
     23 C           8.3858   -6.9832   24.8775 C.3     1  UNL1        0.0048
     24 C           8.5665   -5.5871   25.3953 C.3     1  UNL1        0.0388
     25 C           8.4624   -5.3135   26.8665 C.3     1  UNL1        0.0739
     26 C           9.2041   -6.5331   30.2046 C.3     1  UNL1        0.0173
     27 C           8.0736   -6.1624   29.2910 C.3     1  UNL1        0.0576
     28 C           6.8392   -5.5180   29.8486 C.3     1  UNL1        0.0173
@<TRIPOS>BOND
     1    26    27    1
     2    27    28    1
     3    27    20    1
     4    20    21    1
     5    21    22    1
     6    22    23    1
     7    23    24    1
     8    24    19    1
     9    19     1    1
    10     1     2   ar
    11     2     3   ar
    12     3     4   ar
    13     4     5   ar
    14     5     6   ar
    15     6     7   ar
    16     7    12    1
    17    12    13   ar
    18    13    14   ar
    19    14    15   ar
    20    15    16    1
    21    15    17   ar
    22    17    18   ar
    23     7     8   ar
    24     8     9   ar
    25     9    10   ar
    26    10    11    2
    27    24    25    1
    28    25    20    1
    29    10     1   ar
    30     9     4   ar
    31    18    12   ar
