@<TRIPOS>MOLECULE
*****
 21 24 0 0 0
SMALL
GASTEIGER

@<TRIPOS>ATOM
      1 O          -6.4944  -17.0619   22.8744 O.2     1  UNL1       -0.2448
      2 C          -7.3503  -17.9264   21.9970 C.2     1  UNL1        0.3428
      3 C          -8.6189  -18.5184   22.5355 C.2     1  UNL1        0.0958
      4 C          -8.7740  -19.8938   23.1138 C.2     1  UNL1        0.1049
      5 N         -10.2061  -20.0644   23.5260 N.2     1  UNL1       -0.2476
      6 C         -10.9361  -18.7946   23.2025 C.2     1  UNL1        0.0636
      7 C         -12.3673  -18.3849   23.3863 C.3     1  UNL1        0.0717
      8 C         -12.8175  -17.0197   22.9579 C.2     1  UNL1       -0.0198
      9 C         -11.8365  -16.0642   22.3457 C.2     1  UNL1       -0.0041
     10 C         -10.4053  -16.4739   22.1620 C.2     1  UNL1        0.0011
     11 C          -9.9551  -17.8391   22.5904 C.2     1  UNL1        0.0216
     12 O          -6.9375  -18.1988   20.5808 O.3     1  UNL1       -0.4454
     13 C          -6.0447  -19.3637   20.2707 C.3     1  UNL1        0.2087
     14 C          -4.5575  -19.2265   20.4098 C.3     1  UNL1        0.0445
     15 C          -3.7413  -18.7105   19.2620 C.3     1  UNL1        0.0210
     16 C          -2.2541  -18.5733   19.4012 C.3     1  UNL1        0.0722
     17 N          -1.5830  -18.9523   20.6881 N.3     1  UNL1       -0.2727
     18 C          -2.3993  -19.4683   21.8359 C.3     1  UNL1        0.0722
     19 C          -3.8866  -19.6055   21.6967 C.3     1  UNL1        0.0210
     20 C          -2.4007  -19.0447   20.6591 C.3     1  UNL1        0.0722
     21 C          -3.7455  -19.1688   20.5334 C.3     1  UNL1        0.0210
@<TRIPOS>BOND
     1     1     2    2
     2     2    12    1
     3    12    13    1
     4    13    14    1
     5    14    15    1
     6    15    16    1
     7    16    17    1
     8    17    18    1
     9    18    19    1
    10    17    20    1
    11    20    21    1
    12     2     3    1
    13     3     4    2
    14     4     5    1
    15     5     6    2
    16     6     7    1
    17     7     8    1
    18     8     9    2
    19     9    10    1
    20    10    11    2
    21    19    14    1
    22    11     3    1
    23    21    14    1
    24    11     6    1
@<TRIPOS>MOLECULE
*****
 21 24 0 0 0
SMALL
GASTEIGER

@<TRIPOS>ATOM
      1 O          -7.9582  -18.5764   20.2929 O.2     1  UNL1       -0.2448
      2 C          -8.0733  -18.0851   21.7054 C.2     1  UNL1        0.3428
      3 C          -9.1320  -18.6429   22.6097 C.2     1  UNL1        0.0958
      4 C          -8.9976  -19.8567   23.4807 C.2     1  UNL1        0.1049
      5 N         -10.2936  -20.0489   24.2111 N.2     1  UNL1       -0.2476
      6 C         -11.2289  -18.9538   23.7916 C.2     1  UNL1        0.0636
      7 C         -12.6416  -18.6357   24.1829 C.3     1  UNL1        0.0717
      8 C         -13.3363  -17.4486   23.5845 C.2     1  UNL1       -0.0198
      9 C         -12.6184  -16.5797   22.5948 C.2     1  UNL1       -0.0041
     10 C         -11.2058  -16.8978   22.2035 C.2     1  UNL1        0.0011
     11 C         -10.5110  -18.0849   22.8019 C.2     1  UNL1        0.0216
     12 O          -7.1295  -17.0357   22.2136 O.3     1  UNL1       -0.4454
     13 C          -7.6594  -15.8518   22.9669 C.3     1  UNL1        0.2087
     14 C          -7.3960  -15.7196   24.4376 C.3     1  UNL1        0.0445
     15 C          -6.0366  -15.3112   24.9225 C.3     1  UNL1        0.0210
     16 C          -5.7733  -15.1790   26.3932 C.3     1  UNL1        0.0722
     17 N          -6.8694  -15.4552   27.3793 N.3     1  UNL1       -0.2727
     18 C          -8.2289  -15.8636   26.8945 C.3     1  UNL1        0.0722
     19 C          -8.4922  -15.9958   25.4236 C.3     1  UNL1        0.0210
     20 C          -7.0613  -15.5409   26.5831 C.3     1  UNL1        0.0722
     21 C          -7.2995  -15.6604   25.2532 C.3     1  UNL1        0.0210
@<TRIPOS>BOND
     1     1     2    2
     2     2    12    1
     3    12    13    1
     4    13    14    1
     5    14    15    1
     6    15    16    1
     7    16    17    1
     8    17    18    1
     9    18    19    1
    10    17    20    1
    11    20    21    1
    12     2     3    1
    13     3     4    2
    14     4     5    1
    15     5     6    2
    16     6     7    1
    17     7     8    1
    18     8     9    2
    19     9    10    1
    20    10    11    2
    21    19    14    1
    22    11     3    1
    23    21    14    1
    24    11     6    1
@<TRIPOS>MOLECULE
*****
 21 24 0 0 0
SMALL
GASTEIGER

@<TRIPOS>ATOM
      1 O          -8.0506  -18.5529   20.4499 O.2     1  UNL1       -0.2448
      2 C          -8.4752  -17.4759   21.4036 C.2     1  UNL1        0.3428
      3 C          -9.9323  -17.1772   21.5972 C.2     1  UNL1        0.0958
      4 C         -10.7669  -16.2683   20.7444 C.2     1  UNL1        0.1049
      5 N         -12.1611  -16.2643   21.2977 N.2     1  UNL1       -0.2476
      6 C         -12.1882  -17.1708   22.4925 C.2     1  UNL1        0.0636
      7 C         -13.2892  -17.5554   23.4359 C.3     1  UNL1        0.0717
      8 C         -13.0127  -18.5041   24.5643 C.2     1  UNL1       -0.0198
      9 C         -11.6352  -19.0683   24.7494 C.2     1  UNL1       -0.0041
     10 C         -10.5342  -18.6838   23.8060 C.2     1  UNL1        0.0011
     11 C         -10.8107  -17.7350   22.6776 C.2     1  UNL1        0.0216
     12 O          -7.4425  -16.6976   22.1639 O.3     1  UNL1       -0.4454
     13 C          -7.8598  -15.5516   23.0373 C.3     1  UNL1        0.2087
     14 C          -7.5218  -15.5607   24.4986 C.3     1  UNL1        0.0445
     15 C          -8.5755  -15.9020   25.5101 C.3     1  UNL1        0.0210
     16 C          -8.2374  -15.9110   26.9715 C.3     1  UNL1        0.0722
     17 N          -6.8456  -15.5787   27.4214 N.3     1  UNL1       -0.2727
     18 C          -5.7919  -15.2374   26.4100 C.3     1  UNL1        0.0722
     19 C          -6.1300  -15.2284   24.9485 C.3     1  UNL1        0.0210
     20 C          -6.9834  -15.5607   26.6098 C.3     1  UNL1        0.0722
     21 C          -7.2890  -15.5525   25.2884 C.3     1  UNL1        0.0210
@<TRIPOS>BOND
     1     1     2    2
     2     2    12    1
     3    12    13    1
     4    13    14    1
     5    14    15    1
     6    15    16    1
     7    16    17    1
     8    17    18    1
     9    18    19    1
    10    17    20    1
    11    20    21    1
    12     2     3    1
    13     3     4    2
    14     4     5    1
    15     5     6    2
    16     6     7    1
    17     7     8    1
    18     8     9    2
    19     9    10    1
    20    10    11    2
    21    19    14    1
    22    11     3    1
    23    21    14    1
    24    11     6    1
@<TRIPOS>MOLECULE
*****
 21 24 0 0 0
SMALL
GASTEIGER

@<TRIPOS>ATOM
      1 O          -9.2845  -20.4562   18.4486 O.2     1  UNL1       -0.2448
      2 C          -9.0279  -19.4576   19.5379 C.2     1  UNL1        0.3428
      3 C         -10.1794  -18.8109   20.2491 C.2     1  UNL1        0.0958
      4 C         -11.1862  -17.8836   19.6355 C.2     1  UNL1        0.1049
      5 N         -12.1552  -17.4776   20.7060 N.2     1  UNL1       -0.2476
      6 C         -11.7474  -18.1539   21.9813 C.2     1  UNL1        0.0636
      7 C         -12.3302  -18.1258   23.3631 C.3     1  UNL1        0.0717
      8 C         -11.6918  -18.9218   24.4626 C.2     1  UNL1       -0.0198
      9 C         -10.4707  -19.7458   24.1802 C.2     1  UNL1       -0.0041
     10 C          -9.8879  -19.7739   22.7984 C.2     1  UNL1        0.0011
     11 C         -10.5262  -18.9779   21.6989 C.2     1  UNL1        0.0216
     12 O          -7.6196  -19.1055   19.9161 O.3     1  UNL1       -0.4454
     13 C          -6.6708  -20.1800   20.3581 C.3     1  UNL1        0.2087
     14 C          -5.3341  -19.8113   20.9301 C.3     1  UNL1        0.0445
     15 C          -5.2546  -19.0397   22.2139 C.3     1  UNL1        0.0210
     16 C          -3.9179  -18.6711   22.7858 C.3     1  UNL1        0.0722
     17 N          -2.6605  -19.0740   22.0739 N.3     1  UNL1       -0.2727
     18 C          -2.7400  -19.8456   20.7901 C.3     1  UNL1        0.0722
     19 C          -4.0768  -20.2143   20.2181 C.3     1  UNL1        0.0210
     20 C          -3.3701  -19.2988   21.7218 C.3     1  UNL1        0.0722
     21 C          -4.5788  -19.6322   21.2046 C.3     1  UNL1        0.0210
@<TRIPOS>BOND
     1     1     2    2
     2     2    12    1
     3    12    13    1
     4    13    14    1
     5    14    15    1
     6    15    16    1
     7    16    17    1
     8    17    18    1
     9    18    19    1
    10    17    20    1
    11    20    21    1
    12     2     3    1
    13     3     4    2
    14     4     5    1
    15     5     6    2
    16     6     7    1
    17     7     8    1
    18     8     9    2
    19     9    10    1
    20    10    11    2
    21    19    14    1
    22    11     3    1
    23    21    14    1
    24    11     6    1
@<TRIPOS>MOLECULE
*****
 21 24 0 0 0
SMALL
GASTEIGER

@<TRIPOS>ATOM
      1 O          -8.5799  -18.5196   23.2473 O.2     1  UNL1       -0.2448
      2 C          -7.5650  -17.9383   22.3083 C.2     1  UNL1        0.3428
      3 C          -6.4862  -18.8099   21.7367 C.2     1  UNL1        0.0958
      4 C          -6.6901  -19.9736   20.8126 C.2     1  UNL1        0.1049
      5 N          -5.3441  -20.5536   20.4936 N.2     1  UNL1       -0.2476
      6 C          -4.3082  -19.7483   21.2207 C.2     1  UNL1        0.0636
      7 C          -2.8135  -19.8571   21.2824 C.3     1  UNL1        0.0717
      8 C          -2.0246  -18.8883   22.1124 C.2     1  UNL1       -0.0198
      9 C          -2.7305  -17.8105   22.8807 C.2     1  UNL1       -0.0041
     10 C          -4.2253  -17.7017   22.8190 C.2     1  UNL1        0.0011
     11 C          -5.0141  -18.6706   21.9890 C.2     1  UNL1        0.0216
     12 O          -7.6287  -16.4853   21.9408 O.3     1  UNL1       -0.4454
     13 C          -8.1064  -15.4781   22.9445 C.3     1  UNL1        0.2087
     14 C          -7.5568  -15.4914   24.3401 C.3     1  UNL1        0.0445
     15 C          -6.0900  -15.2786   24.5706 C.3     1  UNL1        0.0210
     16 C          -5.5404  -15.2918   25.9663 C.3     1  UNL1        0.0722
     17 N          -6.4577  -15.5179   27.1315 N.3     1  UNL1       -0.2727
     18 C          -7.9245  -15.7307   26.9009 C.3     1  UNL1        0.0722
     19 C          -8.4741  -15.7175   25.5052 C.3     1  UNL1        0.0210
     20 C          -6.8050  -15.5192   26.3849 C.3     1  UNL1        0.0722
     21 C          -7.3020  -15.5072   25.1230 C.3     1  UNL1        0.0210
@<TRIPOS>BOND
     1     1     2    2
     2     2    12    1
     3    12    13    1
     4    13    14    1
     5    14    15    1
     6    15    16    1
     7    16    17    1
     8    17    18    1
     9    18    19    1
    10    17    20    1
    11    20    21    1
    12     2     3    1
    13     3     4    2
    14     4     5    1
    15     5     6    2
    16     6     7    1
    17     7     8    1
    18     8     9    2
    19     9    10    1
    20    10    11    2
    21    19    14    1
    22    11     3    1
    23    21    14    1
    24    11     6    1
@<TRIPOS>MOLECULE
*****
 21 24 0 0 0
SMALL
GASTEIGER

@<TRIPOS>ATOM
      1 O          -9.2467  -19.9435   23.8498 O.2     1  UNL1       -0.2448
      2 C          -8.5721  -18.7704   23.2029 C.2     1  UNL1        0.3428
      3 C          -7.8949  -18.9334   21.8744 C.2     1  UNL1        0.0958
      4 C          -8.5795  -19.1066   20.5511 C.2     1  UNL1        0.1049
      5 N          -7.5218  -19.2321   19.4949 N.2     1  UNL1       -0.2476
      6 C          -6.1834  -19.1364   20.1655 C.2     1  UNL1        0.0636
      7 C          -4.7846  -19.1936   19.6271 C.3     1  UNL1        0.0717
      8 C          -3.6164  -19.0661   20.5592 C.2     1  UNL1       -0.0198
      9 C          -3.8470  -18.8815   22.0299 C.2     1  UNL1       -0.0041
     10 C          -5.2458  -18.8244   22.5683 C.2     1  UNL1        0.0011
     11 C          -6.4140  -18.9518   21.6362 C.2     1  UNL1        0.0216
     12 O          -8.5748  -17.4341   23.8844 O.3     1  UNL1       -0.4454
     13 C          -9.8013  -16.5717   23.8394 C.3     1  UNL1        0.2087
     14 C         -10.7514  -16.6789   22.6837 C.3     1  UNL1        0.0445
     15 C         -10.4501  -15.9698   21.3967 C.3     1  UNL1        0.0210
     16 C         -11.4003  -16.0771   20.2411 C.3     1  UNL1        0.0722
     17 N         -12.6519  -16.8935   20.3723 N.3     1  UNL1       -0.2727
     18 C         -12.9532  -17.6026   21.6593 C.3     1  UNL1        0.0722
     19 C         -12.0029  -17.4953   22.8151 C.3     1  UNL1        0.0210
     20 C         -12.1614  -16.8643   21.0330 C.3     1  UNL1        0.0722
     21 C         -11.3023  -16.7674   22.0781 C.3     1  UNL1        0.0210
@<TRIPOS>BOND
     1     1     2    2
     2     2    12    1
     3    12    13    1
     4    13    14    1
     5    14    15    1
     6    15    16    1
     7    16    17    1
     8    17    18    1
     9    18    19    1
    10    17    20    1
    11    20    21    1
    12     2     3    1
    13     3     4    2
    14     4     5    1
    15     5     6    2
    16     6     7    1
    17     7     8    1
    18     8     9    2
    19     9    10    1
    20    10    11    2
    21    19    14    1
    22    11     3    1
    23    21    14    1
    24    11     6    1
@<TRIPOS>MOLECULE
*****
 21 24 0 0 0
SMALL
GASTEIGER

@<TRIPOS>ATOM
      1 O         -12.4269  -18.4674   23.7698 O.2     1  UNL1       -0.2448
      2 C         -11.0067  -18.1119   23.4435 C.2     1  UNL1        0.3428
      3 C         -10.4670  -18.3663   22.0673 C.2     1  UNL1        0.0958
      4 C         -11.1555  -18.0383   20.7757 C.2     1  UNL1        0.1049
      5 N         -10.2579  -18.4627   19.6513 N.2     1  UNL1       -0.2476
      6 C          -9.0148  -19.0530   20.2480 C.2     1  UNL1        0.0636
      7 C          -7.7818  -19.6370   19.6245 C.3     1  UNL1        0.0717
      8 C          -6.6781  -20.1615   20.4943 C.2     1  UNL1       -0.0198
      9 C          -6.8073  -20.1019   21.9876 C.2     1  UNL1       -0.0041
     10 C          -8.0402  -19.5179   22.6110 C.2     1  UNL1        0.0011
     11 C          -9.1440  -18.9934   21.7412 C.2     1  UNL1        0.0216
     12 O         -10.1261  -17.5019   24.4936 O.3     1  UNL1       -0.4454
     13 C          -9.4149  -16.2102   24.2182 C.3     1  UNL1        0.2087
     14 C          -8.1384  -15.8889   24.9374 C.3     1  UNL1        0.0445
     15 C          -6.8576  -15.7548   24.1683 C.3     1  UNL1        0.0210
     16 C          -5.5811  -15.4334   24.8875 C.3     1  UNL1        0.0722
     17 N          -5.5853  -15.2463   26.3758 N.3     1  UNL1       -0.2727
     18 C          -6.8661  -15.3804   27.1449 C.3     1  UNL1        0.0722
     19 C          -8.1427  -15.7017   26.4256 C.3     1  UNL1        0.0210
     20 C          -6.3097  -15.4213   26.0255 C.3     1  UNL1        0.0722
     21 C          -7.4640  -15.7118   25.3753 C.3     1  UNL1        0.0210
@<TRIPOS>BOND
     1     1     2    2
     2     2    12    1
     3    12    13    1
     4    13    14    1
     5    14    15    1
     6    15    16    1
     7    16    17    1
     8    17    18    1
     9    18    19    1
    10    17    20    1
    11    20    21    1
    12     2     3    1
    13     3     4    2
    14     4     5    1
    15     5     6    2
    16     6     7    1
    17     7     8    1
    18     8     9    2
    19     9    10    1
    20    10    11    2
    21    19    14    1
    22    11     3    1
    23    21    14    1
    24    11     6    1
@<TRIPOS>MOLECULE
*****
 21 24 0 0 0
SMALL
GASTEIGER

@<TRIPOS>ATOM
      1 O          -6.4523  -17.9123   22.0136 O.2     1  UNL1       -0.2448
      2 C          -7.1129  -19.1357   21.4510 C.2     1  UNL1        0.3428
      3 C          -8.5192  -19.0586   20.9349 C.2     1  UNL1        0.0958
      4 C          -8.9811  -19.4732   19.5693 C.2     1  UNL1        0.1049
      5 N         -10.4579  -19.2242   19.4842 N.2     1  UNL1       -0.2476
      6 C         -10.9086  -18.6558   20.7971 C.2     1  UNL1        0.0636
      7 C         -12.2552  -18.2182   21.2921 C.3     1  UNL1        0.0717
      8 C         -12.4037  -17.6783   22.6836 C.2     1  UNL1       -0.0198
      9 C         -11.2055  -17.5760   23.5802 C.2     1  UNL1       -0.0041
     10 C          -9.8588  -18.0136   23.0852 C.2     1  UNL1        0.0011
     11 C          -9.7104  -18.5535   21.6937 C.2     1  UNL1        0.0216
     12 O          -6.3671  -20.4364   21.4045 O.3     1  UNL1       -0.4454
     13 C          -5.2634  -20.6329   20.4078 C.3     1  UNL1        0.2087
     14 C          -4.0635  -19.7332   20.4307 C.3     1  UNL1        0.0445
     15 C          -3.0985  -19.7988   21.5772 C.3     1  UNL1        0.0210
     16 C          -1.8986  -18.8990   21.6000 C.3     1  UNL1        0.0722
     17 N          -1.6635  -17.9336   20.4762 N.3     1  UNL1       -0.2727
     18 C          -2.6284  -17.8680   19.3297 C.3     1  UNL1        0.0722
     19 C          -3.8285  -18.7678   19.3069 C.3     1  UNL1        0.0210
     20 C          -2.3351  -18.4066   20.4197 C.3     1  UNL1        0.0722
     21 C          -3.4202  -19.2201   20.3990 C.3     1  UNL1        0.0210
@<TRIPOS>BOND
     1     1     2    2
     2     2    12    1
     3    12    13    1
     4    13    14    1
     5    14    15    1
     6    15    16    1
     7    16    17    1
     8    17    18    1
     9    18    19    1
    10    17    20    1
    11    20    21    1
    12     2     3    1
    13     3     4    2
    14     4     5    1
    15     5     6    2
    16     6     7    1
    17     7     8    1
    18     8     9    2
    19     9    10    1
    20    10    11    2
    21    19    14    1
    22    11     3    1
    23    21    14    1
    24    11     6    1
@<TRIPOS>MOLECULE
*****
 21 24 0 0 0
SMALL
GASTEIGER

@<TRIPOS>ATOM
      1 O          -4.8007  -17.4206   22.7440 O.2     1  UNL1       -0.2448
      2 C          -5.7842  -18.4932   22.3804 C.2     1  UNL1        0.3428
      3 C          -7.2433  -18.1650   22.2648 C.2     1  UNL1        0.0958
      4 C          -8.0277  -17.2931   23.1999 C.2     1  UNL1        0.1049
      5 N          -9.4433  -17.2404   22.7067 N.2     1  UNL1       -0.2476
      6 C          -9.5338  -18.0797   21.4668 C.2     1  UNL1        0.0636
      7 C         -10.6786  -18.3975   20.5512 C.3     1  UNL1        0.0717
      8 C         -10.4638  -19.2866   19.3624 C.2     1  UNL1       -0.0198
      9 C          -9.1040  -19.8581   19.0893 C.2     1  UNL1       -0.0041
     10 C          -7.9592  -19.5403   20.0049 C.2     1  UNL1        0.0011
     11 C          -8.1741  -18.6512   21.1936 C.2     1  UNL1        0.0216
     12 O          -5.3086  -19.8941   22.1324 O.3     1  UNL1       -0.4454
     13 C          -4.6088  -20.2325   20.8495 C.3     1  UNL1        0.2087
     14 C          -3.5115  -19.3472   20.3377 C.3     1  UNL1        0.0445
     15 C          -2.1488  -19.4044   20.9619 C.3     1  UNL1        0.0210
     16 C          -1.0516  -18.5190   20.4500 C.3     1  UNL1        0.0722
     17 N          -1.3169  -17.5763   19.3138 N.3     1  UNL1       -0.2727
     18 C          -2.6796  -17.5191   18.6895 C.3     1  UNL1        0.0722
     19 C          -3.7770  -18.4045   19.2015 C.3     1  UNL1        0.0210
     20 C          -1.9497  -18.0421   19.5601 C.3     1  UNL1        0.0722
     21 C          -2.9420  -18.8426   20.0230 C.3     1  UNL1        0.0210
@<TRIPOS>BOND
     1     1     2    2
     2     2    12    1
     3    12    13    1
     4    13    14    1
     5    14    15    1
     6    15    16    1
     7    16    17    1
     8    17    18    1
     9    18    19    1
    10    17    20    1
    11    20    21    1
    12     2     3    1
    13     3     4    2
    14     4     5    1
    15     5     6    2
    16     6     7    1
    17     7     8    1
    18     8     9    2
    19     9    10    1
    20    10    11    2
    21    19    14    1
    22    11     3    1
    23    21    14    1
    24    11     6    1
