@<TRIPOS>MOLECULE
*****
 28 31 0 0 0
SMALL
GASTEIGER

@<TRIPOS>ATOM
      1 C          -8.4507  -17.1666   23.9648 C.2     1  UNL1       -0.0246
      2 C          -7.2820  -17.2638   23.0296 C.2     1  UNL1       -0.0421
      3 C          -6.1310  -16.5270   23.6481 C.3     1  UNL1        0.0480
      4 C          -6.5885  -15.9745   24.9654 C.ar    1  UNL1       -0.0184
      5 C          -5.8848  -15.1624   26.0120 C.ar    1  UNL1       -0.0040
      6 C          -6.6148  -14.7457   27.2544 C.ar    1  UNL1       -0.0003
      7 C          -8.0485  -15.1410   27.4501 C.ar    1  UNL1       -0.0000
      8 C          -8.7521  -15.9531   26.4035 C.ar    1  UNL1       -0.0006
      9 C          -8.0222  -16.3698   25.1612 C.ar    1  UNL1       -0.0079
     10 C         -10.3311  -18.8110   24.6793 C.3     1  UNL1        0.0111
     11 C          -9.8095  -17.7618   23.7426 C.3     1  UNL1        0.0634
     12 C         -10.6468  -17.3079   22.5838 C.ar    1  UNL1        0.0818
     13 C         -11.9471  -17.9931   22.2841 C.ar    1  UNL1        0.1139
     14 N         -12.7844  -17.5391   21.1253 N.ar    1  UNL1       -0.2394
     15 C         -12.3215  -16.4001   20.2662 C.ar    1  UNL1        0.1195
     16 C         -11.0212  -15.7148   20.5658 C.ar    1  UNL1        0.1191
     17 N         -10.1839  -16.1688   21.7247 N.ar    1  UNL1       -0.2446
     18 C          -7.2668  -17.9733   21.7081 C.3     1  UNL1        0.0394
     19 C          -7.0817  -19.4609   21.6575 C.3     1  UNL1        0.0769
     20 N          -5.7587  -20.0387   21.2505 N.3     1  UNL1       -0.2648
     21 C          -5.7041  -21.1593   20.2548 C.3     1  UNL1        0.0900
     22 C          -4.4903  -19.4961   21.8393 C.3     1  UNL1        0.1369
     23 C          -3.4014  -18.9918   20.9393 C.ar    1  UNL1        0.1335
     24 N          -1.9289  -19.2020   21.1335 N.ar    1  UNL1       -0.2281
     25 C          -1.2112  -18.5288   20.0013 C.ar    1  UNL1        0.1186
     26 C          -2.2401  -17.9025   19.1073 C.ar    1  UNL1        0.0943
     27 N          -3.5937  -18.1887   19.6871 N.ar    1  UNL1       -0.3385
     28 H          -4.4568  -17.9000   19.3116 H       1  UNL1        0.1672
@<TRIPOS>BOND
     1    11    10    1
     2    11     1    1
     3     1     2    2
     4     2    18    1
     5    18    19    1
     6    19    20    1
     7    20    21    1
     8    20    22    1
     9    22    23    1
    10    23    24   ar
    11    24    25   ar
    12    25    26   ar
    13    26    27   ar
    14     2     3    1
    15     3     4    1
    16     4     5   ar
    17     5     6   ar
    18     6     7   ar
    19     7     8   ar
    20     8     9   ar
    21    11    12    1
    22    12    13   ar
    23    13    14   ar
    24    14    15   ar
    25    15    16   ar
    26    16    17   ar
    27     9     1    1
    28    17    12   ar
    29    27    23   ar
    30     9     4   ar
    31    27    28    1
@<TRIPOS>MOLECULE
*****
 28 31 0 0 0
SMALL
GASTEIGER

@<TRIPOS>ATOM
      1 C          -8.6118  -17.0387   22.5479 C.2     1  UNL1       -0.0246
      2 C          -7.9755  -18.3569   22.2202 C.2     1  UNL1       -0.0421
      3 C          -9.0616  -19.3065   21.8096 C.3     1  UNL1        0.0480
      4 C         -10.3692  -18.5752   21.8836 C.ar    1  UNL1       -0.0184
      5 C         -11.7770  -19.0045   21.5944 C.ar    1  UNL1       -0.0040
      6 C         -12.9069  -18.0321   21.7615 C.ar    1  UNL1       -0.0003
      7 C         -12.6289  -16.6305   22.2178 C.ar    1  UNL1       -0.0000
      8 C         -11.2210  -16.2013   22.5070 C.ar    1  UNL1       -0.0006
      9 C         -10.0912  -17.1736   22.3399 C.ar    1  UNL1       -0.0079
     10 C          -7.5706  -14.7176   22.0197 C.3     1  UNL1        0.0111
     11 C          -7.8947  -15.8026   23.0036 C.3     1  UNL1        0.0634
     12 C          -7.5016  -15.6512   24.4432 C.ar    1  UNL1        0.0818
     13 C          -8.5494  -15.6970   25.5156 C.ar    1  UNL1        0.1139
     14 N          -8.1562  -15.5456   26.9553 N.ar    1  UNL1       -0.2394
     15 C          -6.7153  -15.3485   27.3225 C.ar    1  UNL1        0.1195
     16 C          -5.6675  -15.3027   26.2501 C.ar    1  UNL1        0.1191
     17 N          -6.0606  -15.4541   24.8105 N.ar    1  UNL1       -0.2446
     18 C          -6.5103  -18.6704   22.2906 C.3     1  UNL1        0.0394
     19 C          -5.9787  -19.9184   21.6503 C.3     1  UNL1        0.0769
     20 N          -4.5562  -19.9712   21.1773 N.3     1  UNL1       -0.2648
     21 C          -4.2208  -20.6529   19.8839 C.3     1  UNL1        0.0900
     22 C          -3.4692  -19.3425   21.9977 C.3     1  UNL1        0.1369
     23 C          -2.4170  -18.5053   21.3331 C.ar    1  UNL1        0.1335
     24 N          -1.1641  -19.0150   20.6846 N.ar    1  UNL1       -0.2281
     25 C          -0.4056  -17.8360   20.1510 C.ar    1  UNL1        0.1186
     26 C          -1.1897  -16.5976   20.4696 C.ar    1  UNL1        0.0943
     27 N          -2.4328  -17.0113   21.2002 N.ar    1  UNL1       -0.3385
     28 H          -3.1356  -16.4080   21.5339 H       1  UNL1        0.1672
@<TRIPOS>BOND
     1    11    10    1
     2    11     1    1
     3     1     2    2
     4     2    18    1
     5    18    19    1
     6    19    20    1
     7    20    21    1
     8    20    22    1
     9    22    23    1
    10    23    24   ar
    11    24    25   ar
    12    25    26   ar
    13    26    27   ar
    14     2     3    1
    15     3     4    1
    16     4     5   ar
    17     5     6   ar
    18     6     7   ar
    19     7     8   ar
    20     8     9   ar
    21    11    12    1
    22    12    13   ar
    23    13    14   ar
    24    14    15   ar
    25    15    16   ar
    26    16    17   ar
    27     9     1    1
    28    17    12   ar
    29    27    23   ar
    30     9     4   ar
    31    27    28    1
@<TRIPOS>MOLECULE
*****
 28 31 0 0 0
SMALL
GASTEIGER

@<TRIPOS>ATOM
      1 C          -9.7158  -18.5294   22.9291 C.2     1  UNL1       -0.0246
      2 C          -8.7496  -19.1680   21.9759 C.2     1  UNL1       -0.0421
      3 C          -9.1550  -18.7896   20.5821 C.3     1  UNL1        0.0480
      4 C         -10.3716  -17.9171   20.6740 C.ar    1  UNL1       -0.0184
      5 C         -11.2087  -17.2483   19.6242 C.ar    1  UNL1       -0.0040
      6 C         -12.3923  -16.4187   20.0250 C.ar    1  UNL1       -0.0003
      7 C         -12.7390  -16.2579   21.4755 C.ar    1  UNL1       -0.0000
      8 C         -11.9019  -16.9267   22.5252 C.ar    1  UNL1       -0.0006
      9 C         -10.7183  -17.7563   22.1245 C.ar    1  UNL1       -0.0079
     10 C         -10.2345  -19.8682   25.0944 C.3     1  UNL1        0.0111
     11 C          -9.6850  -18.6438   24.4244 C.3     1  UNL1        0.0634
     12 C          -9.1046  -17.5339   25.2497 C.ar    1  UNL1        0.0818
     13 C          -8.6474  -16.2676   24.5884 C.ar    1  UNL1        0.1139
     14 N          -8.0671  -15.1577   25.4138 N.ar    1  UNL1       -0.2394
     15 C          -7.9439  -15.3140   26.9005 C.ar    1  UNL1        0.1195
     16 C          -8.4012  -16.5803   27.5619 C.ar    1  UNL1        0.1191
     17 N          -8.9815  -17.6902   26.7365 N.ar    1  UNL1       -0.2446
     18 C          -7.5829  -20.0332   22.3506 C.3     1  UNL1        0.0394
     19 C          -6.5345  -20.3619   21.3295 C.3     1  UNL1        0.0769
     20 N          -5.1663  -19.7566   21.4376 N.3     1  UNL1       -0.2648
     21 C          -4.8740  -18.7505   22.5112 C.3     1  UNL1        0.0900
     22 C          -4.0905  -20.1573   20.4723 C.3     1  UNL1        0.1369
     23 C          -2.9845  -19.1994   20.1418 C.ar    1  UNL1        0.1335
     24 N          -1.5738  -19.2736   20.6460 N.ar    1  UNL1       -0.2281
     25 C          -0.8125  -18.1191   20.0649 C.ar    1  UNL1        0.1186
     26 C          -1.7528  -17.3314   19.2015 C.ar    1  UNL1        0.0943
     27 N          -3.0952  -17.9991   19.2490 N.ar    1  UNL1       -0.3385
     28 H          -3.9064  -17.7017   18.7772 H       1  UNL1        0.1672
@<TRIPOS>BOND
     1    11    10    1
     2    11     1    1
     3     1     2    2
     4     2    18    1
     5    18    19    1
     6    19    20    1
     7    20    21    1
     8    20    22    1
     9    22    23    1
    10    23    24   ar
    11    24    25   ar
    12    25    26   ar
    13    26    27   ar
    14     2     3    1
    15     3     4    1
    16     4     5   ar
    17     5     6   ar
    18     6     7   ar
    19     7     8   ar
    20     8     9   ar
    21    11    12    1
    22    12    13   ar
    23    13    14   ar
    24    14    15   ar
    25    15    16   ar
    26    16    17   ar
    27     9     1    1
    28    17    12   ar
    29    27    23   ar
    30     9     4   ar
    31    27    28    1
@<TRIPOS>MOLECULE
*****
 28 31 0 0 0
SMALL
GASTEIGER

@<TRIPOS>ATOM
      1 C          -6.0459  -18.8425   21.4007 C.2     1  UNL1       -0.0246
      2 C          -7.5079  -18.8035   21.0676 C.2     1  UNL1       -0.0421
      3 C          -8.1573  -17.7795   21.9505 C.3     1  UNL1        0.0480
      4 C          -7.0967  -17.1856   22.8293 C.ar    1  UNL1       -0.0184
      5 C          -7.1506  -16.1314   23.8951 C.ar    1  UNL1       -0.0040
      6 C          -5.8995  -15.7342   24.6210 C.ar    1  UNL1       -0.0003
      7 C          -4.5945  -16.3912   24.2811 C.ar    1  UNL1       -0.0000
      8 C          -4.5406  -17.4453   23.2154 C.ar    1  UNL1       -0.0006
      9 C          -5.7917  -17.8425   22.4895 C.ar    1  UNL1       -0.0079
     10 C          -5.3291  -21.1703   20.4963 C.3     1  UNL1        0.0111
     11 C          -5.0184  -19.7262   20.7578 C.3     1  UNL1        0.0634
     12 C          -3.6803  -19.1660   20.3765 C.ar    1  UNL1        0.0818
     13 C          -2.4399  -19.6504   21.0671 C.ar    1  UNL1        0.1139
     14 N          -1.1018  -19.0902   20.6857 N.ar    1  UNL1       -0.2394
     15 C          -1.0039  -18.0456   19.6137 C.ar    1  UNL1        0.1195
     16 C          -2.2442  -17.5611   18.9231 C.ar    1  UNL1        0.1191
     17 N          -3.5823  -18.1213   19.3045 N.ar    1  UNL1       -0.2446
     18 C          -8.1991  -19.6415   20.0331 C.3     1  UNL1        0.0394
     19 C          -9.4066  -19.1084   19.3206 C.3     1  UNL1        0.0769
     20 N         -10.6656  -18.8269   20.0858 N.3     1  UNL1       -0.2648
     21 C         -11.3838  -17.5239   19.8950 C.3     1  UNL1        0.0900
     22 C         -11.2065  -19.8484   21.0418 C.3     1  UNL1        0.1369
     23 C         -11.0223  -19.6647   22.5190 C.ar    1  UNL1        0.1335
     24 N         -10.0197  -20.3770   23.3778 N.ar    1  UNL1       -0.2281
     25 C         -10.1860  -19.8890   24.7865 C.ar    1  UNL1        0.1186
     26 C         -11.2915  -18.8752   24.7983 C.ar    1  UNL1        0.0943
     27 N         -11.8083  -18.7366   23.3969 N.ar    1  UNL1       -0.3385
     28 H         -12.5356  -18.1410   23.1047 H       1  UNL1        0.1672
@<TRIPOS>BOND
     1    11    10    1
     2    11     1    1
     3     1     2    2
     4     2    18    1
     5    18    19    1
     6    19    20    1
     7    20    21    1
     8    20    22    1
     9    22    23    1
    10    23    24   ar
    11    24    25   ar
    12    25    26   ar
    13    26    27   ar
    14     2     3    1
    15     3     4    1
    16     4     5   ar
    17     5     6   ar
    18     6     7   ar
    19     7     8   ar
    20     8     9   ar
    21    11    12    1
    22    12    13   ar
    23    13    14   ar
    24    14    15   ar
    25    15    16   ar
    26    16    17   ar
    27     9     1    1
    28    17    12   ar
    29    27    23   ar
    30     9     4   ar
    31    27    28    1
@<TRIPOS>MOLECULE
*****
 28 31 0 0 0
SMALL
GASTEIGER

@<TRIPOS>ATOM
      1 C          -6.4558  -17.8607   22.6751 C.2     1  UNL1       -0.0246
      2 C          -7.0252  -19.1710   22.2182 C.2     1  UNL1       -0.0421
      3 C          -5.8826  -20.0668   21.8417 C.3     1  UNL1        0.0480
      4 C          -4.6069  -19.3102   22.0659 C.ar    1  UNL1       -0.0184
      5 C          -3.1686  -19.6866   21.8676 C.ar    1  UNL1       -0.0040
      6 C          -2.0845  -18.6996   22.1844 C.ar    1  UNL1       -0.0003
      7 C          -2.4388  -17.3360   22.6995 C.ar    1  UNL1       -0.0000
      8 C          -3.8771  -16.9596   22.8978 C.ar    1  UNL1       -0.0006
      9 C          -4.9612  -17.9467   22.5810 C.ar    1  UNL1       -0.0079
     10 C          -8.0925  -15.9060   22.1743 C.3     1  UNL1        0.0111
     11 C          -7.2427  -16.6729   23.1439 C.3     1  UNL1        0.0634
     12 C          -7.1801  -16.2518   24.5821 C.ar    1  UNL1        0.0818
     13 C          -5.9765  -15.5200   25.0977 C.ar    1  UNL1        0.1139
     14 N          -5.9138  -15.0989   26.5360 N.ar    1  UNL1       -0.2394
     15 C          -7.0548  -15.4096   27.4588 C.ar    1  UNL1        0.1195
     16 C          -8.2585  -16.1414   26.9434 C.ar    1  UNL1        0.1191
     17 N          -8.3211  -16.5625   25.5051 N.ar    1  UNL1       -0.2446
     18 C          -8.4816  -19.5236   22.1498 C.3     1  UNL1        0.0394
     19 C          -9.3387  -19.4117   23.3757 C.3     1  UNL1        0.0769
     20 N         -10.8028  -19.1139   23.2425 N.3     1  UNL1       -0.2648
     21 C         -11.6061  -18.7437   24.4541 C.3     1  UNL1        0.0900
     22 C         -11.4636  -19.1863   21.8979 C.3     1  UNL1        0.1369
     23 C         -11.6463  -17.9397   21.0839 C.ar    1  UNL1        0.1335
     24 N         -12.8792  -17.0864   21.0426 N.ar    1  UNL1       -0.2281
     25 C         -12.6229  -15.9468   20.1014 C.ar    1  UNL1        0.1186
     26 C         -11.2316  -16.0959   19.5610 C.ar    1  UNL1        0.0943
     27 N         -10.6280  -17.3275   20.1682 N.ar    1  UNL1       -0.3385
     28 H          -9.7225  -17.6734   19.9960 H       1  UNL1        0.1672
@<TRIPOS>BOND
     1    11    10    1
     2    11     1    1
     3     1     2    2
     4     2    18    1
     5    18    19    1
     6    19    20    1
     7    20    21    1
     8    20    22    1
     9    22    23    1
    10    23    24   ar
    11    24    25   ar
    12    25    26   ar
    13    26    27   ar
    14     2     3    1
    15     3     4    1
    16     4     5   ar
    17     5     6   ar
    18     6     7   ar
    19     7     8   ar
    20     8     9   ar
    21    11    12    1
    22    12    13   ar
    23    13    14   ar
    24    14    15   ar
    25    15    16   ar
    26    16    17   ar
    27     9     1    1
    28    17    12   ar
    29    27    23   ar
    30     9     4   ar
    31    27    28    1
@<TRIPOS>MOLECULE
*****
 28 31 0 0 0
SMALL
GASTEIGER

@<TRIPOS>ATOM
      1 C          -5.9475  -19.4258   20.9596 C.2     1  UNL1       -0.0246
      2 C          -5.8170  -18.7856   22.3098 C.2     1  UNL1       -0.0421
      3 C          -7.1707  -18.2850   22.7182 C.3     1  UNL1        0.0480
      4 C          -8.1379  -18.6159   21.6204 C.ar    1  UNL1       -0.0184
      5 C          -9.6093  -18.3663   21.4700 C.ar    1  UNL1       -0.0040
      6 C         -10.3246  -18.8218   20.2328 C.ar    1  UNL1       -0.0003
      7 C          -9.5686  -19.5268   19.1459 C.ar    1  UNL1       -0.0000
      8 C          -8.0972  -19.7764   19.2963 C.ar    1  UNL1       -0.0006
      9 C          -7.3819  -19.3210   20.5335 C.ar    1  UNL1       -0.0079
     10 C          -5.0010  -21.4497   19.6335 C.3     1  UNL1        0.0111
     11 C          -4.8383  -20.0596   20.1734 C.3     1  UNL1        0.0634
     12 C          -3.5665  -19.3036   19.9272 C.ar    1  UNL1        0.0818
     13 C          -2.2948  -19.7376   20.5938 C.ar    1  UNL1        0.1139
     14 N          -1.0230  -18.9814   20.3475 N.ar    1  UNL1       -0.2394
     15 C          -1.0227  -17.7913   19.4345 C.ar    1  UNL1        0.1195
     16 C          -2.2944  -17.3573   18.7678 C.ar    1  UNL1        0.1191
     17 N          -3.5663  -18.1134   19.0141 N.ar    1  UNL1       -0.2446
     18 C          -4.5544  -18.6667   23.1109 C.3     1  UNL1        0.0394
     19 C          -4.2774  -17.4173   23.8932 C.3     1  UNL1        0.0769
     20 N          -4.0428  -16.1204   23.1769 N.3     1  UNL1       -0.2648
     21 C          -2.9337  -16.0079   22.1732 C.3     1  UNL1        0.0900
     22 C          -4.9173  -14.9361   23.4642 C.3     1  UNL1        0.1369
     23 C          -6.1946  -15.1151   24.2299 C.ar    1  UNL1        0.1335
     24 N          -6.3108  -15.5385   25.6642 N.ar    1  UNL1       -0.2281
     25 C          -7.7681  -15.5872   26.0166 C.ar    1  UNL1        0.1186
     26 C          -8.5525  -15.1938   24.8001 C.ar    1  UNL1        0.0943
     27 N          -7.5800  -14.9020   23.6959 N.ar    1  UNL1       -0.3385
     28 H          -7.8106  -14.6202   22.7812 H       1  UNL1        0.1672
@<TRIPOS>BOND
     1    11    10    1
     2    11     1    1
     3     1     2    2
     4     2    18    1
     5    18    19    1
     6    19    20    1
     7    20    21    1
     8    20    22    1
     9    22    23    1
    10    23    24   ar
    11    24    25   ar
    12    25    26   ar
    13    26    27   ar
    14     2     3    1
    15     3     4    1
    16     4     5   ar
    17     5     6   ar
    18     6     7   ar
    19     7     8   ar
    20     8     9   ar
    21    11    12    1
    22    12    13   ar
    23    13    14   ar
    24    14    15   ar
    25    15    16   ar
    26    16    17   ar
    27     9     1    1
    28    17    12   ar
    29    27    23   ar
    30     9     4   ar
    31    27    28    1
@<TRIPOS>MOLECULE
*****
 28 31 0 0 0
SMALL
GASTEIGER

@<TRIPOS>ATOM
      1 C          -7.8359  -18.3908   21.5729 C.2     1  UNL1       -0.0246
      2 C          -6.4436  -18.8260   21.9221 C.2     1  UNL1       -0.0421
      3 C          -6.0527  -19.9274   20.9818 C.3     1  UNL1        0.0480
      4 C          -7.2035  -20.1729   20.0515 C.ar    1  UNL1       -0.0184
      5 C          -7.3901  -21.1384   18.9189 C.ar    1  UNL1       -0.0040
      6 C          -8.6789  -21.1543   18.1517 C.ar    1  UNL1       -0.0003
      7 C          -9.7811  -20.2047   18.5170 C.ar    1  UNL1       -0.0000
      8 C          -9.5944  -19.2391   19.6496 C.ar    1  UNL1       -0.0006
      9 C          -8.3056  -19.2232   20.4168 C.ar    1  UNL1       -0.0079
     10 C          -8.0584  -15.9258   22.3633 C.3     1  UNL1        0.0111
     11 C          -8.6209  -17.3126   22.2594 C.3     1  UNL1        0.0634
     12 C          -9.9683  -17.6208   22.8418 C.ar    1  UNL1        0.0818
     13 C         -11.1952  -16.9625   22.2837 C.ar    1  UNL1        0.1139
     14 N         -12.5426  -17.2708   22.8662 N.ar    1  UNL1       -0.2394
     15 C         -12.6633  -18.2374   24.0068 C.ar    1  UNL1        0.1195
     16 C         -11.4365  -18.8958   24.5650 C.ar    1  UNL1        0.1191
     17 N         -10.0890  -18.5875   23.9825 N.ar    1  UNL1       -0.2446
     18 C          -5.5917  -18.2594   23.0190 C.3     1  UNL1        0.0394
     19 C          -4.1605  -17.9012   22.7482 C.3     1  UNL1        0.0769
     20 N          -3.7292  -16.4648   22.7733 N.3     1  UNL1       -0.2648
     21 C          -4.5815  -15.4376   23.4578 C.3     1  UNL1        0.0900
     22 C          -2.4456  -16.0556   22.1138 C.3     1  UNL1        0.1369
     23 C          -1.9296  -16.8254   20.9344 C.ar    1  UNL1        0.1335
     24 N          -2.6859  -17.1163   19.6721 N.ar    1  UNL1       -0.2281
     25 C          -1.7904  -17.9102   18.7677 C.ar    1  UNL1        0.1186
     26 C          -0.4807  -18.1100   19.4711 C.ar    1  UNL1        0.0943
     27 N          -0.5668  -17.4396   20.8101 N.ar    1  UNL1       -0.3385
     28 H           0.1461  -17.4082   21.4884 H       1  UNL1        0.1672
@<TRIPOS>BOND
     1    11    10    1
     2    11     1    1
     3     1     2    2
     4     2    18    1
     5    18    19    1
     6    19    20    1
     7    20    21    1
     8    20    22    1
     9    22    23    1
    10    23    24   ar
    11    24    25   ar
    12    25    26   ar
    13    26    27   ar
    14     2     3    1
    15     3     4    1
    16     4     5   ar
    17     5     6   ar
    18     6     7   ar
    19     7     8   ar
    20     8     9   ar
    21    11    12    1
    22    12    13   ar
    23    13    14   ar
    24    14    15   ar
    25    15    16   ar
    26    16    17   ar
    27     9     1    1
    28    17    12   ar
    29    27    23   ar
    30     9     4   ar
    31    27    28    1
@<TRIPOS>MOLECULE
*****
 28 31 0 0 0
SMALL
GASTEIGER

@<TRIPOS>ATOM
      1 C          -7.1515  -16.3042   23.9000 C.2     1  UNL1       -0.0246
      2 C          -5.6820  -16.6054   23.8927 C.2     1  UNL1       -0.0421
      3 C          -5.1298  -16.2518   25.2418 C.3     1  UNL1        0.0480
      4 C          -6.2579  -15.7322   26.0828 C.ar    1  UNL1       -0.0184
      5 C          -6.3089  -15.2337   27.4966 C.ar    1  UNL1       -0.0040
      6 C          -7.6093  -14.7676   28.0811 C.ar    1  UNL1       -0.0003
      7 C          -8.8587  -14.8000   27.2518 C.ar    1  UNL1       -0.0000
      8 C          -8.8078  -15.2985   25.8380 C.ar    1  UNL1       -0.0006
      9 C          -7.5074  -15.7646   25.2535 C.ar    1  UNL1       -0.0079
     10 C          -8.1986  -15.4738   21.6719 C.3     1  UNL1        0.0111
     11 C          -8.0987  -16.5071   22.7547 C.3     1  UNL1        0.0634
     12 C          -8.9460  -17.7432   22.6921 C.ar    1  UNL1        0.0818
     13 C          -9.4526  -18.2392   21.3702 C.ar    1  UNL1        0.1139
     14 N         -10.2999  -19.4754   21.3077 N.ar    1  UNL1       -0.2394
     15 C         -10.6406  -20.2156   22.5670 C.ar    1  UNL1        0.1195
     16 C         -10.1341  -19.7197   23.8889 C.ar    1  UNL1        0.1191
     17 N          -9.2868  -18.4835   23.9515 N.ar    1  UNL1       -0.2446
     18 C          -4.9018  -17.1623   22.7390 C.3     1  UNL1        0.0394
     19 C          -4.3611  -18.5599   22.8042 C.3     1  UNL1        0.0769
     20 N          -4.8237  -19.5899   21.8166 N.3     1  UNL1       -0.2648
     21 C          -6.2176  -20.1376   21.9016 C.3     1  UNL1        0.0900
     22 C          -3.8924  -20.0721   20.7441 C.3     1  UNL1        0.1369
     23 C          -2.9305  -19.1174   20.1012 C.ar    1  UNL1        0.1335
     24 N          -1.4499  -19.0660   20.3356 N.ar    1  UNL1       -0.2281
     25 C          -0.8846  -17.9634   19.4902 C.ar    1  UNL1        0.1186
     26 C          -2.0160  -17.3333   18.7332 C.ar    1  UNL1        0.0943
     27 N          -3.2804  -18.0465   19.1108 N.ar    1  UNL1       -0.3385
     28 H          -4.1817  -17.8468   18.7687 H       1  UNL1        0.1672
@<TRIPOS>BOND
     1    11    10    1
     2    11     1    1
     3     1     2    2
     4     2    18    1
     5    18    19    1
     6    19    20    1
     7    20    21    1
     8    20    22    1
     9    22    23    1
    10    23    24   ar
    11    24    25   ar
    12    25    26   ar
    13    26    27   ar
    14     2     3    1
    15     3     4    1
    16     4     5   ar
    17     5     6   ar
    18     6     7   ar
    19     7     8   ar
    20     8     9   ar
    21    11    12    1
    22    12    13   ar
    23    13    14   ar
    24    14    15   ar
    25    15    16   ar
    26    16    17   ar
    27     9     1    1
    28    17    12   ar
    29    27    23   ar
    30     9     4   ar
    31    27    28    1
@<TRIPOS>MOLECULE
*****
 28 31 0 0 0
SMALL
GASTEIGER

@<TRIPOS>ATOM
      1 C          -6.2565  -19.2555   21.1532 C.2     1  UNL1       -0.0246
      2 C          -7.1554  -18.1961   21.7183 C.2     1  UNL1       -0.0421
      3 C          -8.4836  -18.2991   21.0288 C.3     1  UNL1        0.0480
      4 C          -8.4054  -19.4221   20.0375 C.ar    1  UNL1       -0.0184
      5 C          -9.4098  -19.9828   19.0748 C.ar    1  UNL1       -0.0040
      6 C          -9.0377  -21.1347   18.1890 C.ar    1  UNL1       -0.0003
      7 C          -7.6612  -21.7258   18.2659 C.ar    1  UNL1       -0.0000
      8 C          -6.6569  -21.1651   19.2286 C.ar    1  UNL1       -0.0006
      9 C          -7.0290  -20.0133   20.1144 C.ar    1  UNL1       -0.0079
     10 C          -4.5373  -20.3172   22.7865 C.3     1  UNL1        0.0111
     11 C          -4.8346  -19.5122   21.5561 C.3     1  UNL1        0.0634
     12 C          -3.7099  -18.9640   20.7287 C.ar    1  UNL1        0.0818
     13 C          -2.2896  -19.2933   21.0813 C.ar    1  UNL1        0.1139
     14 N          -1.1650  -18.7450   20.2539 N.ar    1  UNL1       -0.2394
     15 C          -1.4606  -17.8675   19.0739 C.ar    1  UNL1        0.1195
     16 C          -2.8809  -17.5382   18.7211 C.ar    1  UNL1        0.1191
     17 N          -4.0055  -18.0865   19.5486 N.ar    1  UNL1       -0.2446
     18 C          -6.7904  -17.2073   22.7856 C.3     1  UNL1        0.0394
     19 C          -7.7637  -16.1366   23.1806 C.3     1  UNL1        0.0769
     20 N          -8.6130  -16.3095   24.4048 N.3     1  UNL1       -0.2648
     21 C          -8.3161  -15.5150   25.6420 C.3     1  UNL1        0.0900
     22 C          -9.7593  -17.2769   24.3919 C.3     1  UNL1        0.1369
     23 C         -10.8167  -17.1728   23.3331 C.ar    1  UNL1        0.1335
     24 N         -11.6337  -18.3068   22.7884 N.ar    1  UNL1       -0.2281
     25 C         -12.5647  -17.7512   21.7518 C.ar    1  UNL1        0.1186
     26 C         -12.3231  -16.2739   21.6558 C.ar    1  UNL1        0.0943
     27 N         -11.2428  -15.9165   22.6332 N.ar    1  UNL1       -0.3385
     28 H         -10.8776  -15.0154   22.7880 H       1  UNL1        0.1672
@<TRIPOS>BOND
     1    11    10    1
     2    11     1    1
     3     1     2    2
     4     2    18    1
     5    18    19    1
     6    19    20    1
     7    20    21    1
     8    20    22    1
     9    22    23    1
    10    23    24   ar
    11    24    25   ar
    12    25    26   ar
    13    26    27   ar
    14     2     3    1
    15     3     4    1
    16     4     5   ar
    17     5     6   ar
    18     6     7   ar
    19     7     8   ar
    20     8     9   ar
    21    11    12    1
    22    12    13   ar
    23    13    14   ar
    24    14    15   ar
    25    15    16   ar
    26    16    17   ar
    27     9     1    1
    28    17    12   ar
    29    27    23   ar
    30     9     4   ar
    31    27    28    1
