@<TRIPOS>MOLECULE
*****
 36 39 0 0 0
SMALL
GASTEIGER

@<TRIPOS>ATOM
      1 C          -2.8065  -18.6803   21.0465 C.3     1  UNL1        0.0743
      2 C          -1.7689  -18.3744   20.0073 C.3     1  UNL1        0.0197
      3 C          -0.9233  -17.1418   20.1318 C.3     1  UNL1        0.0017
      4 C          -1.1152  -16.2150   21.2955 C.3     1  UNL1        0.0002
      5 C          -2.1527  -16.5208   22.3347 C.3     1  UNL1        0.0030
      6 C          -2.9984  -17.7535   22.2101 C.3     1  UNL1        0.0340
      7 N          -5.8373  -21.0714   20.1265 N.am    1  UNL1       -0.2683
      8 C          -4.9917  -19.8388   20.2510 C.2     1  UNL1        0.3044
      9 O          -5.4856  -18.5321   19.7046 O.2     1  UNL1       -0.2525
     10 N          -3.6521  -19.9129   20.9220 N.am    1  UNL1       -0.2903
     11 H          -5.5132  -21.9290   20.4851 H       1  UNL1        0.1564
     12 H          -3.3279  -20.7705   21.2806 H       1  UNL1        0.1509
     13 C          -9.5482  -19.9512   19.2752 C.ar    1  UNL1        0.0359
     14 C          -9.8560  -20.8491   18.1138 C.ar    1  UNL1        0.0029
     15 C          -8.8242  -21.8211   17.6232 C.ar    1  UNL1        0.0014
     16 C          -7.4847  -21.8953   18.2941 C.ar    1  UNL1        0.0147
     17 C          -7.1769  -20.9973   19.4555 C.ar    1  UNL1        0.0517
     18 C          -8.2087  -20.0253   19.9461 C.ar    1  UNL1        0.0176
     19 C         -11.6565  -19.4380   20.7041 C.3     1  UNL1        0.0773
     20 C         -10.5799  -18.9792   19.7657 C.2     1  UNL1        0.1735
     21 O         -10.5352  -17.5483   19.3179 O.2     1  UNL1       -0.2913
     22 C          -4.0360  -18.0593   23.2493 C.3     1  UNL1        0.0737
     23 N          -5.1602  -17.0965   23.4927 N.3     1  UNL1       -0.2726
     24 C          -5.0209  -16.0296   24.5378 C.3     1  UNL1        0.0721
     25 C          -6.1452  -15.0669   24.7812 C.3     1  UNL1        0.0174
     26 C          -7.4087  -15.1711   23.9795 C.3     1  UNL1        0.0031
     27 C          -7.5479  -16.2380   22.9344 C.3     1  UNL1        0.0204
     28 C          -6.4237  -17.2008   22.6910 C.3     1  UNL1        0.0724
     29 C          -8.8114  -16.3423   22.1327 C.3     1  UNL1        0.0277
     30 C         -10.0565  -16.8920   22.7632 C.ar    1  UNL1       -0.0220
     31 C          -9.9677  -18.0481   23.7149 C.ar    1  UNL1       -0.0020
     32 C         -11.2127  -18.5979   24.3453 C.ar    1  UNL1        0.0293
     33 C         -12.5467  -17.9917   24.0241 C.ar    1  UNL1        0.1401
     34 F         -13.7918  -18.5415   24.6546 F       1  UNL1       -0.2042
     35 C         -12.6355  -16.8357   23.0724 C.ar    1  UNL1        0.0293
     36 C         -11.3904  -16.2858   22.4419 C.ar    1  UNL1       -0.0020
@<TRIPOS>BOND
     1    19    20    1
     2    20    21    2
     3    20    13    1
     4    13    14   ar
     5    14    15   ar
     6    15    16   ar
     7    16    17   ar
     8    17     7    1
     9     7     8   am
    10     8     9    2
    11     8    10   am
    12     1    10    1
    13     1     2    1
    14     2     3    1
    15     3     4    1
    16     4     5    1
    17     5     6    1
    18     6    22    1
    19    22    23    1
    20    23    24    1
    21    24    25    1
    22    25    26    1
    23    26    27    1
    24    27    29    1
    25    29    30    1
    26    30    31   ar
    27    31    32   ar
    28    32    33   ar
    29    33    34    1
    30    33    35   ar
    31    35    36   ar
    32    27    28    1
    33    17    18   ar
    34    18    13   ar
    35     6     1    1
    36    28    23    1
    37    36    30   ar
    38     7    11    1
    39    10    12    1
@<TRIPOS>MOLECULE
*****
 36 39 0 0 0
SMALL
GASTEIGER

@<TRIPOS>ATOM
      1 C          -3.4355  -18.9795   20.2502 C.3     1  UNL1        0.0743
      2 C          -2.6402  -18.7576   18.9980 C.3     1  UNL1        0.0197
      3 C          -1.5445  -17.7334   18.9770 C.3     1  UNL1        0.0017
      4 C          -1.2441  -16.9311   20.2084 C.3     1  UNL1        0.0002
      5 C          -2.0395  -17.1530   21.4607 C.3     1  UNL1        0.0030
      6 C          -3.1352  -18.1773   21.4816 C.3     1  UNL1        0.0340
      7 N          -7.0584  -20.5927   20.3985 N.am    1  UNL1       -0.2683
      8 C          -5.9628  -19.5685   20.3775 C.2     1  UNL1        0.3044
      9 O          -6.2986  -18.1091   20.4629 O.2     1  UNL1       -0.2525
     10 N          -4.5312  -20.0037   20.2712 N.am    1  UNL1       -0.2903
     11 H          -6.8380  -21.5506   20.3424 H       1  UNL1        0.1564
     12 H          -4.3108  -20.9616   20.2151 H       1  UNL1        0.1509
     13 C         -10.5795  -19.6302   21.9561 C.ar    1  UNL1        0.0359
     14 C         -11.3530  -19.2872   20.7176 C.ar    1  UNL1        0.0029
     15 C         -10.6951  -19.3793   19.3728 C.ar    1  UNL1        0.0014
     16 C          -9.2636  -19.8145   19.2664 C.ar    1  UNL1        0.0147
     17 C          -8.4900  -20.1575   20.5048 C.ar    1  UNL1        0.0517
     18 C          -9.1480  -20.0654   21.8497 C.ar    1  UNL1        0.0176
     19 C         -10.5082  -20.0041   24.5261 C.3     1  UNL1        0.0773
     20 C         -11.2374  -19.5381   23.3009 C.2     1  UNL1        0.1735
     21 O         -12.6245  -18.9800   23.4206 O.2     1  UNL1       -0.2913
     22 C          -3.9306  -18.3992   22.7338 C.3     1  UNL1        0.0737
     23 N          -4.8149  -17.3096   23.2637 N.3     1  UNL1       -0.2726
     24 C          -4.2315  -15.9714   23.6086 C.3     1  UNL1        0.0721
     25 C          -5.1158  -14.8818   24.1384 C.3     1  UNL1        0.0174
     26 C          -6.5835  -15.1304   24.3233 C.3     1  UNL1        0.0031
     27 C          -7.1668  -16.4685   23.9784 C.3     1  UNL1        0.0204
     28 C          -6.2825  -17.5581   23.4485 C.3     1  UNL1        0.0724
     29 C          -8.6345  -16.7170   24.1633 C.3     1  UNL1        0.0277
     30 C          -9.5927  -16.4138   23.0497 C.ar    1  UNL1       -0.0220
     31 C          -9.0898  -16.2820   21.6426 C.ar    1  UNL1       -0.0020
     32 C         -10.0480  -15.9788   20.5291 C.ar    1  UNL1        0.0293
     33 C         -11.5090  -15.8073   20.8226 C.ar    1  UNL1        0.1401
     34 F         -12.4671  -15.5041   19.7090 F       1  UNL1       -0.2042
     35 C         -12.0118  -15.9391   22.2296 C.ar    1  UNL1        0.0293
     36 C         -11.0536  -16.2424   23.3432 C.ar    1  UNL1       -0.0020
@<TRIPOS>BOND
     1    19    20    1
     2    20    21    2
     3    20    13    1
     4    13    14   ar
     5    14    15   ar
     6    15    16   ar
     7    16    17   ar
     8    17     7    1
     9     7     8   am
    10     8     9    2
    11     8    10   am
    12     1    10    1
    13     1     2    1
    14     2     3    1
    15     3     4    1
    16     4     5    1
    17     5     6    1
    18     6    22    1
    19    22    23    1
    20    23    24    1
    21    24    25    1
    22    25    26    1
    23    26    27    1
    24    27    29    1
    25    29    30    1
    26    30    31   ar
    27    31    32   ar
    28    32    33   ar
    29    33    34    1
    30    33    35   ar
    31    35    36   ar
    32    27    28    1
    33    17    18   ar
    34    18    13   ar
    35     6     1    1
    36    28    23    1
    37    36    30   ar
    38     7    11    1
    39    10    12    1
@<TRIPOS>MOLECULE
*****
 36 39 0 0 0
SMALL
GASTEIGER

@<TRIPOS>ATOM
      1 C         -10.6125  -17.8391   19.7497 C.3     1  UNL1        0.0743
      2 C         -10.7226  -16.5287   19.0280 C.3     1  UNL1        0.0197
      3 C         -11.8541  -15.5942   19.3384 C.3     1  UNL1        0.0017
      4 C         -12.8756  -15.9701   20.3705 C.3     1  UNL1        0.0002
      5 C         -12.7656  -17.2804   21.0922 C.3     1  UNL1        0.0030
      6 C         -11.6340  -18.2149   20.7818 C.3     1  UNL1        0.0340
      7 N          -7.0234  -19.5316   19.8074 N.am    1  UNL1       -0.2683
      8 C          -8.1549  -18.5971   20.1178 C.2     1  UNL1        0.3044
      9 O          -7.9603  -17.4861   21.1067 O.2     1  UNL1       -0.2525
     10 N          -9.4810  -18.7736   19.4393 N.am    1  UNL1       -0.2903
     11 H          -7.1511  -20.2607   19.1583 H       1  UNL1        0.1564
     12 H          -9.6087  -19.5027   18.7902 H       1  UNL1        0.1509
     13 C          -3.1593  -18.8139   20.3590 C.ar    1  UNL1        0.0359
     14 C          -3.0451  -19.0022   21.8427 C.ar    1  UNL1        0.0029
     15 C          -4.2569  -19.3669   22.6480 C.ar    1  UNL1        0.0014
     16 C          -5.5830  -19.5434   21.9696 C.ar    1  UNL1        0.0147
     17 C          -5.6972  -19.3551   20.4859 C.ar    1  UNL1        0.0517
     18 C          -4.4854  -18.9904   19.6806 C.ar    1  UNL1        0.0176
     19 C          -2.0894  -17.5902   18.3323 C.3     1  UNL1        0.0773
     20 C          -1.9475  -18.4492   19.5537 C.2     1  UNL1        0.1735
     21 O          -0.5939  -18.9435   19.9699 O.2     1  UNL1       -0.2913
     22 C         -11.5239  -19.5253   21.5035 C.3     1  UNL1        0.0737
     23 N         -10.8666  -19.5867   22.8505 N.3     1  UNL1       -0.2726
     24 C         -10.3999  -20.9030   23.3979 C.3     1  UNL1        0.0721
     25 C          -9.7426  -20.9644   24.7448 C.3     1  UNL1        0.0174
     26 C          -9.5521  -19.7095   25.5443 C.3     1  UNL1        0.0031
     27 C         -10.0187  -18.3933   24.9968 C.3     1  UNL1        0.0204
     28 C         -10.6760  -18.3319   23.6499 C.3     1  UNL1        0.0724
     29 C          -9.8282  -17.1385   25.7963 C.3     1  UNL1        0.0277
     30 C          -8.4834  -16.4756   25.8424 C.ar    1  UNL1       -0.0220
     31 C          -7.8554  -16.1443   27.1637 C.ar    1  UNL1       -0.0020
     32 C          -6.5107  -15.4813   27.2098 C.ar    1  UNL1        0.0293
     33 C          -5.7939  -15.1496   25.9346 C.ar    1  UNL1        0.1401
     34 F          -4.4491  -14.4866   25.9807 F       1  UNL1       -0.2042
     35 C          -6.4219  -15.4809   24.6133 C.ar    1  UNL1        0.0293
     36 C          -7.7666  -16.1439   24.5671 C.ar    1  UNL1       -0.0020
@<TRIPOS>BOND
     1    19    20    1
     2    20    21    2
     3    20    13    1
     4    13    14   ar
     5    14    15   ar
     6    15    16   ar
     7    16    17   ar
     8    17     7    1
     9     7     8   am
    10     8     9    2
    11     8    10   am
    12     1    10    1
    13     1     2    1
    14     2     3    1
    15     3     4    1
    16     4     5    1
    17     5     6    1
    18     6    22    1
    19    22    23    1
    20    23    24    1
    21    24    25    1
    22    25    26    1
    23    26    27    1
    24    27    29    1
    25    29    30    1
    26    30    31   ar
    27    31    32   ar
    28    32    33   ar
    29    33    34    1
    30    33    35   ar
    31    35    36   ar
    32    27    28    1
    33    17    18   ar
    34    18    13   ar
    35     6     1    1
    36    28    23    1
    37    36    30   ar
    38     7    11    1
    39    10    12    1
@<TRIPOS>MOLECULE
*****
 36 39 0 0 0
SMALL
GASTEIGER

@<TRIPOS>ATOM
      1 C          -2.2903  -17.5649   21.9696 C.3     1  UNL1        0.0743
      2 C          -1.3572  -16.5437   21.3894 C.3     1  UNL1        0.0197
      3 C          -0.8440  -16.7064   19.9894 C.3     1  UNL1        0.0017
      4 C          -1.2639  -17.8903   19.1695 C.3     1  UNL1        0.0002
      5 C          -2.1970  -18.9114   19.7496 C.3     1  UNL1        0.0030
      6 C          -2.7102  -18.7487   21.1498 C.3     1  UNL1        0.0340
      7 N          -4.7193  -16.7620   25.0036 N.am    1  UNL1       -0.2683
      8 C          -4.2061  -16.9247   23.6036 C.2     1  UNL1        0.3044
      9 O          -5.0955  -16.6098   22.4374 O.2     1  UNL1       -0.2525
     10 N          -2.8035  -17.4022   23.3696 N.am    1  UNL1       -0.2903
     11 H          -4.1355  -16.9686   25.7690 H       1  UNL1        0.1564
     12 H          -2.2197  -17.6088   24.1350 H       1  UNL1        0.1509
     13 C          -8.5314  -15.8648   24.3612 C.ar    1  UNL1        0.0359
     14 C          -8.9271  -15.3294   25.7053 C.ar    1  UNL1        0.0029
     15 C          -7.9201  -15.2716   26.8156 C.ar    1  UNL1        0.0014
     16 C          -6.5175  -15.7491   26.5817 C.ar    1  UNL1        0.0147
     17 C          -6.1219  -16.2844   25.2376 C.ar    1  UNL1        0.0517
     18 C          -7.1289  -16.3423   24.1273 C.ar    1  UNL1        0.0176
     19 C          -9.1012  -16.2725   21.8593 C.3     1  UNL1        0.0773
     20 C          -9.5384  -15.9227   23.2509 C.2     1  UNL1        0.1735
     21 O         -10.9825  -15.6307   23.5322 O.2     1  UNL1       -0.2913
     22 C          -3.6433  -19.7698   21.7299 C.3     1  UNL1        0.0737
     23 N          -5.1126  -19.6953   21.4371 N.3     1  UNL1       -0.2726
     24 C          -5.5869  -19.2173   20.0968 C.3     1  UNL1        0.0721
     25 C          -7.0561  -19.1427   19.8041 C.3     1  UNL1        0.0174
     26 C          -8.0510  -19.5463   20.8516 C.3     1  UNL1        0.0031
     27 C          -7.5767  -20.0243   22.1919 C.3     1  UNL1        0.0204
     28 C          -6.1075  -20.0988   22.4847 C.3     1  UNL1        0.0724
     29 C          -8.5716  -20.4278   23.2395 C.3     1  UNL1        0.0277
     30 C          -9.9038  -19.7422   23.3123 C.ar    1  UNL1       -0.0220
     31 C         -10.6880  -19.4920   22.0583 C.ar    1  UNL1       -0.0020
     32 C         -12.0202  -18.8064   22.1311 C.ar    1  UNL1        0.0293
     33 C         -12.5681  -18.3711   23.4578 C.ar    1  UNL1        0.1401
     34 F         -13.9004  -17.6855   23.5306 F       1  UNL1       -0.2042
     35 C         -11.7840  -18.6213   24.7117 C.ar    1  UNL1        0.0293
     36 C         -10.4517  -19.3069   24.6390 C.ar    1  UNL1       -0.0020
@<TRIPOS>BOND
     1    19    20    1
     2    20    21    2
     3    20    13    1
     4    13    14   ar
     5    14    15   ar
     6    15    16   ar
     7    16    17   ar
     8    17     7    1
     9     7     8   am
    10     8     9    2
    11     8    10   am
    12     1    10    1
    13     1     2    1
    14     2     3    1
    15     3     4    1
    16     4     5    1
    17     5     6    1
    18     6    22    1
    19    22    23    1
    20    23    24    1
    21    24    25    1
    22    25    26    1
    23    26    27    1
    24    27    29    1
    25    29    30    1
    26    30    31   ar
    27    31    32   ar
    28    32    33   ar
    29    33    34    1
    30    33    35   ar
    31    35    36   ar
    32    27    28    1
    33    17    18   ar
    34    18    13   ar
    35     6     1    1
    36    28    23    1
    37    36    30   ar
    38     7    11    1
    39    10    12    1
@<TRIPOS>MOLECULE
*****
 36 39 0 0 0
SMALL
GASTEIGER

@<TRIPOS>ATOM
      1 C          -3.3767  -18.6053   21.7221 C.3     1  UNL1        0.0743
      2 C          -2.9550  -18.7810   20.2933 C.3     1  UNL1        0.0197
      3 C          -1.9868  -17.8177   19.6731 C.3     1  UNL1        0.0017
      4 C          -1.4403  -16.6786   20.4817 C.3     1  UNL1        0.0002
      5 C          -1.8620  -16.5028   21.9104 C.3     1  UNL1        0.0030
      6 C          -2.8302  -17.4662   22.5306 C.3     1  UNL1        0.0340
      7 N          -6.7834  -20.3894   22.7023 N.am    1  UNL1       -0.2683
      8 C          -5.8153  -19.4261   22.0821 C.2     1  UNL1        0.3044
      9 O          -6.3174  -18.3203   21.2017 O.2     1  UNL1       -0.2525
     10 N          -4.3448  -19.5686   22.3423 N.am    1  UNL1       -0.2903
     11 H          -6.4538  -21.1152   23.2801 H       1  UNL1        0.1564
     12 H          -4.0152  -20.2943   22.9201 H       1  UNL1        0.1509
     13 C         -10.2076  -19.6597   20.8334 C.ar    1  UNL1        0.0359
     14 C         -11.1945  -19.9621   21.9217 C.ar    1  UNL1        0.0029
     15 C         -10.7111  -20.4069   23.2702 C.ar    1  UNL1        0.0014
     16 C          -9.2408  -20.5493   23.5304 C.ar    1  UNL1        0.0147
     17 C          -8.2538  -20.2470   22.4421 C.ar    1  UNL1        0.0517
     18 C          -8.7372  -19.8022   21.0936 C.ar    1  UNL1        0.0176
     19 C         -10.2152  -19.9178   18.2482 C.3     1  UNL1        0.0773
     20 C         -10.6910  -19.2149   19.4849 C.2     1  UNL1        0.1735
     21 O         -11.6502  -18.0671   19.3731 O.2     1  UNL1       -0.2913
     22 C          -3.2519  -17.2904   23.9593 C.3     1  UNL1        0.0737
     23 N          -4.5319  -16.5775   24.2813 N.3     1  UNL1       -0.2726
     24 C          -4.7903  -16.0939   25.6774 C.3     1  UNL1        0.0721
     25 C          -6.0703  -15.3811   25.9993 C.3     1  UNL1        0.0174
     26 C          -7.0918  -15.1520   24.9250 C.3     1  UNL1        0.0031
     27 C          -6.8333  -15.6356   23.5288 C.3     1  UNL1        0.0204
     28 C          -5.5534  -16.3484   23.2070 C.3     1  UNL1        0.0724
     29 C          -7.8548  -15.4065   22.4546 C.3     1  UNL1        0.0277
     30 C          -9.2527  -15.9226   22.6264 C.ar    1  UNL1       -0.0220
     31 C          -9.6080  -16.7377   23.8345 C.ar    1  UNL1       -0.0020
     32 C         -11.0058  -17.2538   24.0064 C.ar    1  UNL1        0.0293
     33 C         -12.0484  -16.9549   22.9702 C.ar    1  UNL1        0.1401
     34 F         -13.4464  -17.4710   23.1422 F       1  UNL1       -0.2042
     35 C         -11.6932  -16.1398   21.7622 C.ar    1  UNL1        0.0293
     36 C         -10.2952  -15.6236   21.5903 C.ar    1  UNL1       -0.0020
@<TRIPOS>BOND
     1    19    20    1
     2    20    21    2
     3    20    13    1
     4    13    14   ar
     5    14    15   ar
     6    15    16   ar
     7    16    17   ar
     8    17     7    1
     9     7     8   am
    10     8     9    2
    11     8    10   am
    12     1    10    1
    13     1     2    1
    14     2     3    1
    15     3     4    1
    16     4     5    1
    17     5     6    1
    18     6    22    1
    19    22    23    1
    20    23    24    1
    21    24    25    1
    22    25    26    1
    23    26    27    1
    24    27    29    1
    25    29    30    1
    26    30    31   ar
    27    31    32   ar
    28    32    33   ar
    29    33    34    1
    30    33    35   ar
    31    35    36   ar
    32    27    28    1
    33    17    18   ar
    34    18    13   ar
    35     6     1    1
    36    28    23    1
    37    36    30   ar
    38     7    11    1
    39    10    12    1
@<TRIPOS>MOLECULE
*****
 36 39 0 0 0
SMALL
GASTEIGER

@<TRIPOS>ATOM
      1 C          -6.0829  -15.2543   25.0510 C.3     1  UNL1        0.0743
      2 C          -5.8301  -15.3353   26.5274 C.3     1  UNL1        0.0197
      3 C          -6.9592  -15.6425   27.4658 C.3     1  UNL1        0.0017
      4 C          -8.3411  -15.8689   26.9280 C.3     1  UNL1        0.0002
      5 C          -8.5938  -15.7880   25.4516 C.3     1  UNL1        0.0030
      6 C          -7.4647  -15.4807   24.5131 C.3     1  UNL1        0.0340
      7 N          -3.2141  -15.7353   22.3512 N.am    1  UNL1       -0.2683
      8 C          -4.3432  -16.0425   23.2897 C.2     1  UNL1        0.3044
      9 O          -4.8617  -17.4453   23.4053 O.2     1  UNL1       -0.2525
     10 N          -4.9538  -14.9470   24.1126 N.am    1  UNL1       -0.2903
     11 H          -2.8739  -14.8146   22.2753 H       1  UNL1        0.1564
     12 H          -4.6135  -14.0263   24.0367 H       1  UNL1        0.1509
     13 C          -2.7636  -19.1863   20.4441 C.ar    1  UNL1        0.0359
     14 C          -1.3824  -19.0217   19.8827 C.ar    1  UNL1        0.0029
     15 C          -0.6118  -17.7617   20.1441 C.ar    1  UNL1        0.0014
     16 C          -1.2224  -16.6662   20.9669 C.ar    1  UNL1        0.0147
     17 C          -2.6035  -16.8308   21.5283 C.ar    1  UNL1        0.0517
     18 C          -3.3741  -18.0909   21.2669 C.ar    1  UNL1        0.0176
     19 C          -5.0280  -20.4538   20.3182 C.3     1  UNL1        0.0773
     20 C          -3.5342  -20.4464   20.1827 C.2     1  UNL1        0.1735
     21 O          -2.8110  -21.6992   19.7858 O.2     1  UNL1       -0.2913
     22 C          -7.7174  -15.3997   23.0368 C.3     1  UNL1        0.0737
     23 N          -8.2855  -16.5809   22.3073 N.3     1  UNL1       -0.2726
     24 C          -7.3720  -17.5286   21.5881 C.3     1  UNL1        0.0721
     25 C          -7.9401  -18.7097   20.8586 C.3     1  UNL1        0.0174
     26 C          -9.4218  -18.9431   20.8484 C.3     1  UNL1        0.0031
     27 C         -10.3354  -17.9955   21.5676 C.3     1  UNL1        0.0204
     28 C          -9.7672  -16.8144   22.2970 C.3     1  UNL1        0.0724
     29 C         -11.8171  -18.2289   21.5573 C.3     1  UNL1        0.0277
     30 C         -12.5677  -18.3405   22.8511 C.ar    1  UNL1       -0.0220
     31 C         -14.0445  -18.0799   22.8864 C.ar    1  UNL1       -0.0020
     32 C         -14.7951  -18.1915   24.1802 C.ar    1  UNL1        0.0293
     33 C         -14.0691  -18.5638   25.4388 C.ar    1  UNL1        0.1401
     34 F         -14.8198  -18.6754   26.7327 F       1  UNL1       -0.2042
     35 C         -12.5923  -18.8245   25.4037 C.ar    1  UNL1        0.0293
     36 C         -11.8416  -18.7128   24.1098 C.ar    1  UNL1       -0.0020
@<TRIPOS>BOND
     1    19    20    1
     2    20    21    2
     3    20    13    1
     4    13    14   ar
     5    14    15   ar
     6    15    16   ar
     7    16    17   ar
     8    17     7    1
     9     7     8   am
    10     8     9    2
    11     8    10   am
    12     1    10    1
    13     1     2    1
    14     2     3    1
    15     3     4    1
    16     4     5    1
    17     5     6    1
    18     6    22    1
    19    22    23    1
    20    23    24    1
    21    24    25    1
    22    25    26    1
    23    26    27    1
    24    27    29    1
    25    29    30    1
    26    30    31   ar
    27    31    32   ar
    28    32    33   ar
    29    33    34    1
    30    33    35   ar
    31    35    36   ar
    32    27    28    1
    33    17    18   ar
    34    18    13   ar
    35     6     1    1
    36    28    23    1
    37    36    30   ar
    38     7    11    1
    39    10    12    1
@<TRIPOS>MOLECULE
*****
 36 39 0 0 0
SMALL
GASTEIGER

@<TRIPOS>ATOM
      1 C          -2.0254  -16.6807   20.8689 C.3     1  UNL1        0.0743
      2 C          -0.5844  -16.6679   21.2853 C.3     1  UNL1        0.0197
      3 C           0.3644  -17.6909   20.7349 C.3     1  UNL1        0.0017
      4 C          -0.1277  -18.7269   19.7680 C.3     1  UNL1        0.0002
      5 C          -1.5686  -18.7397   19.3516 C.3     1  UNL1        0.0030
      6 C          -2.5175  -17.7166   19.9020 C.3     1  UNL1        0.0340
      7 N          -4.8255  -14.9880   23.1147 N.am    1  UNL1       -0.2683
      8 C          -3.8767  -16.0110   22.5643 C.2     1  UNL1        0.3044
      9 O          -3.8301  -17.3873   23.1589 O.2     1  UNL1       -0.2525
     10 N          -2.9743  -15.6577   21.4193 N.am    1  UNL1       -0.2903
     11 H          -4.8561  -14.0846   22.7245 H       1  UNL1        0.1564
     12 H          -3.0049  -14.7544   21.0290 H       1  UNL1        0.1509
     13 C          -7.9724  -16.3095   25.1397 C.ar    1  UNL1        0.0359
     14 C          -7.5325  -16.0478   26.5496 C.ar    1  UNL1        0.0029
     15 C          -6.1903  -15.4329   26.8146 C.ar    1  UNL1        0.0014
     16 C          -5.2880  -15.0796   25.6697 C.ar    1  UNL1        0.0147
     17 C          -5.7279  -15.3413   24.2597 C.ar    1  UNL1        0.0517
     18 C          -7.0701  -15.9562   23.9948 C.ar    1  UNL1        0.0176
     19 C          -9.7106  -18.1910   25.5741 C.3     1  UNL1        0.0773
     20 C          -9.3147  -16.9245   24.8747 C.2     1  UNL1        0.1735
     21 O         -10.2610  -16.2729   23.9104 O.2     1  UNL1       -0.2913
     22 C          -3.9585  -17.7295   19.4856 C.3     1  UNL1        0.0737
     23 N          -4.9228  -18.6672   20.1497 N.3     1  UNL1       -0.2726
     24 C          -4.4992  -19.4454   21.3600 C.3     1  UNL1        0.0721
     25 C          -5.4634  -20.3831   22.0240 C.3     1  UNL1        0.0174
     26 C          -6.8512  -20.5426   21.4776 C.3     1  UNL1        0.0031
     27 C          -7.2748  -19.7645   20.2673 C.3     1  UNL1        0.0204
     28 C          -6.3106  -18.8268   19.6033 C.3     1  UNL1        0.0724
     29 C          -8.6626  -19.9240   19.7209 C.3     1  UNL1        0.0277
     30 C          -9.8307  -19.3387   20.4578 C.ar    1  UNL1       -0.0220
     31 C         -10.2178  -19.8810   21.8017 C.ar    1  UNL1       -0.0020
     32 C         -11.3858  -19.2956   22.5386 C.ar    1  UNL1        0.0293
     33 C         -12.1668  -18.1679   21.9316 C.ar    1  UNL1        0.1401
     34 F         -13.3349  -17.5826   22.6685 F       1  UNL1       -0.2042
     35 C         -11.7797  -17.6256   20.5877 C.ar    1  UNL1        0.0293
     36 C         -10.6116  -18.2110   19.8508 C.ar    1  UNL1       -0.0020
@<TRIPOS>BOND
     1    19    20    1
     2    20    21    2
     3    20    13    1
     4    13    14   ar
     5    14    15   ar
     6    15    16   ar
     7    16    17   ar
     8    17     7    1
     9     7     8   am
    10     8     9    2
    11     8    10   am
    12     1    10    1
    13     1     2    1
    14     2     3    1
    15     3     4    1
    16     4     5    1
    17     5     6    1
    18     6    22    1
    19    22    23    1
    20    23    24    1
    21    24    25    1
    22    25    26    1
    23    26    27    1
    24    27    29    1
    25    29    30    1
    26    30    31   ar
    27    31    32   ar
    28    32    33   ar
    29    33    34    1
    30    33    35   ar
    31    35    36   ar
    32    27    28    1
    33    17    18   ar
    34    18    13   ar
    35     6     1    1
    36    28    23    1
    37    36    30   ar
    38     7    11    1
    39    10    12    1
@<TRIPOS>MOLECULE
*****
 36 39 0 0 0
SMALL
GASTEIGER

@<TRIPOS>ATOM
      1 C           2.1116    1.6494   24.5999 C.3     1  UNL1        0.0743
      2 C           1.9183    1.1499   26.0010 C.3     1  UNL1        0.0197
      3 C           0.5784    1.2744   26.6635 C.3     1  UNL1        0.0017
      4 C          -0.5685    1.8984   25.9249 C.3     1  UNL1        0.0002
      5 C          -0.3752    2.3979   24.5237 C.3     1  UNL1        0.0030
      6 C           0.9649    2.2734   23.8613 C.3     1  UNL1        0.0340
      7 N           5.2608    0.0657   22.7768 N.am    1  UNL1       -0.2683
      8 C           3.9209    0.1901   23.4392 C.2     1  UNL1        0.3044
      9 O           3.0501   -1.0202   23.6036 O.2     1  UNL1       -0.2525
     10 N           3.4516    1.5250   23.9374 N.am    1  UNL1       -0.2903
     11 H           5.8323    0.8600   22.6689 H       1  UNL1        0.1564
     12 H           4.0230    2.3193   23.8295 H       1  UNL1        0.1509
     13 C           5.3703   -3.3694   20.7922 C.ar    1  UNL1        0.0359
     14 C           6.6686   -3.9387   21.2823 C.ar    1  UNL1        0.0029
     15 C           7.4977   -3.1732   22.2705 C.ar    1  UNL1        0.0014
     16 C           7.0285   -1.8384   22.7687 C.ar    1  UNL1        0.0147
     17 C           5.7301   -1.2692   22.2786 C.ar    1  UNL1        0.0517
     18 C           4.9010   -2.0347   21.2904 C.ar    1  UNL1        0.0176
     19 C           3.2888   -3.5270   19.2454 C.3     1  UNL1        0.0773
     20 C           4.5412   -4.1349   19.8040 C.2     1  UNL1        0.1735
     21 O           4.9645   -5.5083   19.3743 O.2     1  UNL1       -0.2913
     22 C           1.1581    2.7730   22.4601 C.3     1  UNL1        0.0737
     23 N           1.4801    1.8081   21.3576 N.3     1  UNL1       -0.2726
     24 C           0.6206    0.5972   21.1459 C.3     1  UNL1        0.0721
     25 C           0.9426   -0.3676   20.0435 C.3     1  UNL1        0.0174
     26 C           2.1241   -0.1214   19.1527 C.3     1  UNL1        0.0031
     27 C           2.9836    1.0895   19.3644 C.3     1  UNL1        0.0204
     28 C           2.6616    2.0543   20.4668 C.3     1  UNL1        0.0724
     29 C           4.1651    1.3356   18.4736 C.3     1  UNL1        0.0277
     30 C           5.3725    0.4507   18.5676 C.ar    1  UNL1       -0.0220
     31 C           6.5276    0.8479   19.4383 C.ar    1  UNL1       -0.0020
     32 C           7.7350   -0.0371   19.5323 C.ar    1  UNL1        0.0293
     33 C           7.7875   -1.3193   18.7556 C.ar    1  UNL1        0.1401
     34 F           8.9950   -2.2042   18.8497 F       1  UNL1       -0.2042
     35 C           6.6325   -1.7165   17.8850 C.ar    1  UNL1        0.0293
     36 C           5.4249   -0.8315   17.7909 C.ar    1  UNL1       -0.0020
@<TRIPOS>BOND
     1    19    20    1
     2    20    21    2
     3    20    13    1
     4    13    14   ar
     5    14    15   ar
     6    15    16   ar
     7    16    17   ar
     8    17     7    1
     9     7     8   am
    10     8     9    2
    11     8    10   am
    12     1    10    1
    13     1     2    1
    14     2     3    1
    15     3     4    1
    16     4     5    1
    17     5     6    1
    18     6    22    1
    19    22    23    1
    20    23    24    1
    21    24    25    1
    22    25    26    1
    23    26    27    1
    24    27    29    1
    25    29    30    1
    26    30    31   ar
    27    31    32   ar
    28    32    33   ar
    29    33    34    1
    30    33    35   ar
    31    35    36   ar
    32    27    28    1
    33    17    18   ar
    34    18    13   ar
    35     6     1    1
    36    28    23    1
    37    36    30   ar
    38     7    11    1
    39    10    12    1
@<TRIPOS>MOLECULE
*****
 36 39 0 0 0
SMALL
GASTEIGER

@<TRIPOS>ATOM
      1 C           6.9069   -3.3230   23.6473 C.3     1  UNL1        0.0743
      2 C           6.5493   -3.7812   25.0301 C.3     1  UNL1        0.0197
      3 C           6.9870   -5.1337   25.5088 C.3     1  UNL1        0.0017
      4 C           7.7822   -6.0282   24.6045 C.3     1  UNL1        0.0002
      5 C           8.1398   -5.5700   23.2217 C.3     1  UNL1        0.0030
      6 C           7.7021   -4.2174   22.7431 C.3     1  UNL1        0.0340
      7 N           4.6248   -0.4103   22.2127 N.am    1  UNL1       -0.2683
      8 C           5.0625   -1.7629   22.6913 C.2     1  UNL1        0.3044
      9 O           4.0934   -2.9078   22.6925 O.2     1  UNL1       -0.2525
     10 N           6.4693   -1.9705   23.1687 N.am    1  UNL1       -0.2903
     11 H           5.2609    0.3411   22.2119 H       1  UNL1        0.1564
     12 H           7.1053   -1.2191   23.1679 H       1  UNL1        0.1509
     13 C           0.9783    1.1100   21.8367 C.ar    1  UNL1        0.0359
     14 C           0.4046    0.2127   20.7805 C.ar    1  UNL1        0.0029
     15 C           1.2376   -0.8923   20.2017 C.ar    1  UNL1        0.0014
     16 C           2.6443   -1.1000   20.6791 C.ar    1  UNL1        0.0147
     17 C           3.2180   -0.2027   21.7352 C.ar    1  UNL1        0.0517
     18 C           2.3850    0.9023   22.3140 C.ar    1  UNL1        0.0176
     19 C          -0.7138    3.0556   21.5181 C.3     1  UNL1        0.0773
     20 C           0.1453    2.2151   22.4155 C.2     1  UNL1        0.1735
     21 O           0.1714    2.4795   23.8917 O.2     1  UNL1       -0.2913
     22 C           8.0597   -3.7593   21.3602 C.3     1  UNL1        0.0737
     23 N           6.9771   -3.4559   20.3673 N.3     1  UNL1       -0.2726
     24 C           5.8992   -4.4645   20.1013 C.3     1  UNL1        0.0721
     25 C           4.8167   -4.1611   19.1083 C.3     1  UNL1        0.0174
     26 C           4.8120   -2.8491   18.3814 C.3     1  UNL1        0.0031
     27 C           5.8898   -1.8404   18.6474 C.3     1  UNL1        0.0204
     28 C           6.9724   -2.1438   19.6403 C.3     1  UNL1        0.0724
     29 C           5.8851   -0.5283   17.9204 C.3     1  UNL1        0.0277
     30 C           4.9959    0.5853   18.3885 C.ar    1  UNL1       -0.0220
     31 C           5.5101    1.5913   19.3753 C.ar    1  UNL1       -0.0020
     32 C           4.6208    2.7049   19.8434 C.ar    1  UNL1        0.0293
     33 C           3.2174    2.8125   19.3248 C.ar    1  UNL1        0.1401
     34 F           2.3282    3.9262   19.7930 F       1  UNL1       -0.2042
     35 C           2.7033    1.8065   18.3381 C.ar    1  UNL1        0.0293
     36 C           3.5925    0.6928   17.8700 C.ar    1  UNL1       -0.0020
@<TRIPOS>BOND
     1    19    20    1
     2    20    21    2
     3    20    13    1
     4    13    14   ar
     5    14    15   ar
     6    15    16   ar
     7    16    17   ar
     8    17     7    1
     9     7     8   am
    10     8     9    2
    11     8    10   am
    12     1    10    1
    13     1     2    1
    14     2     3    1
    15     3     4    1
    16     4     5    1
    17     5     6    1
    18     6    22    1
    19    22    23    1
    20    23    24    1
    21    24    25    1
    22    25    26    1
    23    26    27    1
    24    27    29    1
    25    29    30    1
    26    30    31   ar
    27    31    32   ar
    28    32    33   ar
    29    33    34    1
    30    33    35   ar
    31    35    36   ar
    32    27    28    1
    33    17    18   ar
    34    18    13   ar
    35     6     1    1
    36    28    23    1
    37    36    30   ar
    38     7    11    1
    39    10    12    1
