@<TRIPOS>MOLECULE
*****
 34 36 0 0 0
SMALL
GASTEIGER

@<TRIPOS>ATOM
      1 C          -7.9688  -18.4725   21.6029 C.ar    1  UNL1        0.0764
      2 C          -7.7069  -17.3222   22.5294 C.ar    1  UNL1        0.0522
      3 C          -8.5692  -16.0965   22.4655 C.ar    1  UNL1        0.1515
      4 N          -9.6932  -16.0210   21.4752 N.ar    1  UNL1       -0.1329
      5 N          -9.9551  -17.1712   20.5487 N.ar    1  UNL1       -0.1409
      6 C          -9.0928  -18.3970   20.6125 C.ar    1  UNL1        0.1691
      7 C          -9.3547  -19.5472   19.6861 C.2     1  UNL1        0.2635
      8 N         -10.7634  -19.9823   19.4101 N.am    1  UNL1       -0.3240
      9 O          -8.2078  -20.2623   19.0355 O.2     1  UNL1       -0.2686
     10 H         -11.5162  -19.5129   19.8371 H       1  UNL1        0.1453
     11 H         -10.9353  -20.7372   18.8020 H       1  UNL1        0.1453
     12 N          -7.1066  -19.6982   21.6667 N.pl3   1  UNL1       -0.2964
     13 H          -7.5056  -20.5695   21.8922 H       1  UNL1        0.1537
     14 C          -2.6960  -19.3929   20.8275 C.ar    1  UNL1        0.1917
     15 C          -3.5305  -20.4022   20.0962 C.ar    1  UNL1        0.0446
     16 C          -5.0007  -20.5040   20.3760 C.ar    1  UNL1        0.0377
     17 C          -5.6364  -19.5965   21.3870 C.ar    1  UNL1        0.1355
     18 N          -4.8019  -18.5871   22.1183 N.ar    1  UNL1       -0.1940
     19 C          -3.3317  -18.4854   21.8386 C.ar    1  UNL1        0.2612
     20 C          -0.7094  -18.2243   19.6285 C.3     1  UNL1        0.2527
     21 O          -1.2259  -19.2912   20.5478 O.3     1  UNL1       -0.4667
     22 O          -2.4972  -17.4760   22.5699 O.3     1  UNL1       -0.4541
     23 C          -2.2972  -16.1070   21.9904 C.3     1  UNL1        0.2543
     24 N          -8.3073  -14.9462   23.3920 N.pl3   1  UNL1       -0.3170
     25 H          -8.5589  -14.0324   23.1256 H       1  UNL1        0.1482
     26 C          -7.6622  -15.1882   24.7244 C.3     1  UNL1        0.0845
     27 C          -8.5112  -15.4671   25.9292 C.3     1  UNL1        0.0209
     28 C          -7.8661  -15.7091   27.2616 C.3     1  UNL1        0.0018
     29 C          -6.3719  -15.6722   27.3892 C.3     1  UNL1        0.0015
     30 C          -5.5230  -15.3933   26.1844 C.3     1  UNL1        0.0172
     31 C          -6.1681  -15.1513   24.8520 C.3     1  UNL1        0.0689
     32 N          -5.3192  -14.8725   23.6473 N.3     1  UNL1       -0.3209
     33 H          -5.9186  -14.7333   22.8338 H       1  UNL1        0.1189
     34 H          -4.6966  -15.6629   23.4797 H       1  UNL1        0.1189
@<TRIPOS>BOND
     1    20    21    1
     2    21    14    1
     3    14    15   ar
     4    15    16   ar
     5    16    17   ar
     6    17    12    1
     7    12     1    1
     8     1     2   ar
     9     2     3   ar
    10     3    24    1
    11    26    24    1
    12    26    27    1
    13    27    28    1
    14    28    29    1
    15    29    30    1
    16    30    31    1
    17    31    32    1
    18     3     4   ar
    19     4     5   ar
    20     5     6   ar
    21     6     7    1
    22     7     8   am
    23     7     9    2
    24    17    18   ar
    25    18    19   ar
    26    19    22    1
    27    22    23    1
    28    19    14   ar
    29     6     1   ar
    30    31    26    1
    31    12    13    1
    32    24    25    1
    33    32    33    1
    34    32    34    1
    35     8    10    1
    36     8    11    1
@<TRIPOS>MOLECULE
*****
 34 36 0 0 0
SMALL
GASTEIGER

@<TRIPOS>ATOM
      1 C          -4.9163  -18.6757   22.2893 C.ar    1  UNL1        0.0764
      2 C          -5.4008  -17.5031   23.0896 C.ar    1  UNL1        0.0522
      3 C          -4.5333  -16.2888   23.2413 C.ar    1  UNL1        0.1515
      4 N          -3.1814  -16.2470   22.5927 N.ar    1  UNL1       -0.1329
      5 N          -2.6970  -17.4196   21.7925 N.ar    1  UNL1       -0.1409
      6 C          -3.5644  -18.6339   21.6407 C.ar    1  UNL1        0.1691
      7 C          -3.0800  -19.8064   20.8405 C.2     1  UNL1        0.2635
      8 N          -3.8812  -20.2995   19.6722 N.am    1  UNL1       -0.3240
      9 O          -1.7944  -20.4858   21.2085 O.2     1  UNL1       -0.2686
     10 H          -4.7250  -19.8536   19.4306 H       1  UNL1        0.1453
     11 H          -3.5632  -21.0691   19.1469 H       1  UNL1        0.1453
     12 N          -5.7838  -19.8899   22.1376 N.pl3   1  UNL1       -0.2964
     13 H          -5.3960  -20.7884   22.2449 H       1  UNL1        0.1537
     14 C         -10.1587  -19.4259   21.1920 C.ar    1  UNL1        0.1917
     15 C          -9.1347  -19.2478   20.1106 C.ar    1  UNL1        0.0446
     16 C          -7.6764  -19.4025   20.4258 C.ar    1  UNL1        0.0377
     17 C          -7.2421  -19.7352   21.8224 C.ar    1  UNL1        0.1355
     18 N          -8.2662  -19.9133   22.9038 N.ar    1  UNL1       -0.1940
     19 C          -9.7245  -19.7586   22.5886 C.ar    1  UNL1        0.2612
     20 C         -12.3164  -17.9787   21.1773 C.3     1  UNL1        0.2527
     21 O         -11.6171  -19.2712   20.8768 O.3     1  UNL1       -0.4667
     22 O         -10.7486  -19.9367   23.6701 O.3     1  UNL1       -0.4541
     23 C         -11.0559  -18.8052   24.6056 C.3     1  UNL1        0.2543
     24 N          -5.0178  -15.1162   24.0416 N.pl3   1  UNL1       -0.3170
     25 H          -4.6069  -14.2305   23.9152 H       1  UNL1        0.1482
     26 C          -6.1281  -15.2931   25.0344 C.3     1  UNL1        0.0845
     27 C          -5.8141  -15.6740   26.4509 C.3     1  UNL1        0.0209
     28 C          -6.9245  -15.8510   27.4438 C.3     1  UNL1        0.0018
     29 C          -8.3489  -15.6470   27.0201 C.3     1  UNL1        0.0015
     30 C          -8.6629  -15.2662   25.6037 C.3     1  UNL1        0.0172
     31 C          -7.5525  -15.0892   24.6109 C.3     1  UNL1        0.0689
     32 N          -7.8665  -14.7084   23.1945 N.3     1  UNL1       -0.3209
     33 H          -6.9995  -14.6320   22.6627 H       1  UNL1        0.1189
     34 H          -8.3523  -13.8115   23.1832 H       1  UNL1        0.1189
@<TRIPOS>BOND
     1    20    21    1
     2    21    14    1
     3    14    15   ar
     4    15    16   ar
     5    16    17   ar
     6    17    12    1
     7    12     1    1
     8     1     2   ar
     9     2     3   ar
    10     3    24    1
    11    26    24    1
    12    26    27    1
    13    27    28    1
    14    28    29    1
    15    29    30    1
    16    30    31    1
    17    31    32    1
    18     3     4   ar
    19     4     5   ar
    20     5     6   ar
    21     6     7    1
    22     7     8   am
    23     7     9    2
    24    17    18   ar
    25    18    19   ar
    26    19    22    1
    27    22    23    1
    28    19    14   ar
    29     6     1   ar
    30    31    26    1
    31    12    13    1
    32    24    25    1
    33    32    33    1
    34    32    34    1
    35     8    10    1
    36     8    11    1
@<TRIPOS>MOLECULE
*****
 34 36 0 0 0
SMALL
GASTEIGER

@<TRIPOS>ATOM
      1 C          -8.7204  -19.2914   21.7265 C.ar    1  UNL1        0.0764
      2 C          -7.3044  -19.7829   21.7871 C.ar    1  UNL1        0.0522
      3 C          -6.4889  -19.8774   20.5317 C.ar    1  UNL1        0.1515
      4 N          -7.0893  -19.4805   19.2157 N.ar    1  UNL1       -0.1329
      5 N          -8.5052  -18.9890   19.1550 N.ar    1  UNL1       -0.1409
      6 C          -9.3207  -18.8945   20.4104 C.ar    1  UNL1        0.1691
      7 C         -10.7366  -18.4030   20.3498 C.2     1  UNL1        0.2635
      8 N         -11.0553  -17.1193   19.6422 N.am    1  UNL1       -0.3240
      9 O         -11.8338  -19.1953   20.9966 O.2     1  UNL1       -0.2686
     10 H         -10.3351  -16.5994   19.2177 H       1  UNL1        0.1453
     11 H         -11.9846  -16.7968   19.6024 H       1  UNL1        0.1453
     12 N          -9.5358  -19.1969   22.9819 N.pl3   1  UNL1       -0.2964
     13 H         -10.3099  -19.7911   23.1119 H       1  UNL1        0.1537
     14 C          -8.4441  -16.1972   26.1536 C.ar    1  UNL1        0.1917
     15 C          -9.3154  -17.3688   26.4975 C.ar    1  UNL1        0.0446
     16 C          -9.6793  -18.3687   25.4402 C.ar    1  UNL1        0.0377
     17 C          -9.1719  -18.1970   24.0391 C.ar    1  UNL1        0.1355
     18 N          -8.3007  -17.0254   23.6953 N.ar    1  UNL1       -0.1940
     19 C          -7.9368  -16.0255   24.7526 C.ar    1  UNL1        0.2612
     20 C          -6.6590  -15.0817   27.6764 C.3     1  UNL1        0.2527
     21 O          -8.0802  -15.1973   27.2109 O.3     1  UNL1       -0.4667
     22 O          -7.0655  -14.8539   24.4087 O.3     1  UNL1       -0.4541
     23 C          -5.6338  -15.0728   24.0186 C.3     1  UNL1        0.2543
     24 N          -5.0730  -20.3689   20.5924 N.pl3   1  UNL1       -0.3170
     25 H          -4.8896  -21.3320   20.6820 H       1  UNL1        0.1482
     26 C          -3.9364  -19.3929   20.5164 C.3     1  UNL1        0.0845
     27 C          -3.2816  -19.1053   19.1978 C.3     1  UNL1        0.0209
     28 C          -2.1451  -18.1293   19.1218 C.3     1  UNL1        0.0018
     29 C          -1.6634  -17.4409   20.3645 C.3     1  UNL1        0.0015
     30 C          -2.3182  -17.7285   21.6830 C.3     1  UNL1        0.0172
     31 C          -3.4547  -18.7045   21.7590 C.3     1  UNL1        0.0689
     32 N          -4.1095  -18.9920   23.0775 N.3     1  UNL1       -0.3209
     33 H          -4.8569  -19.6733   22.9445 H       1  UNL1        0.1189
     34 H          -4.4991  -18.1300   23.4588 H       1  UNL1        0.1189
@<TRIPOS>BOND
     1    20    21    1
     2    21    14    1
     3    14    15   ar
     4    15    16   ar
     5    16    17   ar
     6    17    12    1
     7    12     1    1
     8     1     2   ar
     9     2     3   ar
    10     3    24    1
    11    26    24    1
    12    26    27    1
    13    27    28    1
    14    28    29    1
    15    29    30    1
    16    30    31    1
    17    31    32    1
    18     3     4   ar
    19     4     5   ar
    20     5     6   ar
    21     6     7    1
    22     7     8   am
    23     7     9    2
    24    17    18   ar
    25    18    19   ar
    26    19    22    1
    27    22    23    1
    28    19    14   ar
    29     6     1   ar
    30    31    26    1
    31    12    13    1
    32    24    25    1
    33    32    33    1
    34    32    34    1
    35     8    10    1
    36     8    11    1
@<TRIPOS>MOLECULE
*****
 34 36 0 0 0
SMALL
GASTEIGER

@<TRIPOS>ATOM
      1 C          -7.2136  -18.9071   20.7473 C.ar    1  UNL1        0.0764
      2 C          -5.8523  -18.7951   21.3674 C.ar    1  UNL1        0.0522
      3 C          -4.8281  -19.8642   21.1263 C.ar    1  UNL1        0.1515
      4 N          -5.1652  -21.0453   20.2653 N.ar    1  UNL1       -0.1329
      5 N          -6.5264  -21.1573   19.6452 N.ar    1  UNL1       -0.1409
      6 C          -7.5507  -20.0881   19.8862 C.ar    1  UNL1        0.1691
      7 C          -8.9119  -20.2001   19.2661 C.2     1  UNL1        0.2635
      8 N          -9.0750  -20.8604   17.9292 N.am    1  UNL1       -0.3240
      9 O         -10.1099  -19.6519   19.9830 O.2     1  UNL1       -0.2686
     10 H          -8.2886  -21.2202   17.4587 H       1  UNL1        0.1453
     11 H          -9.9684  -20.9339   17.5222 H       1  UNL1        0.1453
     12 N          -8.2377  -17.8380   20.9883 N.pl3   1  UNL1       -0.2964
     13 H          -8.8330  -17.5529   20.2578 H       1  UNL1        0.1537
     14 C          -8.5895  -15.9339   25.0504 C.ar    1  UNL1        0.1917
     15 C          -9.6602  -16.8644   24.5630 C.ar    1  UNL1        0.0446
     16 C          -9.5430  -17.4991   23.2090 C.ar    1  UNL1        0.0377
     17 C          -8.3550  -17.2033   22.3424 C.ar    1  UNL1        0.1355
     18 N          -7.2842  -16.2728   22.8298 N.ar    1  UNL1       -0.1940
     19 C          -7.4015  -15.6381   24.1838 C.ar    1  UNL1        0.2612
     20 C          -8.2469  -16.0424   27.6235 C.3     1  UNL1        0.2527
     21 O          -8.7067  -15.2992   26.4045 O.3     1  UNL1       -0.4667
     22 O          -6.3306  -14.7076   24.6712 O.3     1  UNL1       -0.4541
     23 C          -5.2640  -15.2113   25.5978 C.3     1  UNL1        0.2543
     24 N          -3.4669  -19.7523   21.7464 N.pl3   1  UNL1       -0.3170
     25 H          -3.1985  -20.3746   22.4605 H       1  UNL1        0.1482
     26 C          -2.5144  -18.6922   21.2784 C.3     1  UNL1        0.0845
     27 C          -1.5013  -19.0090   20.2185 C.3     1  UNL1        0.0209
     28 C          -0.5489  -17.9489   19.7505 C.3     1  UNL1        0.0018
     29 C          -0.6096  -16.5719   20.3424 C.3     1  UNL1        0.0015
     30 C          -1.6226  -16.2551   21.4023 C.3     1  UNL1        0.0172
     31 C          -2.5751  -17.3152   21.8703 C.3     1  UNL1        0.0689
     32 N          -3.5881  -16.9984   22.9301 N.3     1  UNL1       -0.3209
     33 H          -4.1478  -17.8287   23.1245 H       1  UNL1        0.1189
     34 H          -4.1963  -16.2468   22.6053 H       1  UNL1        0.1189
@<TRIPOS>BOND
     1    20    21    1
     2    21    14    1
     3    14    15   ar
     4    15    16   ar
     5    16    17   ar
     6    17    12    1
     7    12     1    1
     8     1     2   ar
     9     2     3   ar
    10     3    24    1
    11    26    24    1
    12    26    27    1
    13    27    28    1
    14    28    29    1
    15    29    30    1
    16    30    31    1
    17    31    32    1
    18     3     4   ar
    19     4     5   ar
    20     5     6   ar
    21     6     7    1
    22     7     8   am
    23     7     9    2
    24    17    18   ar
    25    18    19   ar
    26    19    22    1
    27    22    23    1
    28    19    14   ar
    29     6     1   ar
    30    31    26    1
    31    12    13    1
    32    24    25    1
    33    32    33    1
    34    32    34    1
    35     8    10    1
    36     8    11    1
@<TRIPOS>MOLECULE
*****
 34 36 0 0 0
SMALL
GASTEIGER

@<TRIPOS>ATOM
      1 C          -9.5174  -17.4609   20.8212 C.ar    1  UNL1        0.0764
      2 C          -8.2337  -18.2193   20.6562 C.ar    1  UNL1        0.0522
      3 C          -8.2155  -19.5032   19.8809 C.ar    1  UNL1        0.1515
      4 N          -9.4808  -20.0288   19.2704 N.ar    1  UNL1       -0.1329
      5 N         -10.7644  -19.2705   19.4353 N.ar    1  UNL1       -0.1409
      6 C         -10.7827  -17.9865   20.2107 C.ar    1  UNL1        0.1691
      7 C         -12.0664  -17.2282   20.3756 C.2     1  UNL1        0.2635
      8 N         -13.0782  -17.6774   21.3878 N.am    1  UNL1       -0.3240
      9 O         -12.3382  -16.0206   19.5284 O.2     1  UNL1       -0.2686
     10 H         -12.8997  -18.4700   21.9439 H       1  UNL1        0.1453
     11 H         -13.9207  -17.1797   21.4960 H       1  UNL1        0.1453
     12 N          -9.5357  -16.1770   21.5965 N.pl3   1  UNL1       -0.2964
     13 H         -10.0541  -15.4088   21.2645 H       1  UNL1        0.1537
     14 C          -7.2207  -15.8366   25.4403 C.ar    1  UNL1        0.1917
     15 C          -8.6313  -16.3462   25.4570 C.ar    1  UNL1        0.0446
     16 C          -9.4030  -16.4597   24.1757 C.ar    1  UNL1        0.0377
     17 C          -8.7640  -16.0635   22.8778 C.ar    1  UNL1        0.1355
     18 N          -7.3534  -15.5539   22.8611 N.ar    1  UNL1       -0.1940
     19 C          -6.5817  -15.4405   24.1424 C.ar    1  UNL1        0.2612
     20 C          -6.8920  -14.7581   27.7810 C.3     1  UNL1        0.2527
     21 O          -6.4490  -15.7232   26.7216 O.3     1  UNL1       -0.4667
     22 O          -5.1710  -14.9308   24.1257 O.3     1  UNL1       -0.4541
     23 C          -4.1161  -15.6686   23.3556 C.3     1  UNL1        0.2543
     24 N          -6.9318  -20.2616   19.7160 N.pl3   1  UNL1       -0.3170
     25 H          -6.9093  -21.0774   19.1654 H       1  UNL1        0.1482
     26 C          -5.6824  -19.7769   20.3899 C.3     1  UNL1        0.0845
     27 C          -4.6175  -19.0876   19.5892 C.3     1  UNL1        0.0209
     28 C          -3.3681  -18.6029   20.2631 C.3     1  UNL1        0.0018
     29 C          -3.1837  -18.8074   21.7377 C.3     1  UNL1        0.0015
     30 C          -4.2486  -19.4966   22.5383 C.3     1  UNL1        0.0172
     31 C          -5.4980  -19.9813   21.8643 C.3     1  UNL1        0.0689
     32 N          -6.5629  -20.6705   22.6649 N.3     1  UNL1       -0.3209
     33 H          -7.3350  -20.9305   22.0511 H       1  UNL1        0.1189
     34 H          -6.9033  -20.0407   23.3914 H       1  UNL1        0.1189
@<TRIPOS>BOND
     1    20    21    1
     2    21    14    1
     3    14    15   ar
     4    15    16   ar
     5    16    17   ar
     6    17    12    1
     7    12     1    1
     8     1     2   ar
     9     2     3   ar
    10     3    24    1
    11    26    24    1
    12    26    27    1
    13    27    28    1
    14    28    29    1
    15    29    30    1
    16    30    31    1
    17    31    32    1
    18     3     4   ar
    19     4     5   ar
    20     5     6   ar
    21     6     7    1
    22     7     8   am
    23     7     9    2
    24    17    18   ar
    25    18    19   ar
    26    19    22    1
    27    22    23    1
    28    19    14   ar
    29     6     1   ar
    30    31    26    1
    31    12    13    1
    32    24    25    1
    33    32    33    1
    34    32    34    1
    35     8    10    1
    36     8    11    1
@<TRIPOS>MOLECULE
*****
 34 36 0 0 0
SMALL
GASTEIGER

@<TRIPOS>ATOM
      1 C           4.4954    0.3234   33.6112 C.ar    1  UNL1        0.0764
      2 C           5.2313   -0.9835   33.5847 C.ar    1  UNL1        0.0522
      3 C           4.7762   -2.0821   32.6704 C.ar    1  UNL1        0.1515
      4 N           3.5852   -1.8739   31.7826 N.ar    1  UNL1       -0.1329
      5 N           2.8493   -0.5672   31.8091 N.ar    1  UNL1       -0.1409
      6 C           3.3044    0.5315   32.7234 C.ar    1  UNL1        0.1691
      7 C           2.5684    1.8383   32.7499 C.2     1  UNL1        0.2635
      8 N           1.4237    2.0353   33.6990 N.am    1  UNL1       -0.3240
      9 O           2.9772    2.9480   31.8273 O.2     1  UNL1       -0.2686
     10 H           1.1554    1.3069   34.3046 H       1  UNL1        0.1453
     11 H           0.9407    2.8930   33.7164 H       1  UNL1        0.1453
     12 N           4.9504    1.4219   34.5255 N.pl3   1  UNL1       -0.2964
     13 H           5.7238    1.9789   34.2788 H       1  UNL1        0.1537
     14 C           2.7807    2.1718   38.3959 C.ar    1  UNL1        0.1917
     15 C           3.5886    0.9204   38.2192 C.ar    1  UNL1        0.0446
     16 C           4.3118    0.6704   36.9291 C.ar    1  UNL1        0.0377
     17 C           4.2272    1.6719   35.8156 C.ar    1  UNL1        0.1355
     18 N           3.4193    2.9233   35.9923 N.ar    1  UNL1       -0.1940
     19 C           2.6961    3.1733   37.2824 C.ar    1  UNL1        0.2612
     20 C           0.6389    1.9632   39.8516 C.3     1  UNL1        0.2527
     21 O           2.0574    2.4218   39.6860 O.3     1  UNL1       -0.4667
     22 O           1.8882    4.4248   37.4590 O.3     1  UNL1       -0.4541
     23 C           1.2441    5.0756   36.2709 C.3     1  UNL1        0.2543
     24 N           5.5121   -3.3889   32.6439 N.pl3   1  UNL1       -0.3170
     25 H           5.2957   -4.0892   33.3012 H       1  UNL1        0.1482
     26 C           6.5777   -3.6288   31.6158 C.3     1  UNL1        0.0845
     27 C           7.1103   -2.4837   30.8063 C.3     1  UNL1        0.0209
     28 C           8.1759   -2.7237   29.7783 C.3     1  UNL1        0.0018
     29 C           8.7089   -4.1087   29.5597 C.3     1  UNL1        0.0015
     30 C           8.1764   -5.2537   30.3692 C.3     1  UNL1        0.0172
     31 C           7.1108   -5.0138   31.3972 C.3     1  UNL1        0.0689
     32 N           6.5782   -6.1588   32.2067 N.3     1  UNL1       -0.3209
     33 H           5.8658   -5.8169   32.8516 H       1  UNL1        0.1189
     34 H           7.3395   -6.5844   32.7356 H       1  UNL1        0.1189
@<TRIPOS>BOND
     1    20    21    1
     2    21    14    1
     3    14    15   ar
     4    15    16   ar
     5    16    17   ar
     6    17    12    1
     7    12     1    1
     8     1     2   ar
     9     2     3   ar
    10     3    24    1
    11    26    24    1
    12    26    27    1
    13    27    28    1
    14    28    29    1
    15    29    30    1
    16    30    31    1
    17    31    32    1
    18     3     4   ar
    19     4     5   ar
    20     5     6   ar
    21     6     7    1
    22     7     8   am
    23     7     9    2
    24    17    18   ar
    25    18    19   ar
    26    19    22    1
    27    22    23    1
    28    19    14   ar
    29     6     1   ar
    30    31    26    1
    31    12    13    1
    32    24    25    1
    33    32    33    1
    34    32    34    1
    35     8    10    1
    36     8    11    1
