@<TRIPOS>MOLECULE
*****
 36 40 0 0 0
SMALL
GASTEIGER

@<TRIPOS>ATOM
      1 C          -1.9947  -17.7423   21.9657 C.ar    1  UNL1        0.1385
      2 C          -2.1443  -16.2673   21.7373 C.ar    1  UNL1        0.0366
      3 C          -3.2064  -15.4993   22.4668 C.ar    1  UNL1        0.0002
      4 C          -4.1189  -16.2063   23.4247 C.ar    1  UNL1       -0.0059
      5 C          -3.9693  -17.6812   23.6532 C.ar    1  UNL1        0.0002
      6 C          -2.9072  -18.4492   22.9237 C.ar    1  UNL1        0.0366
      7 O          -0.9327  -18.5103   21.2362 O.3     1  UNL1       -0.4754
      8 C          -0.6575  -18.2211   19.7904 C.3     1  UNL1        0.2068
      9 C          -1.7765  -18.2574   18.7920 C.3     1  UNL1        0.0646
     10 C          -2.6571  -19.4678   18.6962 C.3     1  UNL1        0.0759
     11 C          -6.4386  -19.6971   21.1247 C.3     1  UNL1        0.0087
     12 C          -6.0088  -18.3899   20.5277 C.3     1  UNL1        0.0178
     13 C          -4.7483  -18.3135   19.7182 C.3     1  UNL1        0.0721
     14 N          -3.9176  -19.5443   19.5057 N.3     1  UNL1       -0.2726
     15 C          -4.3474  -20.8514   20.1028 C.3     1  UNL1        0.0721
     16 C          -5.6079  -20.9278   20.9123 C.3     1  UNL1        0.0178
     17 C          -7.6991  -19.7735   21.9343 C.3     1  UNL1        0.0475
     18 C         -10.7163  -18.6585   19.7621 C.ar    1  UNL1        0.1747
     19 N          -9.2437  -18.6797   20.0468 N.ar    1  UNL1       -0.2285
     20 C          -9.0233  -19.4917   21.2886 C.ar    1  UNL1        0.0776
     21 C         -10.3597  -19.9723   21.7714 C.ar    1  UNL1        0.0885
     22 N         -11.4061  -19.4574   20.8280 N.ar    1  UNL1       -0.3340
     23 H         -12.3753  -19.6159   20.8964 H       1  UNL1        0.1675
     24 C          -5.1809  -15.4383   24.1542 C.3     1  UNL1        0.0991
     25 N          -6.6160  -15.8633   24.0545 N.3     1  UNL1       -0.2689
     26 C          -7.3633  -16.2762   25.2879 C.3     1  UNL1        0.0738
     27 C          -8.7984  -16.7012   25.1883 C.3     1  UNL1        0.0333
     28 C          -9.4862  -16.7134   23.8553 C.3     1  UNL1        0.0603
     29 C          -8.7389  -16.3005   22.6219 C.3     1  UNL1        0.0333
     30 C          -7.3038  -15.8755   22.7216 C.3     1  UNL1        0.0738
     31 N         -10.9212  -17.1384   23.7557 N.3     1  UNL1       -0.2739
     32 C         -11.4307  -18.2644   24.6057 C.3     1  UNL1        0.0720
     33 C         -12.8657  -18.6894   24.5061 C.3     1  UNL1        0.0174
     34 C         -13.7914  -17.9885   23.5564 C.3     1  UNL1        0.0029
     35 C         -13.2819  -16.8625   22.7063 C.3     1  UNL1        0.0174
     36 C         -11.8468  -16.4375   22.8060 C.3     1  UNL1        0.0720
@<TRIPOS>BOND
     1    18    19   ar
     2    19    20   ar
     3    20    17    1
     4    17    11    1
     5    11    12    1
     6    12    13    1
     7    13    14    1
     8    14    10    1
     9    10     9    1
    10     9     8    1
    11     8     7    1
    12     7     1    1
    13     1     2   ar
    14     2     3   ar
    15     3     4   ar
    16     4    24    1
    17    24    25    1
    18    25    26    1
    19    26    27    1
    20    27    28    1
    21    28    31    1
    22    31    32    1
    23    32    33    1
    24    33    34    1
    25    34    35    1
    26    35    36    1
    27    28    29    1
    28    29    30    1
    29     4     5   ar
    30     5     6   ar
    31    14    15    1
    32    15    16    1
    33    20    21   ar
    34    21    22   ar
    35    22    18   ar
    36    16    11    1
    37     6     1   ar
    38    30    25    1
    39    36    31    1
    40    22    23    1
@<TRIPOS>MOLECULE
*****
 36 40 0 0 0
SMALL
GASTEIGER

@<TRIPOS>ATOM
      1 C          -2.2511  -18.3469   19.7918 C.ar    1  UNL1        0.1385
      2 C          -3.5515  -17.9816   19.1392 C.ar    1  UNL1        0.0366
      3 C          -4.7337  -18.8971   19.2585 C.ar    1  UNL1        0.0002
      4 C          -4.6156  -20.1778   20.0304 C.ar    1  UNL1       -0.0059
      5 C          -3.3154  -20.5430   20.6830 C.ar    1  UNL1        0.0002
      6 C          -2.1331  -19.6276   20.5637 C.ar    1  UNL1        0.0366
      7 O          -1.0689  -17.4314   19.6725 O.3     1  UNL1       -0.4754
      8 C          -0.7510  -16.4691   20.7783 C.3     1  UNL1        0.2068
      9 C          -1.8485  -15.9491   21.6588 C.3     1  UNL1        0.0646
     10 C          -2.4799  -16.8478   22.6803 C.3     1  UNL1        0.0759
     11 C          -6.8242  -16.3457   23.7406 C.3     1  UNL1        0.0087
     12 C          -5.8466  -15.2493   24.0440 C.3     1  UNL1        0.0178
     13 C          -4.3986  -15.4166   23.6906 C.3     1  UNL1        0.0721
     14 N          -3.9281  -16.6805   23.0338 N.3     1  UNL1       -0.2726
     15 C          -4.9056  -17.7769   22.7304 C.3     1  UNL1        0.0721
     16 C          -6.3537  -17.6095   23.0838 C.3     1  UNL1        0.0178
     17 C          -8.2724  -16.1783   24.0940 C.3     1  UNL1        0.0475
     18 C         -10.3104  -15.6550   20.8325 C.ar    1  UNL1        0.1747
     19 N          -9.0191  -15.9459   21.5380 N.ar    1  UNL1       -0.2285
     20 C          -9.2846  -15.9345   23.0143 C.ar    1  UNL1        0.0776
     21 C         -10.7401  -15.6366   23.2211 C.ar    1  UNL1        0.0885
     22 N         -11.3741  -15.4638   21.8727 N.ar    1  UNL1       -0.3340
     23 H         -12.3219  -15.2606   21.7007 H       1  UNL1        0.1675
     24 C          -5.7978  -21.0932   20.1497 C.3     1  UNL1        0.0991
     25 N          -7.0855  -20.5841   20.7266 N.3     1  UNL1       -0.2689
     26 C          -7.3133  -20.6295   22.2085 C.3     1  UNL1        0.0738
     27 C          -8.6009  -20.1204   22.7854 C.3     1  UNL1        0.0333
     28 C          -9.6608  -19.5658   21.8803 C.3     1  UNL1        0.0603
     29 C          -9.4331  -19.5204   20.3984 C.3     1  UNL1        0.0333
     30 C          -8.1454  -20.0295   19.8216 C.3     1  UNL1        0.0738
     31 N         -10.9484  -19.0567   22.4572 N.3     1  UNL1       -0.2739
     32 C         -11.1415  -19.0201   23.9443 C.3     1  UNL1        0.0720
     33 C         -12.4291  -18.5110   24.5212 C.3     1  UNL1        0.0174
     34 C         -13.5237  -18.0384   23.6109 C.3     1  UNL1        0.0029
     35 C         -13.3307  -18.0750   22.1239 C.3     1  UNL1        0.0174
     36 C         -12.0430  -18.5842   21.5470 C.3     1  UNL1        0.0720
@<TRIPOS>BOND
     1    18    19   ar
     2    19    20   ar
     3    20    17    1
     4    17    11    1
     5    11    12    1
     6    12    13    1
     7    13    14    1
     8    14    10    1
     9    10     9    1
    10     9     8    1
    11     8     7    1
    12     7     1    1
    13     1     2   ar
    14     2     3   ar
    15     3     4   ar
    16     4    24    1
    17    24    25    1
    18    25    26    1
    19    26    27    1
    20    27    28    1
    21    28    31    1
    22    31    32    1
    23    32    33    1
    24    33    34    1
    25    34    35    1
    26    35    36    1
    27    28    29    1
    28    29    30    1
    29     4     5   ar
    30     5     6   ar
    31    14    15    1
    32    15    16    1
    33    20    21   ar
    34    21    22   ar
    35    22    18   ar
    36    16    11    1
    37     6     1   ar
    38    30    25    1
    39    36    31    1
    40    22    23    1
@<TRIPOS>MOLECULE
*****
 36 40 0 0 0
SMALL
GASTEIGER

@<TRIPOS>ATOM
      1 C          -2.1776  -18.6156   19.2909 C.ar    1  UNL1        0.1385
      2 C          -2.0360  -19.9105   20.0348 C.ar    1  UNL1        0.0366
      3 C          -3.2575  -20.6872   20.4278 C.ar    1  UNL1        0.0002
      4 C          -4.6208  -20.1691   20.0769 C.ar    1  UNL1       -0.0059
      5 C          -4.7625  -18.8743   19.3331 C.ar    1  UNL1        0.0002
      6 C          -3.5409  -18.0975   18.9401 C.ar    1  UNL1        0.0366
      7 O          -0.9561  -17.8389   18.8979 O.3     1  UNL1       -0.4754
      8 C          -0.2042  -17.0512   19.9294 C.3     1  UNL1        0.2068
      9 C          -0.9422  -16.4032   21.0633 C.3     1  UNL1        0.0646
     10 C          -1.6021  -17.2506   22.1103 C.3     1  UNL1        0.0759
     11 C          -5.7544  -16.2499   23.5268 C.3     1  UNL1        0.0087
     12 C          -5.3073  -17.6804   23.4656 C.3     1  UNL1        0.0178
     13 C          -3.9232  -18.0139   22.9934 C.3     1  UNL1        0.0721
     14 N          -2.9862  -16.9170   22.5825 N.3     1  UNL1       -0.2726
     15 C          -3.4334  -15.4866   22.6437 C.3     1  UNL1        0.0721
     16 C          -4.8175  -15.1530   23.1159 C.3     1  UNL1        0.0178
     17 C          -7.1386  -15.9163   23.9990 C.3     1  UNL1        0.0475
     18 C          -8.4726  -15.1362   27.5595 C.ar    1  UNL1        0.1747
     19 N          -8.7013  -15.5537   26.1370 N.ar    1  UNL1       -0.2285
     20 C          -7.3749  -15.5594   25.4366 C.ar    1  UNL1        0.0776
     21 C          -6.3264  -15.1455   26.4262 C.ar    1  UNL1        0.0885
     22 N          -7.0047  -14.8839   27.7382 N.ar    1  UNL1       -0.3340
     23 H          -6.5640  -14.5971   28.5705 H       1  UNL1        0.1675
     24 C          -5.8423  -20.9458   20.4699 C.3     1  UNL1        0.0991
     25 N          -7.0767  -20.2237   20.9230 N.3     1  UNL1       -0.2689
     26 C          -7.3605  -20.0700   22.3878 C.3     1  UNL1        0.0738
     27 C          -8.5948  -19.3480   22.8409 C.3     1  UNL1        0.0333
     28 C          -9.5452  -18.7797   21.8291 C.3     1  UNL1        0.0603
     29 C          -9.2614  -18.9334   20.3642 C.3     1  UNL1        0.0333
     30 C          -8.0270  -19.6554   19.9112 C.3     1  UNL1        0.0738
     31 N         -10.7795  -18.0577   22.2821 N.3     1  UNL1       -0.2739
     32 C         -11.8107  -18.7762   23.1009 C.3     1  UNL1        0.0720
     33 C         -13.0450  -18.0542   23.5539 C.3     1  UNL1        0.0174
     34 C         -13.2480  -16.6137   23.1883 C.3     1  UNL1        0.0029
     35 C         -12.2168  -15.8952   22.3695 C.3     1  UNL1        0.0174
     36 C         -10.9825  -16.6172   21.9165 C.3     1  UNL1        0.0720
@<TRIPOS>BOND
     1    18    19   ar
     2    19    20   ar
     3    20    17    1
     4    17    11    1
     5    11    12    1
     6    12    13    1
     7    13    14    1
     8    14    10    1
     9    10     9    1
    10     9     8    1
    11     8     7    1
    12     7     1    1
    13     1     2   ar
    14     2     3   ar
    15     3     4   ar
    16     4    24    1
    17    24    25    1
    18    25    26    1
    19    26    27    1
    20    27    28    1
    21    28    31    1
    22    31    32    1
    23    32    33    1
    24    33    34    1
    25    34    35    1
    26    35    36    1
    27    28    29    1
    28    29    30    1
    29     4     5   ar
    30     5     6   ar
    31    14    15    1
    32    15    16    1
    33    20    21   ar
    34    21    22   ar
    35    22    18   ar
    36    16    11    1
    37     6     1   ar
    38    30    25    1
    39    36    31    1
    40    22    23    1
@<TRIPOS>MOLECULE
*****
 36 40 0 0 0
SMALL
GASTEIGER

@<TRIPOS>ATOM
      1 C           7.5887   -7.3763   25.5929 C.ar    1  UNL1        0.1385
      2 C           7.0945   -5.9887   25.8770 C.ar    1  UNL1        0.0366
      3 C           7.3753   -4.8793   24.9074 C.ar    1  UNL1        0.0002
      4 C           8.1502   -5.1574   23.6535 C.ar    1  UNL1       -0.0059
      5 C           8.6444   -6.5448   23.3693 C.ar    1  UNL1        0.0002
      6 C           8.3636   -7.6543   24.3390 C.ar    1  UNL1        0.0366
      7 O           7.3079   -8.4857   26.5626 O.3     1  UNL1       -0.4754
      8 C           8.3902   -8.9712   27.4806 C.3     1  UNL1        0.2068
      9 C           9.5344   -8.0681   27.8347 C.3     1  UNL1        0.0646
     10 C           9.4582   -7.2063   29.0601 C.3     1  UNL1        0.0759
     11 C           7.2551   -3.2850   28.9195 C.3     1  UNL1        0.0087
     12 C           6.5752   -4.5083   29.4590 C.3     1  UNL1        0.0178
     13 C           7.3095   -5.8154   29.5058 C.3     1  UNL1        0.0721
     14 N           8.7239   -5.8991   29.0132 N.3     1  UNL1       -0.2726
     15 C           9.4038   -4.6758   28.4738 C.3     1  UNL1        0.0721
     16 C           8.6695   -3.3687   28.4269 C.3     1  UNL1        0.0178
     17 C           6.5208   -1.9778   28.8727 C.3     1  UNL1        0.0475
     18 C           4.3179   -1.5978   25.6997 C.ar    1  UNL1        0.1747
     19 N           5.6228   -1.9402   26.3554 N.ar    1  UNL1       -0.2285
     20 C           5.4627   -1.7488   27.8344 C.ar    1  UNL1        0.0776
     21 C           4.0588   -1.2881   28.0930 C.ar    1  UNL1        0.0885
     22 N           3.3512   -1.1948   26.7737 N.ar    1  UNL1       -0.3340
     23 H           2.4165   -0.9177   26.6366 H       1  UNL1        0.1675
     24 C           8.4310   -4.0479   22.6838 C.3     1  UNL1        0.0991
     25 N           7.2957   -3.3326   22.0133 N.3     1  UNL1       -0.2689
     26 C           7.0333   -3.5461   20.5520 C.3     1  UNL1        0.0738
     27 C           5.8981   -2.8308   19.8815 C.3     1  UNL1        0.0333
     28 C           5.0253   -1.9020   20.6723 C.3     1  UNL1        0.0603
     29 C           5.2877   -1.6884   22.1337 C.3     1  UNL1        0.0333
     30 C           6.4229   -2.4038   22.8042 C.3     1  UNL1        0.0738
     31 N           3.8901   -1.1867   20.0018 N.3     1  UNL1       -0.2739
     32 C           4.1154   -0.4770   18.6996 C.3     1  UNL1        0.0720
     33 C           2.9802    0.2383   18.0291 C.3     1  UNL1        0.0174
     34 C           1.6196    0.2439   18.6607 C.3     1  UNL1        0.0029
     35 C           1.3943   -0.4657   19.9629 C.3     1  UNL1        0.0174
     36 C           2.5296   -1.1811   20.6334 C.3     1  UNL1        0.0720
@<TRIPOS>BOND
     1    18    19   ar
     2    19    20   ar
     3    20    17    1
     4    17    11    1
     5    11    12    1
     6    12    13    1
     7    13    14    1
     8    14    10    1
     9    10     9    1
    10     9     8    1
    11     8     7    1
    12     7     1    1
    13     1     2   ar
    14     2     3   ar
    15     3     4   ar
    16     4    24    1
    17    24    25    1
    18    25    26    1
    19    26    27    1
    20    27    28    1
    21    28    31    1
    22    31    32    1
    23    32    33    1
    24    33    34    1
    25    34    35    1
    26    35    36    1
    27    28    29    1
    28    29    30    1
    29     4     5   ar
    30     5     6   ar
    31    14    15    1
    32    15    16    1
    33    20    21   ar
    34    21    22   ar
    35    22    18   ar
    36    16    11    1
    37     6     1   ar
    38    30    25    1
    39    36    31    1
    40    22    23    1
@<TRIPOS>MOLECULE
*****
 36 40 0 0 0
SMALL
GASTEIGER

@<TRIPOS>ATOM
      1 C         -11.1170   -3.1688   17.4823 C.ar    1  UNL1        0.1385
      2 C         -11.4846   -2.2929   18.6433 C.ar    1  UNL1        0.0366
      3 C         -12.9198   -1.9290   18.8835 C.ar    1  UNL1        0.0002
      4 C         -13.9875   -2.4412   17.9628 C.ar    1  UNL1       -0.0059
      5 C         -13.6201   -3.3171   16.8020 C.ar    1  UNL1        0.0002
      6 C         -12.1848   -3.6810   16.5617 C.ar    1  UNL1        0.0366
      7 O          -9.6818   -3.5327   17.2421 O.3     1  UNL1       -0.4754
      8 C          -9.2140   -4.9375   17.4820 C.3     1  UNL1        0.2068
      9 C          -9.6095   -5.6555   18.7382 C.3     1  UNL1        0.0646
     10 C         -10.4531   -6.8934   18.6607 C.3     1  UNL1        0.0759
     11 C         -14.9372   -6.5767   18.8658 C.3     1  UNL1        0.0087
     12 C         -14.0830   -5.6993   19.7320 C.3     1  UNL1        0.0178
     13 C         -12.5883   -5.8048   19.6636 C.3     1  UNL1        0.0721
     14 N         -11.9479   -6.7878   18.7290 N.3     1  UNL1       -0.2726
     15 C         -12.8021   -7.6653   17.8628 C.3     1  UNL1        0.0721
     16 C         -14.2967   -7.5597   17.9312 C.3     1  UNL1        0.0178
     17 C         -16.4320   -6.4712   18.9342 C.3     1  UNL1        0.0475
     18 C         -19.0434   -9.3369   18.7525 C.ar    1  UNL1        0.1747
     19 N         -18.5538   -7.9821   18.3345 N.ar    1  UNL1       -0.2285
     20 C         -17.2667   -7.7115   19.0555 C.ar    1  UNL1        0.0776
     21 C         -16.9607   -8.8991   19.9193 C.ar    1  UNL1        0.0885
     22 N         -18.0588   -9.9037   19.7320 N.ar    1  UNL1       -0.3340
     23 H         -18.1222  -10.7810   20.1743 H       1  UNL1        0.1675
     24 C         -15.4228   -2.0773   18.2030 C.3     1  UNL1        0.0991
     25 N         -15.7671   -0.7625   18.8377 N.3     1  UNL1       -0.2689
     26 C         -15.3129    0.5185   18.2030 C.3     1  UNL1        0.0738
     27 C         -15.6572    1.8332   18.8376 C.3     1  UNL1        0.0333
     28 C         -16.4558    1.8671   20.1070 C.3     1  UNL1        0.0603
     29 C         -16.9099    0.5861   20.7417 C.3     1  UNL1        0.0333
     30 C         -16.5656   -0.7287   20.1070 C.3     1  UNL1        0.0738
     31 N         -16.8001    3.1819   20.7416 N.3     1  UNL1       -0.2739
     32 C         -15.7339    4.2163   20.9496 C.3     1  UNL1        0.0720
     33 C         -16.0782    5.5311   21.5842 C.3     1  UNL1        0.0174
     34 C         -17.4887    5.8115   22.0109 C.3     1  UNL1        0.0029
     35 C         -18.5549    4.7770   21.8029 C.3     1  UNL1        0.0174
     36 C         -18.2105    3.4622   21.1682 C.3     1  UNL1        0.0720
@<TRIPOS>BOND
     1    18    19   ar
     2    19    20   ar
     3    20    17    1
     4    17    11    1
     5    11    12    1
     6    12    13    1
     7    13    14    1
     8    14    10    1
     9    10     9    1
    10     9     8    1
    11     8     7    1
    12     7     1    1
    13     1     2   ar
    14     2     3   ar
    15     3     4   ar
    16     4    24    1
    17    24    25    1
    18    25    26    1
    19    26    27    1
    20    27    28    1
    21    28    31    1
    22    31    32    1
    23    32    33    1
    24    33    34    1
    25    34    35    1
    26    35    36    1
    27    28    29    1
    28    29    30    1
    29     4     5   ar
    30     5     6   ar
    31    14    15    1
    32    15    16    1
    33    20    21   ar
    34    21    22   ar
    35    22    18   ar
    36    16    11    1
    37     6     1   ar
    38    30    25    1
    39    36    31    1
    40    22    23    1
@<TRIPOS>MOLECULE
*****
 36 40 0 0 0
SMALL
GASTEIGER

@<TRIPOS>ATOM
      1 C          -4.1240    3.3515   22.0262 C.ar    1  UNL1        0.1385
      2 C          -3.9640    3.3410   20.5348 C.ar    1  UNL1        0.0366
      3 C          -2.6024    3.4974   19.9254 C.ar    1  UNL1        0.0002
      4 C          -1.4006    3.6643   20.8073 C.ar    1  UNL1       -0.0059
      5 C          -1.5605    3.6748   22.2987 C.ar    1  UNL1        0.0002
      6 C          -2.9222    3.5184   22.9082 C.ar    1  UNL1        0.0366
      7 O          -5.4856    3.1951   22.6356 O.3     1  UNL1       -0.4754
      8 C          -6.5251    4.2570   22.4313 C.3     1  UNL1        0.2068
      9 C          -7.2354    4.8485   23.6128 C.3     1  UNL1        0.0646
     10 C          -6.5373    5.8516   24.4825 C.3     1  UNL1        0.0759
     11 C          -2.5891    4.8227   26.3807 C.3     1  UNL1        0.0087
     12 C          -3.7742    3.9253   26.5813 C.3     1  UNL1        0.0178
     13 C          -5.0902    4.2683   25.9486 C.3     1  UNL1        0.0721
     14 N          -5.2212    5.5086   25.1152 N.3     1  UNL1       -0.2726
     15 C          -4.0361    6.4060   24.9147 C.3     1  UNL1        0.0721
     16 C          -2.7201    6.0630   25.5474 C.3     1  UNL1        0.0178
     17 C          -1.2730    4.4797   27.0135 C.3     1  UNL1        0.0475
     18 C           0.1661    0.9210   27.5873 C.ar    1  UNL1        0.1747
     19 N          -0.2555    2.2633   28.1074 N.ar    1  UNL1       -0.2285
     20 C          -0.7528    3.0744   26.9478 C.ar    1  UNL1        0.0776
     21 C          -0.6387    2.2334   25.7110 C.ar    1  UNL1        0.0885
     22 N          -0.0708    0.9025   26.1062 N.ar    1  UNL1       -0.3340
     23 H           0.1141    0.1491   25.5000 H       1  UNL1        0.1675
     24 C          -0.0390    3.8207   20.1979 C.3     1  UNL1        0.0991
     25 N           0.8069    2.6109   19.9314 N.3     1  UNL1       -0.2689
     26 C           0.7069    1.9015   18.6135 C.3     1  UNL1        0.0738
     27 C           1.5527    0.6917   18.3469 C.3     1  UNL1        0.0333
     28 C           2.4986    0.1913   19.3981 C.3     1  UNL1        0.0603
     29 C           2.5985    0.9007   20.7160 C.3     1  UNL1        0.0333
     30 C           1.7527    2.1105   20.9826 C.3     1  UNL1        0.0738
     31 N           3.3444   -1.0184   19.1315 N.3     1  UNL1       -0.2739
     32 C           3.0296   -2.3181   19.8109 C.3     1  UNL1        0.0720
     33 C           3.8754   -3.5279   19.5442 C.3     1  UNL1        0.0174
     34 C           5.0360   -3.4379   18.5982 C.3     1  UNL1        0.0029
     35 C           5.3508   -2.1381   17.9188 C.3     1  UNL1        0.0174
     36 C           4.5049   -0.9283   18.1855 C.3     1  UNL1        0.0720
@<TRIPOS>BOND
     1    18    19   ar
     2    19    20   ar
     3    20    17    1
     4    17    11    1
     5    11    12    1
     6    12    13    1
     7    13    14    1
     8    14    10    1
     9    10     9    1
    10     9     8    1
    11     8     7    1
    12     7     1    1
    13     1     2   ar
    14     2     3   ar
    15     3     4   ar
    16     4    24    1
    17    24    25    1
    18    25    26    1
    19    26    27    1
    20    27    28    1
    21    28    31    1
    22    31    32    1
    23    32    33    1
    24    33    34    1
    25    34    35    1
    26    35    36    1
    27    28    29    1
    28    29    30    1
    29     4     5   ar
    30     5     6   ar
    31    14    15    1
    32    15    16    1
    33    20    21   ar
    34    21    22   ar
    35    22    18   ar
    36    16    11    1
    37     6     1   ar
    38    30    25    1
    39    36    31    1
    40    22    23    1
@<TRIPOS>MOLECULE
*****
 36 40 0 0 0
SMALL
GASTEIGER

@<TRIPOS>ATOM
      1 C           4.4782   -0.3524   17.7802 C.ar    1  UNL1        0.1385
      2 C           5.2791    0.9042   17.9530 C.ar    1  UNL1        0.0366
      3 C           4.6059    2.1665   18.4037 C.ar    1  UNL1        0.0002
      4 C           3.1318    2.1725   18.6815 C.ar    1  UNL1       -0.0059
      5 C           2.3310    0.9160   18.5087 C.ar    1  UNL1        0.0002
      6 C           3.0042   -0.3465   18.0581 C.ar    1  UNL1        0.0366
      7 O           5.1514   -1.6148   17.3296 O.3     1  UNL1       -0.4754
      8 C           5.1271   -2.8317   18.2061 C.3     1  UNL1        0.2068
      9 C           6.2744   -3.1132   19.1306 C.3     1  UNL1        0.0646
     10 C           6.1204   -2.8918   20.6061 C.3     1  UNL1        0.0759
     11 C           3.5185    0.4531   22.1199 C.3     1  UNL1        0.0087
     12 C           2.9290   -0.9048   21.8778 C.3     1  UNL1        0.0178
     13 C           3.7963   -2.0197   21.3732 C.3     1  UNL1        0.0721
     14 N           5.2531   -1.7768   21.1107 N.3     1  UNL1       -0.2726
     15 C           5.8425   -0.4189   21.3528 C.3     1  UNL1        0.0721
     16 C           4.9752    0.6960   21.8574 C.3     1  UNL1        0.0178
     17 C           2.6512    1.5681   22.6245 C.3     1  UNL1        0.0475
     18 C          -0.0277    1.3524   25.4248 C.ar    1  UNL1        0.1747
     19 N           0.3761    1.6962   24.0217 N.ar    1  UNL1       -0.2285
     20 C           1.8340    1.3788   23.8680 C.ar    1  UNL1        0.0776
     21 C           2.3313    0.8387   25.1760 C.ar    1  UNL1        0.0885
     22 N           1.1807    0.8223   26.1383 N.ar    1  UNL1       -0.3340
     23 H           1.2130    0.5173   27.0738 H       1  UNL1        0.1675
     24 C           2.4586    3.4348   19.1322 C.3     1  UNL1        0.0991
     25 N           0.9612    3.5107   19.1792 N.3     1  UNL1       -0.2689
     26 C           0.2365    3.2387   20.4640 C.3     1  UNL1        0.0738
     27 C          -1.2608    3.3146   20.5111 C.3     1  UNL1        0.0333
     28 C          -2.0335    3.6625   19.2733 C.3     1  UNL1        0.0603
     29 C          -1.3087    3.9344   17.9885 C.3     1  UNL1        0.0333
     30 C           0.1887    3.8586   17.9415 C.3     1  UNL1        0.0738
     31 N          -3.5308    3.7383   19.3204 N.3     1  UNL1       -0.2739
     32 C          -4.3125    3.9251   18.0539 C.3     1  UNL1        0.0720
     33 C          -5.8098    4.0009   18.1009 C.3     1  UNL1        0.0174
     34 C          -6.5255    3.8900   19.4146 C.3     1  UNL1        0.0029
     35 C          -5.7438    3.7033   20.6811 C.3     1  UNL1        0.0174
     36 C          -4.2464    3.6274   20.6340 C.3     1  UNL1        0.0720
@<TRIPOS>BOND
     1    18    19   ar
     2    19    20   ar
     3    20    17    1
     4    17    11    1
     5    11    12    1
     6    12    13    1
     7    13    14    1
     8    14    10    1
     9    10     9    1
    10     9     8    1
    11     8     7    1
    12     7     1    1
    13     1     2   ar
    14     2     3   ar
    15     3     4   ar
    16     4    24    1
    17    24    25    1
    18    25    26    1
    19    26    27    1
    20    27    28    1
    21    28    31    1
    22    31    32    1
    23    32    33    1
    24    33    34    1
    25    34    35    1
    26    35    36    1
    27    28    29    1
    28    29    30    1
    29     4     5   ar
    30     5     6   ar
    31    14    15    1
    32    15    16    1
    33    20    21   ar
    34    21    22   ar
    35    22    18   ar
    36    16    11    1
    37     6     1   ar
    38    30    25    1
    39    36    31    1
    40    22    23    1
@<TRIPOS>MOLECULE
*****
 36 40 0 0 0
SMALL
GASTEIGER

@<TRIPOS>ATOM
      1 C           5.9831   -3.7085   20.1304 C.ar    1  UNL1        0.1385
      2 C           6.4983   -2.3372   19.8076 C.ar    1  UNL1        0.0366
      3 C           5.6106   -1.3464   19.1146 C.ar    1  UNL1        0.0002
      4 C           4.2077   -1.7268   18.7445 C.ar    1  UNL1       -0.0059
      5 C           3.6924   -3.0980   19.0673 C.ar    1  UNL1        0.0002
      6 C           4.5801   -4.0889   19.7603 C.ar    1  UNL1        0.0366
      7 O           6.8708   -4.6993   20.8234 O.3     1  UNL1       -0.4754
      8 C           8.3570   -4.4972   20.8317 C.3     1  UNL1        0.2068
      9 C           9.1725   -4.9754   21.9964 C.3     1  UNL1        0.0646
     10 C           8.7266   -6.1721   22.7832 C.3     1  UNL1        0.0759
     11 C           6.8446   -5.6280   26.8343 C.3     1  UNL1        0.0087
     12 C           7.2299   -6.9994   26.3645 C.3     1  UNL1        0.0178
     13 C           7.8573   -7.1807   25.0141 C.3     1  UNL1        0.0721
     14 N           8.0992   -5.9907   24.1336 N.3     1  UNL1       -0.2726
     15 C           7.7139   -4.6193   24.6034 C.3     1  UNL1        0.0721
     16 C           7.0866   -4.4380   25.9538 C.3     1  UNL1        0.0178
     17 C           6.2172   -5.4465   28.1848 C.3     1  UNL1        0.0475
     18 C           8.7569   -6.3470   30.9784 C.ar    1  UNL1        0.1747
     19 N           8.2358   -6.5055   29.5808 N.ar    1  UNL1       -0.2285
     20 C           7.0468   -5.6045   29.4245 C.ar    1  UNL1        0.0776
     21 C           6.8330   -4.8891   30.7255 C.ar    1  UNL1        0.0885
     22 N           7.8899   -5.3480   31.6859 N.ar    1  UNL1       -0.3340
     23 H           7.9959   -5.0465   32.6171 H       1  UNL1        0.1675
     24 C           3.3200   -0.7360   18.0515 C.3     1  UNL1        0.0991
     25 N           2.3202    0.0560   18.8411 N.3     1  UNL1       -0.2689
     26 C           1.4612   -0.6271   19.8635 C.3     1  UNL1        0.0738
     27 C           0.4616    0.1648   20.6531 C.3     1  UNL1        0.0333
     28 C           0.3209    1.6400   20.4203 C.3     1  UNL1        0.0603
     29 C           1.1799    2.3231   19.3978 C.3     1  UNL1        0.0333
     30 C           2.1796    1.5311   18.6082 C.3     1  UNL1        0.0738
     31 N          -0.6788    2.4319   21.2098 N.3     1  UNL1       -0.2739
     32 C          -0.4159    2.7456   22.6529 C.3     1  UNL1        0.0720
     33 C          -1.4156    3.5375   23.4425 C.3     1  UNL1        0.0174
     34 C          -2.6782    4.0158   22.7890 C.3     1  UNL1        0.0029
     35 C          -2.9412    3.7021   21.3459 C.3     1  UNL1        0.0174
     36 C          -1.9414    2.9101   20.5563 C.3     1  UNL1        0.0720
@<TRIPOS>BOND
     1    18    19   ar
     2    19    20   ar
     3    20    17    1
     4    17    11    1
     5    11    12    1
     6    12    13    1
     7    13    14    1
     8    14    10    1
     9    10     9    1
    10     9     8    1
    11     8     7    1
    12     7     1    1
    13     1     2   ar
    14     2     3   ar
    15     3     4   ar
    16     4    24    1
    17    24    25    1
    18    25    26    1
    19    26    27    1
    20    27    28    1
    21    28    31    1
    22    31    32    1
    23    32    33    1
    24    33    34    1
    25    34    35    1
    26    35    36    1
    27    28    29    1
    28    29    30    1
    29     4     5   ar
    30     5     6   ar
    31    14    15    1
    32    15    16    1
    33    20    21   ar
    34    21    22   ar
    35    22    18   ar
    36    16    11    1
    37     6     1   ar
    38    30    25    1
    39    36    31    1
    40    22    23    1
@<TRIPOS>MOLECULE
*****
 36 40 0 0 0
SMALL
GASTEIGER

@<TRIPOS>ATOM
      1 C           4.5592   -0.2647   18.0092 C.ar    1  UNL1        0.1385
      2 C           3.0803   -0.0833   17.8359 C.ar    1  UNL1        0.0366
      3 C           2.3546    0.9613   18.6310 C.ar    1  UNL1        0.0002
      4 C           3.1077    1.8244   19.5994 C.ar    1  UNL1       -0.0059
      5 C           4.5866    1.6430   19.7727 C.ar    1  UNL1        0.0002
      6 C           5.3124    0.5984   18.9776 C.ar    1  UNL1        0.0366
      7 O           5.2849   -1.3093   17.2141 O.3     1  UNL1       -0.4754
      8 C           5.8747   -2.5027   17.9054 C.3     1  UNL1        0.2068
      9 C           4.9843   -3.4576   18.6441 C.3     1  UNL1        0.0646
     10 C           5.3423   -3.8948   20.0335 C.3     1  UNL1        0.0759
     11 C           3.8158   -1.5867   23.5821 C.3     1  UNL1        0.0087
     12 C           4.7856   -2.7135   23.7812 C.3     1  UNL1        0.0178
     13 C           5.2944   -3.4829   22.5983 C.3     1  UNL1        0.0721
     14 N           4.8334   -3.1253   21.2164 N.3     1  UNL1       -0.2726
     15 C           3.8636   -1.9985   21.0174 C.3     1  UNL1        0.0721
     16 C           3.3548   -1.2291   22.2002 C.3     1  UNL1        0.0178
     17 C           3.3070   -0.8172   24.7650 C.3     1  UNL1        0.0475
     18 C           4.6377   -1.3427   28.3731 C.ar    1  UNL1        0.1747
     19 N           3.5876   -1.5459   27.3214 N.ar    1  UNL1       -0.2285
     20 C           4.0500   -0.8655   26.0671 C.ar    1  UNL1        0.0776
     21 C           5.3859   -0.2418   26.3436 C.ar    1  UNL1        0.0885
     22 N           5.7491   -0.5368   27.7687 N.ar    1  UNL1       -0.3340
     23 H           6.5724   -0.2515   28.2270 H       1  UNL1        0.1675
     24 C           2.3821    2.8690   20.3944 C.3     1  UNL1        0.0991
     25 N           2.0123    2.6015   21.8234 N.3     1  UNL1       -0.2689
     26 C           2.7787    3.2596   22.9322 C.3     1  UNL1        0.0738
     27 C           2.4090    2.9921   24.3611 C.3     1  UNL1        0.0333
     28 C           1.2728    2.0666   24.6812 C.3     1  UNL1        0.0603
     29 C           0.5063    1.4085   23.5723 C.3     1  UNL1        0.0333
     30 C           0.8761    1.6760   22.1434 C.3     1  UNL1        0.0738
     31 N           0.9031    1.7991   26.1100 N.3     1  UNL1       -0.2739
     32 C          -0.5217    1.5018   26.4731 C.3     1  UNL1        0.0720
     33 C          -0.8914    1.2344   27.9020 C.3     1  UNL1        0.0174
     34 C           0.1637    1.2642   28.9679 C.3     1  UNL1        0.0029
     35 C           1.5884    1.5614   28.6048 C.3     1  UNL1        0.0174
     36 C           1.9581    1.8289   27.1759 C.3     1  UNL1        0.0720
@<TRIPOS>BOND
     1    18    19   ar
     2    19    20   ar
     3    20    17    1
     4    17    11    1
     5    11    12    1
     6    12    13    1
     7    13    14    1
     8    14    10    1
     9    10     9    1
    10     9     8    1
    11     8     7    1
    12     7     1    1
    13     1     2   ar
    14     2     3   ar
    15     3     4   ar
    16     4    24    1
    17    24    25    1
    18    25    26    1
    19    26    27    1
    20    27    28    1
    21    28    31    1
    22    31    32    1
    23    32    33    1
    24    33    34    1
    25    34    35    1
    26    35    36    1
    27    28    29    1
    28    29    30    1
    29     4     5   ar
    30     5     6   ar
    31    14    15    1
    32    15    16    1
    33    20    21   ar
    34    21    22   ar
    35    22    18   ar
    36    16    11    1
    37     6     1   ar
    38    30    25    1
    39    36    31    1
    40    22    23    1
