@<TRIPOS>MOLECULE
*****
 23 25 0 0 0
SMALL
GASTEIGER

@<TRIPOS>ATOM
      1 C          -9.3434  -19.0333   22.1765 C.2     1  UNL1        0.2486
      2 O          -9.2516  -20.2855   21.3559 O.2     1  UNL1       -0.2699
      3 N          -8.1255  -18.1832   22.3864 N.am    1  UNL1       -0.2779
      4 C         -11.5562  -17.6765   22.0642 C.ar    1  UNL1       -0.0181
      5 C         -12.8658  -17.2744   22.6750 C.ar    1  UNL1       -0.0041
      6 C         -13.2724  -17.8269   24.0089 C.ar    1  UNL1       -0.0003
      7 C         -12.3692  -18.7816   24.7321 C.ar    1  UNL1        0.0001
      8 C         -11.0596  -19.1837   24.1213 C.ar    1  UNL1        0.0042
      9 C         -10.6531  -18.6311   22.7873 C.ar    1  UNL1        0.0496
     10 C         -10.7611  -15.6808   20.6030 C.3     1  UNL1        0.0047
     11 C         -11.1497  -17.1240   20.7302 C.3     1  UNL1        0.0225
     12 C         -11.1317  -18.0146   19.5234 C.3     1  UNL1        0.0047
     13 C          -8.2172  -16.9310   23.2071 C.3     1  UNL1        0.0926
     14 C          -8.6937  -16.8399   24.6265 C.3     1  UNL1        0.0383
     15 C          -8.6196  -15.4026   25.0491 C.3     1  UNL1        0.0704
     16 N          -8.0972  -14.6053   23.8909 N.3     1  UNL1       -0.2960
     17 C          -7.8486  -15.5499   22.7525 C.3     1  UNL1        0.0887
     18 H          -7.2268  -14.1429   24.1534 H       1  UNL1        0.1233
     19 C          -6.8158  -18.5854   21.7756 C.3     1  UNL1        0.0756
     20 C          -6.5921  -18.9699   20.3431 C.3     1  UNL1        0.0198
     21 C          -5.1379  -19.2958   20.1723 C.3     1  UNL1        0.0018
     22 C          -4.4628  -19.1126   21.4993 C.3     1  UNL1        0.0018
     23 C          -5.4999  -18.6735   22.4902 C.3     1  UNL1        0.0198
@<TRIPOS>BOND
     1    10    11    1
     2    11    12    1
     3    11     4    1
     4     4     5   ar
     5     5     6   ar
     6     6     7   ar
     7     7     8   ar
     8     8     9   ar
     9     9     1    1
    10     1     2    2
    11     1     3   am
    12     3    19    1
    13    19    20    1
    14    20    21    1
    15    21    22    1
    16    22    23    1
    17    13     3    1
    18    13    14    1
    19    14    15    1
    20    15    16    1
    21    16    17    1
    22     9     4   ar
    23    23    19    1
    24    17    13    1
    25    16    18    1
@<TRIPOS>MOLECULE
*****
 23 25 0 0 0
SMALL
GASTEIGER

@<TRIPOS>ATOM
      1 C          -8.5346  -16.5023   22.5133 C.2     1  UNL1        0.2486
      2 O          -7.4557  -15.5319   22.1334 O.2     1  UNL1       -0.2699
      3 N          -8.7647  -16.8408   23.9564 N.am    1  UNL1       -0.2779
      4 C          -8.9723  -18.4420   20.8412 C.ar    1  UNL1       -0.0181
      5 C          -9.8210  -19.0739   19.7780 C.ar    1  UNL1       -0.0041
      6 C         -11.0807  -18.3981   19.3238 C.ar    1  UNL1       -0.0003
      7 C         -11.4917  -17.0904   19.9327 C.ar    1  UNL1        0.0001
      8 C         -10.6430  -16.4585   20.9959 C.ar    1  UNL1        0.0042
      9 C          -9.3833  -17.1343   21.4501 C.ar    1  UNL1        0.0496
     10 C          -6.4206  -18.8551   20.5801 C.3     1  UNL1        0.0047
     11 C          -7.7125  -19.1179   21.2954 C.3     1  UNL1        0.0225
     12 C          -7.7448  -20.0565   22.4650 C.3     1  UNL1        0.0047
     13 C          -9.8436  -17.8112   24.3363 C.3     1  UNL1        0.0926
     14 C         -11.2983  -17.6921   23.9906 C.3     1  UNL1        0.0383
     15 C         -12.0109  -18.8784   24.5693 C.3     1  UNL1        0.0704
     16 N         -10.9966  -19.7308   25.2725 N.3     1  UNL1       -0.2960
     17 C          -9.6571  -19.0712   25.1285 C.3     1  UNL1        0.0887
     18 H         -10.9724  -20.6592   24.8508 H       1  UNL1        0.1233
     19 C          -7.9160  -16.2088   25.0196 C.3     1  UNL1        0.0756
     20 C          -8.3634  -15.8445   26.4041 C.3     1  UNL1        0.0198
     21 C          -7.1948  -15.2408   27.1251 C.3     1  UNL1        0.0018
     22 C          -6.0251  -15.2319   26.1861 C.3     1  UNL1        0.0018
     23 C          -6.4708  -15.8302   24.8847 C.3     1  UNL1        0.0198
@<TRIPOS>BOND
     1    10    11    1
     2    11    12    1
     3    11     4    1
     4     4     5   ar
     5     5     6   ar
     6     6     7   ar
     7     7     8   ar
     8     8     9   ar
     9     9     1    1
    10     1     2    2
    11     1     3   am
    12     3    19    1
    13    19    20    1
    14    20    21    1
    15    21    22    1
    16    22    23    1
    17    13     3    1
    18    13    14    1
    19    14    15    1
    20    15    16    1
    21    16    17    1
    22     9     4   ar
    23    23    19    1
    24    17    13    1
    25    16    18    1
@<TRIPOS>MOLECULE
*****
 23 25 0 0 0
SMALL
GASTEIGER

@<TRIPOS>ATOM
      1 C          -9.1209  -18.5050   21.3884 C.2     1  UNL1        0.2486
      2 O          -9.1265  -19.7432   20.5418 O.2     1  UNL1       -0.2699
      3 N          -7.8206  -17.9245   21.8597 N.am    1  UNL1       -0.2779
      4 C         -11.1037  -18.2208   23.0431 C.ar    1  UNL1       -0.0181
      5 C         -12.3984  -17.5630   23.4183 C.ar    1  UNL1       -0.0041
      6 C         -13.0054  -16.5316   22.5140 C.ar    1  UNL1       -0.0003
      7 C         -12.3175  -16.1580   21.2345 C.ar    1  UNL1        0.0001
      8 C         -11.0227  -16.8157   20.8593 C.ar    1  UNL1        0.0042
      9 C         -10.4158  -17.8472   21.7636 C.ar    1  UNL1        0.0496
     10 C         -10.4711  -20.6930   23.5310 C.3     1  UNL1        0.0047
     11 C         -10.4968  -19.2522   23.9475 C.3     1  UNL1        0.0225
     12 C          -9.9155  -18.8429   25.2683 C.3     1  UNL1        0.0047
     13 C          -7.8151  -16.6863   22.7063 C.3     1  UNL1        0.0926
     14 C          -7.8214  -16.6432   24.2056 C.3     1  UNL1        0.0383
     15 C          -7.8124  -15.2040   24.6282 C.3     1  UNL1        0.0704
     16 N          -7.8006  -14.3575   23.3899 N.3     1  UNL1       -0.2960
     17 C          -7.8022  -15.2736   22.2021 C.3     1  UNL1        0.0887
     18 H          -6.9633  -13.7751   23.3767 H       1  UNL1        0.1233
     19 C          -6.5258  -18.5823   21.4845 C.3     1  UNL1        0.0756
     20 C          -6.1209  -19.0089   20.1046 C.3     1  UNL1        0.0198
     21 C          -4.7534  -19.6192   20.1906 C.3     1  UNL1        0.0018
     22 C          -4.3131  -19.5699   21.6237 C.3     1  UNL1        0.0018
     23 C          -5.4085  -18.9290   22.4234 C.3     1  UNL1        0.0198
@<TRIPOS>BOND
     1    10    11    1
     2    11    12    1
     3    11     4    1
     4     4     5   ar
     5     5     6   ar
     6     6     7   ar
     7     7     8   ar
     8     8     9   ar
     9     9     1    1
    10     1     2    2
    11     1     3   am
    12     3    19    1
    13    19    20    1
    14    20    21    1
    15    21    22    1
    16    22    23    1
    17    13     3    1
    18    13    14    1
    19    14    15    1
    20    15    16    1
    21    16    17    1
    22     9     4   ar
    23    23    19    1
    24    17    13    1
    25    16    18    1
@<TRIPOS>MOLECULE
*****
 23 25 0 0 0
SMALL
GASTEIGER

@<TRIPOS>ATOM
      1 C          -8.5827  -17.0362   22.2356 C.2     1  UNL1        0.2486
      2 O          -8.0394  -15.7094   21.7948 O.2     1  UNL1       -0.2699
      3 N          -8.5334  -17.4231   23.6839 N.am    1  UNL1       -0.2779
      4 C         -10.6650  -18.0933   21.0968 C.ar    1  UNL1       -0.0181
      5 C         -11.2575  -19.0332   20.0892 C.ar    1  UNL1       -0.0041
      6 C         -10.3605  -19.8561   19.2127 C.ar    1  UNL1       -0.0003
      7 C          -8.8709  -19.7390   19.3438 C.ar    1  UNL1        0.0001
      8 C          -8.2783  -18.7990   20.3514 C.ar    1  UNL1        0.0042
      9 C          -9.1753  -17.9762   21.2279 C.ar    1  UNL1        0.0496
     10 C         -11.5875  -15.7777   21.8293 C.3     1  UNL1        0.0047
     11 C         -11.5620  -17.2705   21.9733 C.3     1  UNL1        0.0225
     12 C         -12.4336  -17.9405   22.9938 C.3     1  UNL1        0.0047
     13 C          -9.0767  -18.7500   24.1248 C.3     1  UNL1        0.0926
     14 C          -8.7577  -20.0811   23.5114 C.3     1  UNL1        0.0383
     15 C          -9.5182  -21.1325   24.2639 C.3     1  UNL1        0.0704
     16 N         -10.3074  -20.4511   25.3423 N.3     1  UNL1       -0.2960
     17 C         -10.0345  -18.9786   25.2563 C.3     1  UNL1        0.0887
     18 H         -10.0212  -20.8034   26.2558 H       1  UNL1        0.1233
     19 C          -7.9407  -16.4832   24.6916 C.3     1  UNL1        0.0756
     20 C          -8.6291  -15.9527   25.9142 C.3     1  UNL1        0.0198
     21 C          -7.6695  -15.0503   26.6317 C.3     1  UNL1        0.0018
     22 C          -6.3879  -15.0231   25.8526 C.3     1  UNL1        0.0018
     23 C          -6.5556  -15.9087   24.6535 C.3     1  UNL1        0.0198
@<TRIPOS>BOND
     1    10    11    1
     2    11    12    1
     3    11     4    1
     4     4     5   ar
     5     5     6   ar
     6     6     7   ar
     7     7     8   ar
     8     8     9   ar
     9     9     1    1
    10     1     2    2
    11     1     3   am
    12     3    19    1
    13    19    20    1
    14    20    21    1
    15    21    22    1
    16    22    23    1
    17    13     3    1
    18    13    14    1
    19    14    15    1
    20    15    16    1
    21    16    17    1
    22     9     4   ar
    23    23    19    1
    24    17    13    1
    25    16    18    1
@<TRIPOS>MOLECULE
*****
 23 25 0 0 0
SMALL
GASTEIGER

@<TRIPOS>ATOM
      1 C          -9.0596  -18.1772   23.7383 C.2     1  UNL1        0.2486
      2 O          -9.0427  -19.0708   24.9430 O.2     1  UNL1       -0.2699
      3 N          -8.5935  -16.7561   23.8520 N.am    1  UNL1       -0.2779
      4 C         -11.0132  -18.7686   22.1308 C.ar    1  UNL1       -0.0181
      5 C         -11.4962  -19.2962   20.8124 C.ar    1  UNL1       -0.0041
      6 C         -10.5088  -19.7602   19.7830 C.ar    1  UNL1       -0.0003
      7 C          -9.0383  -19.6966   20.0720 C.ar    1  UNL1        0.0001
      8 C          -8.5553  -19.1690   21.3904 C.ar    1  UNL1        0.0042
      9 C          -9.5427  -18.7049   22.4198 C.ar    1  UNL1        0.0496
     10 C         -12.1715  -19.0742   24.4362 C.3     1  UNL1        0.0047
     11 C         -12.0007  -18.3045   23.1601 C.3     1  UNL1        0.0225
     12 C         -12.8173  -17.0708   22.9135 C.3     1  UNL1        0.0047
     13 C          -8.6104  -15.8625   22.6473 C.3     1  UNL1        0.0926
     14 C          -9.7709  -15.6546   21.7199 C.3     1  UNL1        0.0383
     15 C          -9.3475  -14.6836   20.6579 C.3     1  UNL1        0.0704
     16 N          -7.9253  -14.2914   20.9289 N.3     1  UNL1       -0.2960
     17 C          -7.4697  -15.0200   22.1584 C.3     1  UNL1        0.0887
     18 H          -7.8670  -13.2846   21.0817 H       1  UNL1        0.1233
     19 C          -8.1104  -16.2284   25.1704 C.3     1  UNL1        0.0756
     20 C          -8.9295  -16.0938   26.4198 C.3     1  UNL1        0.0198
     21 C          -8.0487  -15.5249   27.4924 C.3     1  UNL1        0.0018
     22 C          -6.6852  -15.3079   26.9060 C.3     1  UNL1        0.0018
     23 C          -6.7233  -15.7428   25.4708 C.3     1  UNL1        0.0198
@<TRIPOS>BOND
     1    10    11    1
     2    11    12    1
     3    11     4    1
     4     4     5   ar
     5     5     6   ar
     6     6     7   ar
     7     7     8   ar
     8     8     9   ar
     9     9     1    1
    10     1     2    2
    11     1     3   am
    12     3    19    1
    13    19    20    1
    14    20    21    1
    15    21    22    1
    16    22    23    1
    17    13     3    1
    18    13    14    1
    19    14    15    1
    20    15    16    1
    21    16    17    1
    22     9     4   ar
    23    23    19    1
    24    17    13    1
    25    16    18    1
@<TRIPOS>MOLECULE
*****
 23 25 0 0 0
SMALL
GASTEIGER

@<TRIPOS>ATOM
      1 C          -9.8871  -16.1577   23.6415 C.2     1  UNL1        0.2486
      2 O         -10.5625  -15.1786   24.5553 O.2     1  UNL1       -0.2699
      3 N          -8.5381  -16.7084   23.9975 N.am    1  UNL1       -0.2779
      4 C         -11.6576  -17.6084   22.4123 C.ar    1  UNL1       -0.0181
      5 C         -12.3312  -18.0367   21.1424 C.ar    1  UNL1       -0.0041
      6 C         -11.9079  -17.4427   19.8316 C.ar    1  UNL1       -0.0003
      7 C         -10.8110  -16.4204   19.7908 C.ar    1  UNL1        0.0001
      8 C         -10.1374  -15.9921   21.0607 C.ar    1  UNL1        0.0042
      9 C         -10.5607  -16.5861   22.3715 C.ar    1  UNL1        0.0496
     10 C         -13.4618  -17.9478   24.2507 C.3     1  UNL1        0.0047
     11 C         -12.0809  -18.2023   23.7230 C.3     1  UNL1        0.0225
     12 C         -11.1234  -19.0508   24.5060 C.3     1  UNL1        0.0047
     13 C          -7.8626  -17.6875   23.0836 C.3     1  UNL1        0.0926
     14 C          -8.3273  -19.0826   22.7876 C.3     1  UNL1        0.0383
     15 C          -7.3558  -19.7007   21.8263 C.3     1  UNL1        0.0704
     16 N          -6.2906  -18.6876   21.5282 N.3     1  UNL1       -0.2960
     17 C          -6.6038  -17.4433   22.3052 C.3     1  UNL1        0.0887
     18 H          -6.2810  -18.4789   20.5298 H       1  UNL1        0.1233
     19 C          -7.8644  -16.2800   25.2675 C.3     1  UNL1        0.0756
     20 C          -8.3472  -16.5605   26.6596 C.3     1  UNL1        0.0198
     21 C          -7.3709  -15.9498   27.6207 C.3     1  UNL1        0.0018
     22 C          -6.2845  -15.2918   26.8225 C.3     1  UNL1        0.0018
     23 C          -6.5896  -15.4959   25.3680 C.3     1  UNL1        0.0198
@<TRIPOS>BOND
     1    10    11    1
     2    11    12    1
     3    11     4    1
     4     4     5   ar
     5     5     6   ar
     6     6     7   ar
     7     7     8   ar
     8     8     9   ar
     9     9     1    1
    10     1     2    2
    11     1     3   am
    12     3    19    1
    13    19    20    1
    14    20    21    1
    15    21    22    1
    16    22    23    1
    17    13     3    1
    18    13    14    1
    19    14    15    1
    20    15    16    1
    21    16    17    1
    22     9     4   ar
    23    23    19    1
    24    17    13    1
    25    16    18    1
@<TRIPOS>MOLECULE
*****
 23 25 0 0 0
SMALL
GASTEIGER

@<TRIPOS>ATOM
      1 C          -9.2062  -16.8993   23.1441 C.2     1  UNL1        0.2486
      2 O          -9.9344  -15.9820   24.0813 O.2     1  UNL1       -0.2699
      3 N          -7.7175  -17.0503   23.2483 N.am    1  UNL1       -0.2779
      4 C         -10.4199  -19.0673   22.3846 C.ar    1  UNL1       -0.0181
      5 C         -11.1804  -19.8334   21.3432 C.ar    1  UNL1       -0.0041
      6 C         -11.4878  -19.1977   20.0198 C.ar    1  UNL1       -0.0003
      7 C         -11.0347  -17.7958   19.7378 C.ar    1  UNL1        0.0001
      8 C         -10.2742  -17.0297   20.7793 C.ar    1  UNL1        0.0042
      9 C          -9.9668  -17.6654   22.1027 C.ar    1  UNL1        0.0496
     10 C          -8.9671  -20.6638   23.8305 C.3     1  UNL1        0.0047
     11 C         -10.1124  -19.7030   23.7080 C.3     1  UNL1        0.0225
     12 C         -10.9503  -19.3779   24.9089 C.3     1  UNL1        0.0047
     13 C          -6.9893  -17.9676   22.3111 C.3     1  UNL1        0.0926
     14 C          -5.7308  -18.7239   22.6180 C.3     1  UNL1        0.0383
     15 C          -5.3554  -19.5133   21.3990 C.3     1  UNL1        0.0704
     16 N          -6.3819  -19.2448   20.3387 N.3     1  UNL1       -0.2960
     17 C          -7.3917  -18.2895   20.9024 C.3     1  UNL1        0.0887
     18 H          -6.8406  -20.1161   20.0725 H       1  UNL1        0.1233
     19 C          -6.9569  -16.2841   24.2898 C.3     1  UNL1        0.0756
     20 C          -5.6543  -15.5698   24.0829 C.3     1  UNL1        0.0198
     21 C          -5.2578  -14.9420   25.3862 C.3     1  UNL1        0.0018
     22 C          -6.3155  -15.2683   26.3987 C.3     1  UNL1        0.0018
     23 C          -7.3656  -16.0979   25.7210 C.3     1  UNL1        0.0198
@<TRIPOS>BOND
     1    10    11    1
     2    11    12    1
     3    11     4    1
     4     4     5   ar
     5     5     6   ar
     6     6     7   ar
     7     7     8   ar
     8     8     9   ar
     9     9     1    1
    10     1     2    2
    11     1     3   am
    12     3    19    1
    13    19    20    1
    14    20    21    1
    15    21    22    1
    16    22    23    1
    17    13     3    1
    18    13    14    1
    19    14    15    1
    20    15    16    1
    21    16    17    1
    22     9     4   ar
    23    23    19    1
    24    17    13    1
    25    16    18    1
@<TRIPOS>MOLECULE
*****
 23 25 0 0 0
SMALL
GASTEIGER

@<TRIPOS>ATOM
      1 C          -9.1752  -18.6096   23.3583 C.2     1  UNL1        0.2486
      2 O          -9.2249  -19.6298   24.4568 O.2     1  UNL1       -0.2699
      3 N          -8.9401  -17.1649   23.6864 N.am    1  UNL1       -0.2779
      4 C          -8.1810  -19.4911   21.1256 C.ar    1  UNL1       -0.0181
      5 C          -8.3665  -19.9155   19.6990 C.ar    1  UNL1       -0.0041
      6 C          -9.7316  -19.8830   19.0782 C.ar    1  UNL1       -0.0003
      7 C         -10.9112  -19.4259   19.8841 C.ar    1  UNL1        0.0001
      8 C         -10.7258  -19.0015   21.3107 C.ar    1  UNL1        0.0042
      9 C          -9.3607  -19.0341   21.9315 C.ar    1  UNL1        0.0496
     10 C          -6.2966  -20.7948   22.3500 C.3     1  UNL1        0.0047
     11 C          -6.8159  -19.5237   21.7464 C.3     1  UNL1        0.0225
     12 C          -5.9700  -18.2850   21.7636 C.3     1  UNL1        0.0047
     13 C          -8.8904  -16.1447   22.5879 C.3     1  UNL1        0.0926
     14 C         -10.0131  -15.7975   21.6557 C.3     1  UNL1        0.0383
     15 C          -9.5258  -14.7308   20.7204 C.3     1  UNL1        0.0704
     16 N          -8.1021  -14.4187   21.0746 N.3     1  UNL1       -0.2960
     17 C          -7.7094  -15.2926   22.2288 C.3     1  UNL1        0.0887
     18 H          -8.0184  -13.4373   21.3393 H       1  UNL1        0.1233
     19 C          -8.7547  -16.7405   25.1132 C.3     1  UNL1        0.0756
     20 C          -9.0359  -17.5774   26.3257 C.3     1  UNL1        0.0198
     21 C          -8.7105  -16.7587   27.5397 C.3     1  UNL1        0.0018
     22 C          -8.2281  -15.4157   27.0775 C.3     1  UNL1        0.0018
     23 C          -8.2554  -15.4044   25.5777 C.3     1  UNL1        0.0198
@<TRIPOS>BOND
     1    10    11    1
     2    11    12    1
     3    11     4    1
     4     4     5   ar
     5     5     6   ar
     6     6     7   ar
     7     7     8   ar
     8     8     9   ar
     9     9     1    1
    10     1     2    2
    11     1     3   am
    12     3    19    1
    13    19    20    1
    14    20    21    1
    15    21    22    1
    16    22    23    1
    17    13     3    1
    18    13    14    1
    19    14    15    1
    20    15    16    1
    21    16    17    1
    22     9     4   ar
    23    23    19    1
    24    17    13    1
    25    16    18    1
@<TRIPOS>MOLECULE
*****
 23 25 0 0 0
SMALL
GASTEIGER

@<TRIPOS>ATOM
      1 C          -8.7822  -17.1897   21.9168 C.2     1  UNL1        0.2486
      2 O          -7.9715  -16.3538   20.9713 O.2     1  UNL1       -0.2699
      3 N          -8.1084  -18.2206   22.7730 N.am    1  UNL1       -0.2779
      4 C         -11.1925  -17.9682   21.3386 C.ar    1  UNL1       -0.0181
      5 C         -12.6771  -17.7732   21.4278 C.ar    1  UNL1       -0.0041
      6 C         -13.2360  -16.6048   22.1844 C.ar    1  UNL1       -0.0003
      7 C         -12.3103  -15.6314   22.8518 C.ar    1  UNL1        0.0001
      8 C         -10.8257  -15.8264   22.7626 C.ar    1  UNL1        0.0042
      9 C         -10.2669  -16.9948   22.0060 C.ar    1  UNL1        0.0496
     10 C         -10.8573  -20.5320   21.0847 C.3     1  UNL1        0.0047
     11 C         -10.6337  -19.1366   20.5819 C.3     1  UNL1        0.0225
     12 C          -9.8512  -18.9097   19.3226 C.3     1  UNL1        0.0047
     13 C          -8.9191  -19.0566   23.7185 C.3     1  UNL1        0.0926
     14 C          -9.8638  -18.5408   24.7632 C.3     1  UNL1        0.0383
     15 C         -10.4560  -19.7205   25.4756 C.3     1  UNL1        0.0704
     16 N          -9.8773  -20.9654   24.8712 N.3     1  UNL1       -0.2960
     17 C          -8.9274  -20.5550   23.7852 C.3     1  UNL1        0.0887
     18 H         -10.6239  -21.5394   24.4794 H       1  UNL1        0.1233
     19 C          -6.6237  -18.4155   22.6838 C.3     1  UNL1        0.0756
     20 C          -5.5784  -17.4887   23.2299 C.3     1  UNL1        0.0198
     21 C          -4.2324  -18.0719   22.9165 C.3     1  UNL1        0.0018
     22 C          -4.4459  -19.3592   22.1766 C.3     1  UNL1        0.0018
     23 C          -5.9239  -19.5716   22.0328 C.3     1  UNL1        0.0198
@<TRIPOS>BOND
     1    10    11    1
     2    11    12    1
     3    11     4    1
     4     4     5   ar
     5     5     6   ar
     6     6     7   ar
     7     7     8   ar
     8     8     9   ar
     9     9     1    1
    10     1     2    2
    11     1     3   am
    12     3    19    1
    13    19    20    1
    14    20    21    1
    15    21    22    1
    16    22    23    1
    17    13     3    1
    18    13    14    1
    19    14    15    1
    20    15    16    1
    21    16    17    1
    22     9     4   ar
    23    23    19    1
    24    17    13    1
    25    16    18    1
