@<TRIPOS>MOLECULE
*****
 33 36 0 0 0
SMALL
GASTEIGER

@<TRIPOS>ATOM
      1 C          -8.1881  -17.3708   23.7347 C.3     1  UNL1        0.1548
      2 C          -7.6932  -16.5822   24.9108 C.ar    1  UNL1        0.0028
      3 C          -6.3181  -15.9834   24.8872 C.ar    1  UNL1       -0.0023
      4 C          -5.8232  -15.1948   26.0633 C.ar    1  UNL1       -0.0003
      5 C          -6.7035  -15.0052   27.2630 C.ar    1  UNL1       -0.0000
      6 C          -8.0785  -15.6040   27.2865 C.ar    1  UNL1       -0.0003
      7 C          -8.5734  -16.3926   26.1104 C.ar    1  UNL1       -0.0023
      8 N          -9.2795  -18.3836   23.9164 N.pl3   1  UNL1       -0.3245
      9 H          -9.1136  -19.1963   24.4467 H       1  UNL1        0.1474
     10 C         -13.2133  -18.0827   23.4870 C.ar    1  UNL1        0.1430
     11 C         -11.8690  -18.3080   24.1131 C.ar    1  UNL1        0.0514
     12 C         -10.6238  -18.1582   23.2902 C.ar    1  UNL1        0.0512
     13 C         -10.7229  -17.7830   21.8413 C.ar    1  UNL1        0.0514
     14 C         -12.0672  -17.5577   21.2152 C.ar    1  UNL1        0.1429
     15 C         -13.3124  -17.7075   22.0380 C.ar    1  UNL1        0.0738
     16 C         -14.3570  -18.4981   25.7825 C.3     1  UNL1        0.2525
     17 O         -14.4586  -18.2325   24.3097 O.3     1  UNL1       -0.4713
     18 O         -12.1663  -17.1825   19.7663 O.3     1  UNL1       -0.4726
     19 C         -12.0187  -15.7487   19.3510 C.3     1  UNL1        0.2370
     20 C         -10.6532  -15.1411   19.2247 C.3     1  UNL1        0.1847
     21 O          -9.8724  -14.7884   20.4559 O.3     1  UNL1       -0.3784
     22 H         -10.3245  -14.0743   20.9319 H       1  UNL1        0.2106
     23 C          -7.5915  -17.1466   22.3767 C.2     1  UNL1        0.1964
     24 O          -7.7015  -15.8015   21.7221 O.2     1  UNL1       -0.2892
     25 C          -6.8850  -18.2674   21.6735 C.2     1  UNL1        0.0569
     26 C          -7.5137  -19.2559   20.7367 C.2     1  UNL1        0.1014
     27 N          -6.4430  -20.1960   20.2679 N.2     1  UNL1       -0.2477
     28 C          -5.1525  -19.7885   20.9150 C.2     1  UNL1        0.0635
     29 C          -3.7640  -20.3488   20.8253 C.3     1  UNL1        0.0717
     30 C          -2.6487  -19.7171   21.6044 C.2     1  UNL1       -0.0198
     31 C          -2.9219  -18.5252   22.4731 C.2     1  UNL1       -0.0041
     32 C          -4.3104  -17.9649   22.5628 C.2     1  UNL1        0.0010
     33 C          -5.4257  -18.5966   21.7837 C.2     1  UNL1        0.0182
@<TRIPOS>BOND
     1    16    17    1
     2    17    10    1
     3    10    11   ar
     4    11    12   ar
     5    12     8    1
     6     8     1    1
     7     1    23    1
     8    23    24    2
     9    23    25    1
    10    25    26    2
    11    26    27    1
    12    27    28    2
    13    28    29    1
    14    29    30    1
    15    30    31    2
    16    31    32    1
    17    32    33    2
    18     1     2    1
    19     2     3   ar
    20     3     4   ar
    21     4     5   ar
    22     5     6   ar
    23     6     7   ar
    24    12    13   ar
    25    13    14   ar
    26    14    18    1
    27    18    19    1
    28    19    20    1
    29    20    21    1
    30    14    15   ar
    31    15    10   ar
    32    33    25    1
    33     7     2   ar
    34    33    28    1
    35     8     9    1
    36    21    22    1
@<TRIPOS>MOLECULE
*****
 33 36 0 0 0
SMALL
GASTEIGER

@<TRIPOS>ATOM
      1 C          -6.9087  -19.1530   20.8355 C.3     1  UNL1        0.1548
      2 C          -7.5309  -20.0439   19.8015 C.ar    1  UNL1        0.0028
      3 C          -8.8395  -19.6645   19.1740 C.ar    1  UNL1       -0.0023
      4 C          -9.4617  -20.5554   18.1400 C.ar    1  UNL1       -0.0003
      5 C          -8.7753  -21.8257   17.7336 C.ar    1  UNL1       -0.0000
      6 C          -7.4668  -22.2051   18.3611 C.ar    1  UNL1       -0.0003
      7 C          -6.8446  -21.3142   19.3951 C.ar    1  UNL1       -0.0023
      8 N          -7.3134  -17.7114   20.9250 N.pl3   1  UNL1       -0.3245
      9 H          -7.0432  -17.0797   20.2199 H       1  UNL1        0.1474
     10 C          -8.2817  -16.0343   24.3889 C.ar    1  UNL1        0.1430
     11 C          -7.4654  -16.5134   23.2252 C.ar    1  UNL1        0.0514
     12 C          -8.1297  -17.2323   22.0886 C.ar    1  UNL1        0.0512
     13 C          -9.6101  -17.4721   22.1156 C.ar    1  UNL1        0.0514
     14 C         -10.4264  -16.9930   23.2793 C.ar    1  UNL1        0.1429
     15 C          -9.7621  -16.2741   24.4160 C.ar    1  UNL1        0.0738
     16 C          -6.1281  -15.3851   25.6892 C.3     1  UNL1        0.2525
     17 O          -7.6175  -15.3154   25.5257 O.3     1  UNL1       -0.4713
     18 O         -11.9068  -17.2328   23.3063 O.3     1  UNL1       -0.4726
     19 C         -12.4713  -18.3456   24.1387 C.3     1  UNL1        0.2370
     20 C         -13.8906  -18.2772   24.6192 C.3     1  UNL1        0.1847
     21 O         -14.2252  -18.6695   26.0278 O.3     1  UNL1       -0.3784
     22 H         -14.0587  -19.6176   26.1476 H       1  UNL1        0.2106
     23 C          -5.8817  -19.7038   21.7801 C.2     1  UNL1        0.1964
     24 O          -6.1434  -20.9903   22.5054 O.2     1  UNL1       -0.2892
     25 C          -4.5932  -18.9678   21.9993 C.2     1  UNL1        0.0569
     26 C          -4.1149  -18.3958   23.3009 C.2     1  UNL1        0.1014
     27 N          -2.7828  -17.7492   23.0613 N.2     1  UNL1       -0.2477
     28 C          -2.4378  -17.9216   21.6118 C.2     1  UNL1        0.0635
     29 C          -1.2494  -17.4901   20.8047 C.3     1  UNL1        0.0717
     30 C          -1.1798  -17.8117   19.3413 C.2     1  UNL1       -0.0198
     31 C          -2.2987  -18.5649   18.6849 C.2     1  UNL1       -0.0041
     32 C          -3.4871  -18.9964   19.4920 C.2     1  UNL1        0.0010
     33 C          -3.5567  -18.6748   20.9554 C.2     1  UNL1        0.0182
@<TRIPOS>BOND
     1    16    17    1
     2    17    10    1
     3    10    11   ar
     4    11    12   ar
     5    12     8    1
     6     8     1    1
     7     1    23    1
     8    23    24    2
     9    23    25    1
    10    25    26    2
    11    26    27    1
    12    27    28    2
    13    28    29    1
    14    29    30    1
    15    30    31    2
    16    31    32    1
    17    32    33    2
    18     1     2    1
    19     2     3   ar
    20     3     4   ar
    21     4     5   ar
    22     5     6   ar
    23     6     7   ar
    24    12    13   ar
    25    13    14   ar
    26    14    18    1
    27    18    19    1
    28    19    20    1
    29    20    21    1
    30    14    15   ar
    31    15    10   ar
    32    33    25    1
    33     7     2   ar
    34    33    28    1
    35     8     9    1
    36    21    22    1
@<TRIPOS>MOLECULE
*****
 33 36 0 0 0
SMALL
GASTEIGER

@<TRIPOS>ATOM
      1 C          -6.9174  -19.1690   20.8258 C.3     1  UNL1        0.1548
      2 C          -7.5278  -20.0492   19.7757 C.ar    1  UNL1        0.0028
      3 C          -8.8225  -19.6567   19.1279 C.ar    1  UNL1       -0.0023
      4 C          -9.4329  -20.5369   18.0778 C.ar    1  UNL1       -0.0003
      5 C          -8.7486  -21.8096   17.6756 C.ar    1  UNL1       -0.0000
      6 C          -7.4539  -22.2022   18.3235 C.ar    1  UNL1       -0.0003
      7 C          -6.8435  -21.3220   19.3735 C.ar    1  UNL1       -0.0023
      8 N          -7.3610  -17.7423   20.9591 N.pl3   1  UNL1       -0.3245
      9 H          -7.0050  -17.0571   20.3484 H       1  UNL1        0.1474
     10 C         -10.7978  -16.9264   22.7680 C.ar    1  UNL1        0.1430
     11 C          -9.8118  -17.3090   21.7043 C.ar    1  UNL1        0.0514
     12 C          -8.3469  -17.3597   22.0228 C.ar    1  UNL1        0.0512
     13 C          -7.8679  -17.0277   23.4050 C.ar    1  UNL1        0.0514
     14 C          -8.8539  -16.6450   24.4686 C.ar    1  UNL1        0.1429
     15 C         -10.3188  -16.5944   24.1502 C.ar    1  UNL1        0.0738
     16 C         -13.2293  -17.7169   23.2295 C.3     1  UNL1        0.2525
     17 O         -12.2628  -16.8757   22.4496 O.3     1  UNL1       -0.4713
     18 O          -8.3749  -16.3130   25.8508 O.3     1  UNL1       -0.4726
     19 C          -7.3808  -15.2085   26.0550 C.3     1  UNL1        0.2370
     20 C          -5.9128  -15.4868   25.9233 C.3     1  UNL1        0.1847
     21 O          -5.1367  -14.8959   24.7838 O.3     1  UNL1       -0.3784
     22 H          -5.4496  -15.2760   23.9480 H       1  UNL1        0.2106
     23 C          -5.8633  -19.7155   21.7425 C.2     1  UNL1        0.1964
     24 O          -6.0834  -21.0236   22.4427 O.2     1  UNL1       -0.2892
     25 C          -4.5894  -18.9539   21.9590 C.2     1  UNL1        0.0569
     26 C          -4.1239  -18.3651   23.2577 C.2     1  UNL1        0.1014
     27 N          -2.8041  -17.6946   23.0161 N.2     1  UNL1       -0.2477
     28 C          -2.4538  -17.8690   21.5680 C.2     1  UNL1        0.0635
     29 C          -1.2727  -17.4197   20.7599 C.3     1  UNL1        0.0717
     30 C          -1.1949  -17.7487   19.2985 C.2     1  UNL1       -0.0198
     31 C          -2.2983  -18.5269   18.6452 C.2     1  UNL1       -0.0041
     32 C          -3.4794  -18.9762   19.4533 C.2     1  UNL1        0.0010
     33 C          -3.5572  -18.6473   20.9147 C.2     1  UNL1        0.0182
@<TRIPOS>BOND
     1    16    17    1
     2    17    10    1
     3    10    11   ar
     4    11    12   ar
     5    12     8    1
     6     8     1    1
     7     1    23    1
     8    23    24    2
     9    23    25    1
    10    25    26    2
    11    26    27    1
    12    27    28    2
    13    28    29    1
    14    29    30    1
    15    30    31    2
    16    31    32    1
    17    32    33    2
    18     1     2    1
    19     2     3   ar
    20     3     4   ar
    21     4     5   ar
    22     5     6   ar
    23     6     7   ar
    24    12    13   ar
    25    13    14   ar
    26    14    18    1
    27    18    19    1
    28    19    20    1
    29    20    21    1
    30    14    15   ar
    31    15    10   ar
    32    33    25    1
    33     7     2   ar
    34    33    28    1
    35     8     9    1
    36    21    22    1
@<TRIPOS>MOLECULE
*****
 33 36 0 0 0
SMALL
GASTEIGER

@<TRIPOS>ATOM
      1 C          -6.8881  -18.7060   21.6667 C.3     1  UNL1        0.1548
      2 C          -8.2748  -19.2129   21.4020 C.ar    1  UNL1        0.0028
      3 C          -8.8205  -19.2100   20.0048 C.ar    1  UNL1       -0.0023
      4 C         -10.2072  -19.7169   19.7401 C.ar    1  UNL1       -0.0003
      5 C         -11.0483  -20.2265   20.8727 C.ar    1  UNL1       -0.0000
      6 C         -10.5026  -20.2293   22.2700 C.ar    1  UNL1       -0.0003
      7 C          -9.1159  -19.7225   22.5346 C.ar    1  UNL1       -0.0023
      8 N          -6.6888  -17.3512   22.2787 N.pl3   1  UNL1       -0.3245
      9 H          -5.8222  -16.8928   22.1883 H       1  UNL1        0.1474
     10 C          -8.7272  -15.5991   25.1984 C.ar    1  UNL1        0.1430
     11 C          -7.6063  -16.2556   24.4484 C.ar    1  UNL1        0.0514
     12 C          -7.8098  -16.6947   23.0286 C.ar    1  UNL1        0.0512
     13 C          -9.1341  -16.4772   22.3587 C.ar    1  UNL1        0.0514
     14 C         -10.2551  -15.8207   23.1087 C.ar    1  UNL1        0.1429
     15 C         -10.0516  -15.3816   24.5285 C.ar    1  UNL1        0.0738
     16 C          -7.2332  -15.4635   27.3196 C.3     1  UNL1        0.2525
     17 O          -8.5239  -15.1600   26.6182 O.3     1  UNL1       -0.4713
     18 O         -11.5794  -15.6032   22.4388 O.3     1  UNL1       -0.4726
     19 C         -12.0196  -16.5161   21.3331 C.3     1  UNL1        0.2370
     20 C         -11.6229  -16.2238   19.9164 C.3     1  UNL1        0.1847
     21 O         -12.5308  -15.4194   19.0340 O.3     1  UNL1       -0.3784
     22 H         -13.3491  -15.9151   18.8745 H       1  UNL1        0.2106
     23 C          -5.7005  -19.5541   21.3192 C.2     1  UNL1        0.1964
     24 O          -5.8978  -20.8853   20.6566 O.2     1  UNL1       -0.2892
     25 C          -4.3159  -19.0710   21.6344 C.2     1  UNL1        0.0569
     26 C          -3.7257  -18.9191   23.0050 C.2     1  UNL1        0.1014
     27 N          -2.3234  -18.4091   22.8519 N.2     1  UNL1       -0.2477
     28 C          -2.0469  -18.2458   21.3867 C.2     1  UNL1        0.0635
     29 C          -0.8329  -17.7775   20.6405 C.3     1  UNL1        0.0717
     30 C          -0.8503  -17.7183   19.1418 C.2     1  UNL1       -0.0198
     31 C          -2.0818  -18.1274   18.3893 C.2     1  UNL1       -0.0041
     32 C          -3.2958  -18.5957   19.1355 C.2     1  UNL1        0.0010
     33 C          -3.2783  -18.6549   20.6342 C.2     1  UNL1        0.0182
@<TRIPOS>BOND
     1    16    17    1
     2    17    10    1
     3    10    11   ar
     4    11    12   ar
     5    12     8    1
     6     8     1    1
     7     1    23    1
     8    23    24    2
     9    23    25    1
    10    25    26    2
    11    26    27    1
    12    27    28    2
    13    28    29    1
    14    29    30    1
    15    30    31    2
    16    31    32    1
    17    32    33    2
    18     1     2    1
    19     2     3   ar
    20     3     4   ar
    21     4     5   ar
    22     5     6   ar
    23     6     7   ar
    24    12    13   ar
    25    13    14   ar
    26    14    18    1
    27    18    19    1
    28    19    20    1
    29    20    21    1
    30    14    15   ar
    31    15    10   ar
    32    33    25    1
    33     7     2   ar
    34    33    28    1
    35     8     9    1
    36    21    22    1
@<TRIPOS>MOLECULE
*****
 33 36 0 0 0
SMALL
GASTEIGER

@<TRIPOS>ATOM
      1 C          -9.8102  -17.2468   22.1743 C.3     1  UNL1        0.1548
      2 C         -11.0579  -17.6111   22.9230 C.ar    1  UNL1        0.0028
      3 C         -12.3895  -17.1056   22.4524 C.ar    1  UNL1       -0.0023
      4 C         -13.6372  -17.4698   23.2011 C.ar    1  UNL1       -0.0003
      5 C         -13.5533  -18.3395   24.4203 C.ar    1  UNL1       -0.0000
      6 C         -12.2217  -18.8450   24.8909 C.ar    1  UNL1       -0.0003
      7 C         -10.9740  -18.4808   24.1422 C.ar    1  UNL1       -0.0023
      8 N          -9.1547  -15.9185   22.4104 N.pl3   1  UNL1       -0.3245
      9 H          -9.5024  -15.1120   21.9655 H       1  UNL1        0.1474
     10 C          -6.9866  -15.4929   25.7070 C.ar    1  UNL1        0.1430
     11 C          -8.1719  -15.5925   24.7931 C.ar    1  UNL1        0.0514
     12 C          -7.9694  -15.8189   23.3242 C.ar    1  UNL1        0.0512
     13 C          -6.5816  -15.9458   22.7692 C.ar    1  UNL1        0.0514
     14 C          -5.3964  -15.8462   23.6831 C.ar    1  UNL1        0.1429
     15 C          -5.5989  -15.6198   25.1520 C.ar    1  UNL1        0.0738
     16 C          -8.4776  -15.6733   27.8270 C.3     1  UNL1        0.2525
     17 O          -7.1890  -15.2664   27.1760 O.3     1  UNL1       -0.4713
     18 O          -4.0086  -15.9731   23.1281 O.3     1  UNL1       -0.4726
     19 C          -3.4298  -17.3304   22.8586 C.3     1  UNL1        0.2370
     20 C          -2.1582  -17.4612   22.0738 C.3     1  UNL1        0.1847
     21 O          -1.3207  -18.6988   22.2035 O.3     1  UNL1       -0.3784
     22 H          -0.9625  -18.7540   23.1032 H       1  UNL1        0.2106
     23 C          -9.2180  -18.2110   21.1894 C.2     1  UNL1        0.1964
     24 O          -9.7029  -18.2257   19.7701 O.2     1  UNL1       -0.2892
     25 C          -8.1411  -19.1604   21.6240 C.2     1  UNL1        0.0569
     26 C          -8.2339  -20.1405   22.7557 C.2     1  UNL1        0.1014
     27 N          -6.9324  -20.8822   22.8343 N.2     1  UNL1       -0.2477
     28 C          -6.0353  -20.3604   21.7512 C.2     1  UNL1        0.0635
     29 C          -4.6348  -20.7167   21.3495 C.3     1  UNL1        0.0717
     30 C          -3.9813  -20.0089   20.1998 C.2     1  UNL1       -0.0198
     31 C          -4.7283  -18.9448   19.4518 C.2     1  UNL1       -0.0041
     32 C          -6.1288  -18.5884   19.8535 C.2     1  UNL1        0.0010
     33 C          -6.7824  -19.2962   21.0032 C.2     1  UNL1        0.0182
@<TRIPOS>BOND
     1    16    17    1
     2    17    10    1
     3    10    11   ar
     4    11    12   ar
     5    12     8    1
     6     8     1    1
     7     1    23    1
     8    23    24    2
     9    23    25    1
    10    25    26    2
    11    26    27    1
    12    27    28    2
    13    28    29    1
    14    29    30    1
    15    30    31    2
    16    31    32    1
    17    32    33    2
    18     1     2    1
    19     2     3   ar
    20     3     4   ar
    21     4     5   ar
    22     5     6   ar
    23     6     7   ar
    24    12    13   ar
    25    13    14   ar
    26    14    18    1
    27    18    19    1
    28    19    20    1
    29    20    21    1
    30    14    15   ar
    31    15    10   ar
    32    33    25    1
    33     7     2   ar
    34    33    28    1
    35     8     9    1
    36    21    22    1
@<TRIPOS>MOLECULE
*****
 33 36 0 0 0
SMALL
GASTEIGER

@<TRIPOS>ATOM
      1 C          -7.9460  -18.3031   20.9038 C.3     1  UNL1        0.1548
      2 C          -6.6542  -19.0482   20.7429 C.ar    1  UNL1        0.0028
      3 C          -5.6281  -18.5669   19.7604 C.ar    1  UNL1       -0.0023
      4 C          -4.3362  -19.3120   19.5995 C.ar    1  UNL1       -0.0003
      5 C          -4.0705  -20.5385   20.4211 C.ar    1  UNL1       -0.0000
      6 C          -5.0967  -21.0199   21.4036 C.ar    1  UNL1       -0.0003
      7 C          -6.3885  -20.2747   21.5645 C.ar    1  UNL1       -0.0023
      8 N          -7.9637  -16.9740   21.5988 N.pl3   1  UNL1       -0.3245
      9 H          -8.5498  -16.2544   21.2703 H       1  UNL1        0.1474
     10 C          -6.7546  -15.7831   25.1862 C.ar    1  UNL1        0.1430
     11 C          -7.6299  -16.0161   23.9906 C.ar    1  UNL1        0.0514
     12 C          -7.0882  -16.7410   22.7944 C.ar    1  UNL1        0.0512
     13 C          -5.6712  -17.2330   22.7937 C.ar    1  UNL1        0.0514
     14 C          -4.7959  -17.0000   23.9893 C.ar    1  UNL1        0.1429
     15 C          -5.3375  -16.2751   25.1856 C.ar    1  UNL1        0.0738
     16 C          -8.2868  -15.7336   27.2838 C.3     1  UNL1        0.2525
     17 O          -7.2961  -15.0581   26.3826 O.3     1  UNL1       -0.4713
     18 O          -3.3789  -17.4920   23.9886 O.3     1  UNL1       -0.4726
     19 C          -2.7610  -17.9975   22.7187 C.3     1  UNL1        0.2370
     20 C          -2.1856  -17.0299   21.7275 C.3     1  UNL1        0.1847
     21 O          -2.6159  -15.5930   21.7455 O.3     1  UNL1       -0.3784
     22 H          -3.5537  -15.5333   21.5051 H       1  UNL1        0.2106
     23 C          -9.2203  -18.8872   20.3697 C.2     1  UNL1        0.1964
     24 O          -9.1727  -20.0322   19.4021 O.2     1  UNL1       -0.2892
     25 C         -10.5421  -18.3261   20.8034 C.2     1  UNL1        0.0569
     26 C         -11.4683  -17.4999   19.9610 C.2     1  UNL1        0.1014
     27 N         -12.6684  -17.1559   20.7926 N.2     1  UNL1       -0.2477
     28 C         -12.4839  -17.7695   22.1489 C.2     1  UNL1        0.0635
     29 C         -13.3427  -17.7631   23.3786 C.3     1  UNL1        0.0717
     30 C         -12.8873  -18.4799   24.6151 C.2     1  UNL1       -0.0198
     31 C         -11.5732  -19.2031   24.6217 C.2     1  UNL1       -0.0041
     32 C         -10.7144  -19.2095   23.3920 C.2     1  UNL1        0.0010
     33 C         -11.1697  -18.4927   22.1555 C.2     1  UNL1        0.0182
@<TRIPOS>BOND
     1    16    17    1
     2    17    10    1
     3    10    11   ar
     4    11    12   ar
     5    12     8    1
     6     8     1    1
     7     1    23    1
     8    23    24    2
     9    23    25    1
    10    25    26    2
    11    26    27    1
    12    27    28    2
    13    28    29    1
    14    29    30    1
    15    30    31    2
    16    31    32    1
    17    32    33    2
    18     1     2    1
    19     2     3   ar
    20     3     4   ar
    21     4     5   ar
    22     5     6   ar
    23     6     7   ar
    24    12    13   ar
    25    13    14   ar
    26    14    18    1
    27    18    19    1
    28    19    20    1
    29    20    21    1
    30    14    15   ar
    31    15    10   ar
    32    33    25    1
    33     7     2   ar
    34    33    28    1
    35     8     9    1
    36    21    22    1
@<TRIPOS>MOLECULE
*****
 33 36 0 0 0
SMALL
GASTEIGER

@<TRIPOS>ATOM
      1 C          -6.4725  -18.7630   20.7458 C.3     1  UNL1        0.1548
      2 C          -5.0183  -19.0153   21.0136 C.ar    1  UNL1        0.0028
      3 C          -4.0574  -19.1500   19.8697 C.ar    1  UNL1       -0.0023
      4 C          -2.6032  -19.4024   20.1375 C.ar    1  UNL1       -0.0003
      5 C          -2.1101  -19.5201   21.5491 C.ar    1  UNL1       -0.0000
      6 C          -3.0710  -19.3854   22.6930 C.ar    1  UNL1       -0.0003
      7 C          -4.5252  -19.1331   22.4253 C.ar    1  UNL1       -0.0023
      8 N          -7.0065  -17.3614   20.7654 N.pl3   1  UNL1       -0.3245
      9 H          -6.8147  -16.7510   20.0171 H       1  UNL1        0.1474
     10 C          -8.0208  -16.2159   24.4271 C.ar    1  UNL1        0.1430
     11 C          -7.1947  -16.6876   23.2675 C.ar    1  UNL1        0.0514
     12 C          -7.8327  -16.8896   21.9250 C.ar    1  UNL1        0.0512
     13 C          -9.2969  -16.6199   21.7423 C.ar    1  UNL1        0.0514
     14 C         -10.1230  -16.1482   22.9020 C.ar    1  UNL1        0.1429
     15 C          -9.4850  -15.9462   24.2444 C.ar    1  UNL1        0.0738
     16 C          -8.2086  -15.5398   26.9287 C.3     1  UNL1        0.2525
     17 O          -7.3829  -16.0139   25.7696 O.3     1  UNL1       -0.4713
     18 O         -11.5872  -15.8784   22.7192 O.3     1  UNL1       -0.4726
     19 C         -12.2687  -16.2720   21.4423 C.3     1  UNL1        0.2370
     20 C         -11.6609  -15.9003   20.1223 C.3     1  UNL1        0.1847
     21 O         -12.5386  -15.4467   18.9936 O.3     1  UNL1       -0.3784
     22 H         -13.1060  -16.1807   18.7102 H       1  UNL1        0.2106
     23 C          -7.3927  -19.9122   20.4585 C.2     1  UNL1        0.1964
     24 O          -6.8478  -21.1808   19.8722 O.2     1  UNL1       -0.2892
     25 C          -8.8578  -19.7928   20.7574 C.2     1  UNL1        0.0569
     26 C          -9.9584  -19.6838   19.7440 C.2     1  UNL1        0.1014
     27 N         -11.2602  -19.5851   20.4826 N.2     1  UNL1       -0.2477
     28 C         -10.9642  -19.6331   21.9523 C.2     1  UNL1        0.0635
     29 C         -11.8549  -19.5764   23.1579 C.3     1  UNL1        0.0717
     30 C         -11.2608  -19.6482   24.5333 C.2     1  UNL1       -0.0198
     31 C          -9.7760  -19.7766   24.7031 C.2     1  UNL1       -0.0041
     32 C          -8.8853  -19.8332   23.4976 C.2     1  UNL1        0.0010
     33 C          -9.4794  -19.7614   22.1221 C.2     1  UNL1        0.0182
@<TRIPOS>BOND
     1    16    17    1
     2    17    10    1
     3    10    11   ar
     4    11    12   ar
     5    12     8    1
     6     8     1    1
     7     1    23    1
     8    23    24    2
     9    23    25    1
    10    25    26    2
    11    26    27    1
    12    27    28    2
    13    28    29    1
    14    29    30    1
    15    30    31    2
    16    31    32    1
    17    32    33    2
    18     1     2    1
    19     2     3   ar
    20     3     4   ar
    21     4     5   ar
    22     5     6   ar
    23     6     7   ar
    24    12    13   ar
    25    13    14   ar
    26    14    18    1
    27    18    19    1
    28    19    20    1
    29    20    21    1
    30    14    15   ar
    31    15    10   ar
    32    33    25    1
    33     7     2   ar
    34    33    28    1
    35     8     9    1
    36    21    22    1
@<TRIPOS>MOLECULE
*****
 33 36 0 0 0
SMALL
GASTEIGER

@<TRIPOS>ATOM
      1 C         -13.4754   -5.0530   18.6756 C.3     1  UNL1        0.1548
      2 C         -12.1531   -5.7520   18.5615 C.ar    1  UNL1        0.0028
      3 C         -12.0573   -7.0620   17.8372 C.ar    1  UNL1       -0.0023
      4 C         -10.7350   -7.7610   17.7230 C.ar    1  UNL1       -0.0003
      5 C          -9.5086   -7.1499   18.3333 C.ar    1  UNL1       -0.0000
      6 C          -9.6044   -5.8399   19.0576 C.ar    1  UNL1       -0.0003
      7 C         -10.9267   -5.1409   19.1717 C.ar    1  UNL1       -0.0023
      8 N         -14.6485   -5.5317   17.8727 N.pl3   1  UNL1       -0.3245
      9 H         -14.6850   -5.3599   16.9040 H       1  UNL1        0.1474
     10 C         -16.7500   -8.4803   19.4971 C.ar    1  UNL1        0.1430
     11 C         -15.6325   -7.7399   18.8241 C.ar    1  UNL1        0.0514
     12 C         -15.7661   -6.2720   18.5457 C.ar    1  UNL1        0.0512
     13 C         -17.0172   -5.5446   18.9402 C.ar    1  UNL1        0.0514
     14 C         -18.1347   -6.2851   19.6131 C.ar    1  UNL1        0.1429
     15 C         -18.0011   -7.7529   19.8916 C.ar    1  UNL1        0.0738
     16 C         -17.0728  -10.9495   18.7563 C.3     1  UNL1        0.2525
     17 O         -16.6165   -9.9482   19.7756 O.3     1  UNL1       -0.4713
     18 O         -19.3858   -5.5576   20.0076 O.3     1  UNL1       -0.4726
     19 C         -19.7762   -4.2964   19.2957 C.3     1  UNL1        0.2370
     20 C         -19.4981   -2.9633   19.9246 C.3     1  UNL1        0.1847
     21 O         -18.9622   -2.8913   21.3237 O.3     1  UNL1       -0.3784
     22 H         -19.6290   -3.2270   21.9430 H       1  UNL1        0.2106
     23 C         -13.6246   -3.8754   19.5928 C.2     1  UNL1        0.1964
     24 O         -13.8899   -4.0911   21.0532 O.2     1  UNL1       -0.2892
     25 C         -13.5083   -2.4821   19.0493 C.2     1  UNL1        0.0569
     26 C         -12.3885   -1.9574   18.2005 C.2     1  UNL1        0.1014
     27 N         -12.6797   -0.5200   17.8859 N.2     1  UNL1       -0.2477
     28 C         -13.9795   -0.1563   18.5402 C.2     1  UNL1        0.0635
     29 C         -14.7629    1.1224   18.5742 C.3     1  UNL1        0.0717
     30 C         -16.0584    1.1884   19.3273 C.2     1  UNL1       -0.0198
     31 C         -16.5706   -0.0243   20.0464 C.2     1  UNL1       -0.0041
     32 C         -15.7872   -1.3030   20.0124 C.2     1  UNL1        0.0010
     33 C         -14.4917   -1.3690   19.2593 C.2     1  UNL1        0.0182
@<TRIPOS>BOND
     1    16    17    1
     2    17    10    1
     3    10    11   ar
     4    11    12   ar
     5    12     8    1
     6     8     1    1
     7     1    23    1
     8    23    24    2
     9    23    25    1
    10    25    26    2
    11    26    27    1
    12    27    28    2
    13    28    29    1
    14    29    30    1
    15    30    31    2
    16    31    32    1
    17    32    33    2
    18     1     2    1
    19     2     3   ar
    20     3     4   ar
    21     4     5   ar
    22     5     6   ar
    23     6     7   ar
    24    12    13   ar
    25    13    14   ar
    26    14    18    1
    27    18    19    1
    28    19    20    1
    29    20    21    1
    30    14    15   ar
    31    15    10   ar
    32    33    25    1
    33     7     2   ar
    34    33    28    1
    35     8     9    1
    36    21    22    1
@<TRIPOS>MOLECULE
*****
 33 36 0 0 0
SMALL
GASTEIGER

@<TRIPOS>ATOM
      1 C         -13.6766   -4.4315   18.9924 C.3     1  UNL1        0.1548
      2 C         -12.3171   -5.0640   18.9488 C.ar    1  UNL1        0.0028
      3 C         -11.0884   -4.2064   19.0163 C.ar    1  UNL1       -0.0023
      4 C          -9.7289   -4.8388   18.9727 C.ar    1  UNL1       -0.0003
      5 C          -9.5983   -6.3290   18.8615 C.ar    1  UNL1       -0.0000
      6 C         -10.8271   -7.1866   18.7940 C.ar    1  UNL1       -0.0003
      7 C         -12.1865   -6.5541   18.8376 C.ar    1  UNL1       -0.0023
      8 N         -14.7724   -4.9471   18.1073 N.pl3   1  UNL1       -0.3245
      9 H         -14.7393   -4.7838   17.1370 H       1  UNL1        0.1474
     10 C         -18.3508   -5.7717   19.6121 C.ar    1  UNL1        0.1430
     11 C         -17.2045   -5.0075   19.0188 C.ar    1  UNL1        0.0514
     12 C         -15.9186   -5.7113   18.7006 C.ar    1  UNL1        0.0512
     13 C         -15.7791   -7.1793   18.9755 C.ar    1  UNL1        0.0514
     14 C         -16.9255   -7.9434   19.5688 C.ar    1  UNL1        0.1429
     15 C         -18.2113   -7.2397   19.8870 C.ar    1  UNL1        0.0738
     16 C         -20.2054   -4.0714   18.9643 C.3     1  UNL1        0.2525
     17 O         -19.6367   -5.0680   19.9304 O.3     1  UNL1       -0.4713
     18 O         -16.7859   -9.4114   19.8438 O.3     1  UNL1       -0.4726
     19 C         -16.9436  -10.4017   18.7283 C.3     1  UNL1        0.2370
     20 C         -18.1719  -10.3730   17.8678 C.3     1  UNL1        0.1847
     21 O         -19.3765  -11.1795   18.2530 O.3     1  UNL1       -0.3784
     22 H         -19.1634  -12.1244   18.2003 H       1  UNL1        0.2106
     23 C         -13.9402   -3.2834   19.9212 C.2     1  UNL1        0.1964
     24 O         -13.7413   -3.4528   21.3982 O.2     1  UNL1       -0.2892
     25 C         -14.4026   -1.9661   19.3728 C.2     1  UNL1        0.0569
     26 C         -15.7827   -1.3927   19.5023 C.2     1  UNL1        0.1014
     27 N         -15.7991   -0.0631   18.8081 N.2     1  UNL1       -0.2477
     28 C         -14.4293    0.1853   18.2496 C.2     1  UNL1        0.0635
     29 C         -13.8565    1.3304   17.4683 C.3     1  UNL1        0.0717
     30 C         -12.4205    1.2994   17.0360 C.2     1  UNL1       -0.0198
     31 C         -11.5574    0.1233   17.3850 C.2     1  UNL1       -0.0041
     32 C         -12.1303   -1.0218   18.1662 C.2     1  UNL1        0.0010
     33 C         -13.5662   -0.9908   18.5986 C.2     1  UNL1        0.0182
@<TRIPOS>BOND
     1    16    17    1
     2    17    10    1
     3    10    11   ar
     4    11    12   ar
     5    12     8    1
     6     8     1    1
     7     1    23    1
     8    23    24    2
     9    23    25    1
    10    25    26    2
    11    26    27    1
    12    27    28    2
    13    28    29    1
    14    29    30    1
    15    30    31    2
    16    31    32    1
    17    32    33    2
    18     1     2    1
    19     2     3   ar
    20     3     4   ar
    21     4     5   ar
    22     5     6   ar
    23     6     7   ar
    24    12    13   ar
    25    13    14   ar
    26    14    18    1
    27    18    19    1
    28    19    20    1
    29    20    21    1
    30    14    15   ar
    31    15    10   ar
    32    33    25    1
    33     7     2   ar
    34    33    28    1
    35     8     9    1
    36    21    22    1
