@<TRIPOS>MOLECULE
*****
 30 32 0 0 0
SMALL
GASTEIGER

@<TRIPOS>ATOM
      1 C          -7.7553  -17.0168   23.4696 C.3     1  UNL1        0.0469
      2 C          -6.6955  -17.8162   22.7710 C.ar    1  UNL1       -0.0191
      3 C          -7.0844  -18.8750   21.7823 C.ar    1  UNL1        0.0355
      4 C          -6.0247  -19.6744   21.0837 C.ar    1  UNL1        0.1674
      5 O          -6.4135  -20.7333   20.0949 O.3     1  UNL1       -0.5029
      6 C          -4.5761  -19.4149   21.3740 C.ar    1  UNL1        0.1718
      7 C          -4.1872  -18.3561   22.3627 C.ar    1  UNL1        0.0355
      8 C          -5.2469  -17.5568   23.0612 C.ar    1  UNL1       -0.0225
      9 C          -4.8581  -16.4979   24.0501 C.3     1  UNL1        0.0287
     10 C          -5.9178  -15.6986   24.7486 C.3     1  UNL1        0.0367
     11 C          -7.3664  -15.9580   24.4583 C.3     1  UNL1        0.0401
     12 H          -7.3184  -20.8953   19.9136 H       1  UNL1        0.2923
     13 C         -11.3383  -16.7989   21.7770 C.ar    1  UNL1        0.1718
     14 C          -9.8897  -16.5394   22.0673 C.ar    1  UNL1        0.0361
     15 C          -9.2039  -17.2763   23.1793 C.ar    1  UNL1       -0.0151
     16 C          -9.9667  -18.2726   24.0012 C.ar    1  UNL1       -0.0006
     17 C         -11.4153  -18.5321   23.7110 C.ar    1  UNL1        0.0395
     18 C         -12.1011  -17.7952   22.5988 C.ar    1  UNL1        0.1677
     19 O         -13.5497  -18.0546   22.3086 O.3     1  UNL1       -0.5029
     20 H         -14.0262  -18.6770   22.8220 H       1  UNL1        0.2923
     21 C         -11.2464  -15.6392   19.4539 C.3     1  UNL1        0.2526
     22 O         -12.0240  -16.0620   20.6649 O.3     1  UNL1       -0.4684
     23 C          -5.5290  -14.6397   25.7374 C.3     1  UNL1        0.1375
     24 O          -6.0722  -14.6828   27.1349 O.3     1  UNL1       -0.3820
     25 H          -7.0315  -14.5405   27.1135 H       1  UNL1        0.2104
     26 C          -8.4262  -15.1586   25.1569 C.3     1  UNL1        0.1378
     27 O          -8.7494  -15.4365   26.5950 O.3     1  UNL1       -0.3820
     28 H          -9.1359  -16.3226   26.6742 H       1  UNL1        0.2104
     29 O          -3.5163  -20.2144   20.6754 O.3     1  UNL1       -0.4684
     30 C          -2.1563  -19.6227   20.4511 C.3     1  UNL1        0.2526
@<TRIPOS>BOND
     1    21    22    1
     2    22    13    1
     3    13    14   ar
     4    14    15   ar
     5     1    15    1
     6     1     2    1
     7     2     3   ar
     8     3     4   ar
     9     4     5    1
    10     4     6   ar
    11     6    29    1
    12    29    30    1
    13     6     7   ar
    14     7     8   ar
    15     8     9    1
    16     9    10    1
    17    10    23    1
    18    23    24    1
    19    10    11    1
    20    11    26    1
    21    26    27    1
    22    15    16   ar
    23    16    17   ar
    24    17    18   ar
    25    18    19    1
    26    18    13   ar
    27    11     1    1
    28     8     2   ar
    29     5    12    1
    30    24    25    1
    31    27    28    1
    32    19    20    1
@<TRIPOS>MOLECULE
*****
 30 32 0 0 0
SMALL
GASTEIGER

@<TRIPOS>ATOM
      1 C          -6.3114  -16.7372   23.8601 C.3     1  UNL1        0.0469
      2 C          -7.5935  -17.1381   23.1926 C.ar    1  UNL1       -0.0191
      3 C          -7.5642  -17.7864   21.8403 C.ar    1  UNL1        0.0355
      4 C          -8.8463  -18.1873   21.1729 C.ar    1  UNL1        0.1674
      5 O          -8.8171  -18.8356   19.8205 O.3     1  UNL1       -0.5029
      6 C         -10.1577  -17.9399   21.8578 C.ar    1  UNL1        0.1718
      7 C         -10.1870  -17.2916   23.2101 C.ar    1  UNL1        0.0355
      8 C          -8.9049  -16.8907   23.8775 C.ar    1  UNL1       -0.0225
      9 C          -8.9341  -16.2423   25.2299 C.3     1  UNL1        0.0287
     10 C          -7.6520  -15.8414   25.8973 C.3     1  UNL1        0.0367
     11 C          -6.3407  -16.0889   25.2124 C.3     1  UNL1        0.0401
     12 H          -7.9980  -18.9902   19.3927 H       1  UNL1        0.2923
     13 C          -3.3253  -18.6171   22.0438 C.ar    1  UNL1        0.1718
     14 C          -4.6367  -18.3697   22.7287 C.ar    1  UNL1        0.0361
     15 C          -5.0000  -16.9846   23.1752 C.ar    1  UNL1       -0.0151
     16 C          -4.0520  -15.8468   22.9368 C.ar    1  UNL1       -0.0006
     17 C          -2.7406  -16.0942   22.2519 C.ar    1  UNL1        0.0395
     18 C          -2.3773  -17.4794   21.8054 C.ar    1  UNL1        0.1677
     19 O          -1.0659  -17.7268   21.1205 O.3     1  UNL1       -0.5029
     20 H          -0.4737  -17.0161   20.9715 H       1  UNL1        0.2923
     21 C          -3.5499  -20.5622   20.3360 C.3     1  UNL1        0.2526
     22 O          -2.9619  -20.0023   21.5973 O.3     1  UNL1       -0.4684
     23 C          -7.6813  -15.1931   27.2497 C.3     1  UNL1        0.1375
     24 O          -8.9090  -14.4608   27.7040 O.3     1  UNL1       -0.3820
     25 H          -9.0441  -13.6789   27.1461 H       1  UNL1        0.2104
     26 C          -5.0585  -15.6879   25.8799 C.3     1  UNL1        0.1378
     27 O          -4.7240  -14.2357   26.0505 O.3     1  UNL1       -0.3820
     28 H          -4.5870  -13.8310   25.1796 H       1  UNL1        0.2104
     29 O         -11.4398  -18.3408   21.1903 O.3     1  UNL1       -0.4684
     30 C         -12.7331  -17.7056   21.6075 C.3     1  UNL1        0.2526
@<TRIPOS>BOND
     1    21    22    1
     2    22    13    1
     3    13    14   ar
     4    14    15   ar
     5     1    15    1
     6     1     2    1
     7     2     3   ar
     8     3     4   ar
     9     4     5    1
    10     4     6   ar
    11     6    29    1
    12    29    30    1
    13     6     7   ar
    14     7     8   ar
    15     8     9    1
    16     9    10    1
    17    10    23    1
    18    23    24    1
    19    10    11    1
    20    11    26    1
    21    26    27    1
    22    15    16   ar
    23    16    17   ar
    24    17    18   ar
    25    18    19    1
    26    18    13   ar
    27    11     1    1
    28     8     2   ar
    29     5    12    1
    30    24    25    1
    31    27    28    1
    32    19    20    1
@<TRIPOS>MOLECULE
*****
 30 32 0 0 0
SMALL
GASTEIGER

@<TRIPOS>ATOM
      1 C          -8.7834  -17.8978   22.4943 C.3     1  UNL1        0.0469
      2 C          -7.6435  -18.6101   21.8284 C.ar    1  UNL1       -0.0191
      3 C          -6.3311  -18.7546   22.5401 C.ar    1  UNL1        0.0355
      4 C          -5.1913  -19.4668   21.8742 C.ar    1  UNL1        0.1674
      5 O          -3.8787  -19.6113   22.5859 O.3     1  UNL1       -0.5029
      6 C          -5.3639  -20.0347   20.4966 C.ar    1  UNL1        0.1718
      7 C          -6.6764  -19.8902   19.7849 C.ar    1  UNL1        0.0355
      8 C          -7.8162  -19.1779   20.4508 C.ar    1  UNL1       -0.0225
      9 C          -9.1287  -19.0335   19.7391 C.3     1  UNL1        0.0287
     10 C         -10.2685  -18.3212   20.4050 C.3     1  UNL1        0.0367
     11 C         -10.0959  -17.7533   21.7826 C.3     1  UNL1        0.0401
     12 H          -3.7709  -19.2566   23.4464 H       1  UNL1        0.2923
     13 C          -7.4704  -15.6400   25.4823 C.ar    1  UNL1        0.1718
     14 C          -7.6430  -16.2078   24.1047 C.ar    1  UNL1        0.0361
     15 C          -8.6107  -17.3300   23.8719 C.ar    1  UNL1       -0.0151
     16 C          -9.4059  -17.8843   25.0167 C.ar    1  UNL1       -0.0006
     17 C          -9.2332  -17.3165   26.3943 C.ar    1  UNL1        0.0395
     18 C          -8.2654  -16.1943   26.6271 C.ar    1  UNL1        0.1677
     19 O          -8.0928  -15.6265   28.0047 O.3     1  UNL1       -0.5029
     20 H          -8.5895  -15.9727   28.7198 H       1  UNL1        0.2923
     21 C          -5.0757  -14.8187   26.0664 C.3     1  UNL1        0.2526
     22 O          -6.5026  -14.5178   25.7151 O.3     1  UNL1       -0.4684
     23 C         -11.5811  -18.1767   19.6933 C.3     1  UNL1        0.1375
     24 O         -12.0975  -16.8129   19.3419 O.3     1  UNL1       -0.3820
     25 H         -12.2991  -16.3241   20.1551 H       1  UNL1        0.2104
     26 C         -11.2357  -17.0410   22.4485 C.3     1  UNL1        0.1378
     27 O         -11.4855  -15.5906   22.1590 O.3     1  UNL1       -0.3820
     28 H         -10.7451  -15.0617   22.4949 H       1  UNL1        0.2104
     29 O          -4.2240  -20.7470   19.8307 O.3     1  UNL1       -0.4684
     30 C          -3.0924  -19.9610   19.2376 C.3     1  UNL1        0.2526
@<TRIPOS>BOND
     1    21    22    1
     2    22    13    1
     3    13    14   ar
     4    14    15   ar
     5     1    15    1
     6     1     2    1
     7     2     3   ar
     8     3     4   ar
     9     4     5    1
    10     4     6   ar
    11     6    29    1
    12    29    30    1
    13     6     7   ar
    14     7     8   ar
    15     8     9    1
    16     9    10    1
    17    10    23    1
    18    23    24    1
    19    10    11    1
    20    11    26    1
    21    26    27    1
    22    15    16   ar
    23    16    17   ar
    24    17    18   ar
    25    18    19    1
    26    18    13   ar
    27    11     1    1
    28     8     2   ar
    29     5    12    1
    30    24    25    1
    31    27    28    1
    32    19    20    1
@<TRIPOS>MOLECULE
*****
 30 32 0 0 0
SMALL
GASTEIGER

@<TRIPOS>ATOM
      1 C          -7.2990  -18.3366   21.8577 C.3     1  UNL1        0.0469
      2 C          -5.8630  -18.6582   21.5663 C.ar    1  UNL1       -0.0191
      3 C          -4.7826  -18.1593   22.4794 C.ar    1  UNL1        0.0355
      4 C          -3.3467  -18.4809   22.1880 C.ar    1  UNL1        0.1674
      5 O          -2.2662  -17.9821   23.1010 O.3     1  UNL1       -0.5029
      6 C          -2.9914  -19.3013   20.9835 C.ar    1  UNL1        0.1718
      7 C          -4.0719  -19.8001   20.0705 C.ar    1  UNL1        0.0355
      8 C          -5.5077  -19.4786   20.3619 C.ar    1  UNL1       -0.0225
      9 C          -6.5883  -19.9774   19.4489 C.3     1  UNL1        0.0287
     10 C          -8.0241  -19.6558   19.7403 C.3     1  UNL1        0.0367
     11 C          -8.3794  -18.8354   20.9447 C.3     1  UNL1        0.0401
     12 H          -2.4881  -17.4696   23.8534 H       1  UNL1        0.2923
     13 C          -7.0977  -15.5943   24.7194 C.ar    1  UNL1        0.1718
     14 C          -6.7424  -16.4147   23.5150 C.ar    1  UNL1        0.0361
     15 C          -7.6543  -17.5162   23.0622 C.ar    1  UNL1       -0.0151
     16 C          -8.9216  -17.7973   23.8138 C.ar    1  UNL1       -0.0006
     17 C          -9.2769  -16.9769   25.0183 C.ar    1  UNL1        0.0395
     18 C          -8.3649  -15.8754   25.4710 C.ar    1  UNL1        0.1677
     19 O          -8.7203  -15.0550   26.6755 O.3     1  UNL1       -0.5029
     20 H          -9.5119  -15.2306   27.1450 H       1  UNL1        0.2923
     21 C          -5.0796  -14.7858   26.1420 C.3     1  UNL1        0.2526
     22 O          -6.1857  -14.4927   25.1722 O.3     1  UNL1       -0.4684
     23 C          -9.1047  -20.1547   18.8272 C.3     1  UNL1        0.1375
     24 O          -8.8323  -21.3012   17.8991 O.3     1  UNL1       -0.3820
     25 H          -8.1732  -21.0337   17.2396 H       1  UNL1        0.2104
     26 C          -9.8154  -18.5139   21.2361 C.3     1  UNL1        0.1378
     27 O         -10.4481  -17.2947   20.6334 O.3     1  UNL1       -0.3820
     28 H         -10.0270  -16.4994   20.9954 H       1  UNL1        0.2104
     29 O          -1.5555  -19.6229   20.6921 O.3     1  UNL1       -0.4684
     30 C          -0.6773  -18.6016   20.0321 C.3     1  UNL1        0.2526
@<TRIPOS>BOND
     1    21    22    1
     2    22    13    1
     3    13    14   ar
     4    14    15   ar
     5     1    15    1
     6     1     2    1
     7     2     3   ar
     8     3     4   ar
     9     4     5    1
    10     4     6   ar
    11     6    29    1
    12    29    30    1
    13     6     7   ar
    14     7     8   ar
    15     8     9    1
    16     9    10    1
    17    10    23    1
    18    23    24    1
    19    10    11    1
    20    11    26    1
    21    26    27    1
    22    15    16   ar
    23    16    17   ar
    24    17    18   ar
    25    18    19    1
    26    18    13   ar
    27    11     1    1
    28     8     2   ar
    29     5    12    1
    30    24    25    1
    31    27    28    1
    32    19    20    1
@<TRIPOS>MOLECULE
*****
 30 32 0 0 0
SMALL
GASTEIGER

@<TRIPOS>ATOM
      1 C          -6.8181  -17.7150   23.0855 C.3     1  UNL1        0.0469
      2 C          -5.4632  -18.1070   22.5749 C.ar    1  UNL1       -0.0191
      3 C          -5.3267  -19.2444   21.6067 C.ar    1  UNL1        0.0355
      4 C          -3.9718  -19.6363   21.0962 C.ar    1  UNL1        0.1674
      5 O          -3.8353  -20.7738   20.1278 O.3     1  UNL1       -0.5029
      6 C          -2.7534  -18.8907   21.5539 C.ar    1  UNL1        0.1718
      7 C          -2.8898  -17.7533   22.5222 C.ar    1  UNL1        0.0355
      8 C          -4.2447  -17.3614   23.0327 C.ar    1  UNL1       -0.0225
      9 C          -4.3812  -16.2239   24.0010 C.3     1  UNL1        0.0287
     10 C          -5.7361  -15.8321   24.5115 C.3     1  UNL1        0.0367
     11 C          -6.9545  -16.5776   24.0537 C.3     1  UNL1        0.0401
     12 H          -4.5965  -21.2395   19.8419 H       1  UNL1        0.2923
     13 C          -9.5804  -19.2856   20.7079 C.ar    1  UNL1        0.1718
     14 C          -8.3619  -18.5401   21.1656 C.ar    1  UNL1        0.0361
     15 C          -8.0365  -18.4606   22.6277 C.ar    1  UNL1       -0.0151
     16 C          -8.9296  -19.1267   23.6322 C.ar    1  UNL1       -0.0006
     17 C         -10.1481  -19.8722   23.1744 C.ar    1  UNL1        0.0395
     18 C         -10.4734  -19.9517   21.7122 C.ar    1  UNL1        0.1677
     19 O         -11.6919  -20.6973   21.2545 O.3     1  UNL1       -0.5029
     20 H         -12.2498  -21.1133   21.8819 H       1  UNL1        0.2923
     21 C          -9.1811  -20.3423   18.3682 C.3     1  UNL1        0.2526
     22 O          -9.9057  -19.3651   19.2457 O.3     1  UNL1       -0.4684
     23 C          -5.8726  -14.6946   25.4798 C.3     1  UNL1        0.1375
     24 O          -6.2186  -14.9676   26.9136 O.3     1  UNL1       -0.3820
     25 H          -7.1153  -15.3337   26.9658 H       1  UNL1        0.2104
     26 C          -8.3095  -16.1857   24.5643 C.3     1  UNL1        0.1378
     27 O          -9.2585  -15.4379   23.6754 O.3     1  UNL1       -0.3820
     28 H          -8.8968  -14.5586   23.4833 H       1  UNL1        0.2104
     29 O          -1.3984  -19.2827   21.0434 O.3     1  UNL1       -0.4684
     30 C          -0.7272  -18.4562   19.9868 C.3     1  UNL1        0.2526
@<TRIPOS>BOND
     1    21    22    1
     2    22    13    1
     3    13    14   ar
     4    14    15   ar
     5     1    15    1
     6     1     2    1
     7     2     3   ar
     8     3     4   ar
     9     4     5    1
    10     4     6   ar
    11     6    29    1
    12    29    30    1
    13     6     7   ar
    14     7     8   ar
    15     8     9    1
    16     9    10    1
    17    10    23    1
    18    23    24    1
    19    10    11    1
    20    11    26    1
    21    26    27    1
    22    15    16   ar
    23    16    17   ar
    24    17    18   ar
    25    18    19    1
    26    18    13   ar
    27    11     1    1
    28     8     2   ar
    29     5    12    1
    30    24    25    1
    31    27    28    1
    32    19    20    1
@<TRIPOS>MOLECULE
*****
 30 32 0 0 0
SMALL
GASTEIGER

@<TRIPOS>ATOM
      1 C         -14.8773   -4.4457   18.8878 C.3     1  UNL1        0.0469
      2 C         -15.3505   -5.8625   19.0247 C.ar    1  UNL1       -0.0191
      3 C         -14.4444   -6.9959   18.6447 C.ar    1  UNL1        0.0355
      4 C         -14.9175   -8.4127   18.7816 C.ar    1  UNL1        0.1674
      5 O         -14.0114   -9.5461   18.4016 O.3     1  UNL1       -0.5029
      6 C         -16.2969   -8.6961   19.2985 C.ar    1  UNL1        0.1718
      7 C         -17.2030   -7.5628   19.6784 C.ar    1  UNL1        0.0355
      8 C         -16.7298   -6.1460   19.5415 C.ar    1  UNL1       -0.0225
      9 C         -17.6360   -5.0126   19.9215 C.3     1  UNL1        0.0287
     10 C         -17.1628   -3.5958   19.7846 C.3     1  UNL1        0.0367
     11 C         -15.7835   -3.3123   19.2678 C.3     1  UNL1        0.0401
     12 H         -13.1498   -9.3690   18.0788 H       1  UNL1        0.2923
     13 C         -10.9187   -4.2831   18.6582 C.ar    1  UNL1        0.1718
     14 C         -12.2980   -4.5665   19.1750 C.ar    1  UNL1        0.0361
     15 C         -13.4980   -4.1622   18.3710 C.ar    1  UNL1       -0.0151
     16 C         -13.3187   -3.4744   17.0500 C.ar    1  UNL1       -0.0006
     17 C         -11.9394   -3.1910   16.5332 C.ar    1  UNL1        0.0395
     18 C         -10.7394   -3.5953   17.3373 C.ar    1  UNL1        0.1677
     19 O          -9.3600   -3.3119   16.8205 O.3     1  UNL1       -0.5029
     20 H          -9.2480   -2.8823   15.9953 H       1  UNL1        0.2923
     21 C          -9.2375   -6.1077   19.4292 C.3     1  UNL1        0.2526
     22 O          -9.7187   -4.6874   19.4623 O.3     1  UNL1       -0.4684
     23 C         -18.0690   -2.4624   20.1646 C.3     1  UNL1        0.1375
     24 O         -19.0577   -2.6340   21.2795 O.3     1  UNL1       -0.3820
     25 H         -19.7213   -3.2939   21.0244 H       1  UNL1        0.2104
     26 C         -15.3103   -1.8955   19.1309 C.3     1  UNL1        0.1378
     27 O         -15.7188   -1.0800   17.9401 O.3     1  UNL1       -0.3820
     28 H         -15.3272   -1.4601   17.1382 H       1  UNL1        0.2104
     29 O         -16.7700  -10.1130   19.4353 O.3     1  UNL1       -0.4684
     30 C         -17.5564  -10.7513   18.3289 C.3     1  UNL1        0.2526
@<TRIPOS>BOND
     1    21    22    1
     2    22    13    1
     3    13    14   ar
     4    14    15   ar
     5     1    15    1
     6     1     2    1
     7     2     3   ar
     8     3     4   ar
     9     4     5    1
    10     4     6   ar
    11     6    29    1
    12    29    30    1
    13     6     7   ar
    14     7     8   ar
    15     8     9    1
    16     9    10    1
    17    10    23    1
    18    23    24    1
    19    10    11    1
    20    11    26    1
    21    26    27    1
    22    15    16   ar
    23    16    17   ar
    24    17    18   ar
    25    18    19    1
    26    18    13   ar
    27    11     1    1
    28     8     2   ar
    29     5    12    1
    30    24    25    1
    31    27    28    1
    32    19    20    1
@<TRIPOS>MOLECULE
*****
 30 32 0 0 0
SMALL
GASTEIGER

@<TRIPOS>ATOM
      1 C          -6.9701  -17.7846   22.7329 C.3     1  UNL1        0.0469
      2 C          -8.4694  -17.7935   22.6852 C.ar    1  UNL1       -0.0191
      3 C          -9.1848  -18.7379   21.7653 C.ar    1  UNL1        0.0355
      4 C         -10.6840  -18.7469   21.7176 C.ar    1  UNL1        0.1674
      5 O         -11.3996  -19.6913   20.7977 O.3     1  UNL1       -0.5029
      6 C         -11.4678  -17.8114   22.5898 C.ar    1  UNL1        0.1718
      7 C         -10.7523  -16.8670   23.5096 C.ar    1  UNL1        0.0355
      8 C          -9.2531  -16.8581   23.5573 C.ar    1  UNL1       -0.0225
      9 C          -8.5376  -15.9136   24.4772 C.3     1  UNL1        0.0287
     10 C          -7.0384  -15.9047   24.5249 C.3     1  UNL1        0.0367
     11 C          -6.2547  -16.8401   23.6528 C.3     1  UNL1        0.0401
     12 H         -10.9100  -20.2757   20.2529 H       1  UNL1        0.2923
     13 C          -4.4103  -19.1098   20.0052 C.ar    1  UNL1        0.1718
     14 C          -5.1940  -18.1743   20.8773 C.ar    1  UNL1        0.0361
     15 C          -6.1864  -18.7200   21.8608 C.ar    1  UNL1       -0.0151
     16 C          -6.3951  -20.2013   21.9722 C.ar    1  UNL1       -0.0006
     17 C          -5.6114  -21.1368   21.1000 C.ar    1  UNL1        0.0395
     18 C          -4.6189  -20.5910   20.1165 C.ar    1  UNL1        0.1677
     19 O          -3.8352  -21.5264   19.2443 O.3     1  UNL1       -0.5029
     20 H          -3.9655  -22.4517   19.3139 H       1  UNL1        0.2923
     21 C          -1.9983  -18.3245   19.4430 C.3     1  UNL1        0.2526
     22 O          -3.4178  -18.5639   19.0216 O.3     1  UNL1       -0.4684
     23 C          -6.3229  -14.9602   25.4448 C.3     1  UNL1        0.1375
     24 O          -6.7394  -14.8532   26.8819 O.3     1  UNL1       -0.3820
     25 H          -7.6342  -14.4823   26.9324 H       1  UNL1        0.2104
     26 C          -4.7554  -16.8312   23.7005 C.3     1  UNL1        0.1378
     27 O          -3.9861  -15.8108   22.9151 O.3     1  UNL1       -0.3820
     28 H          -4.1174  -15.9665   21.9668 H       1  UNL1        0.2104
     29 O         -12.9670  -17.8204   22.5420 O.3     1  UNL1       -0.4684
     30 C         -13.7568  -17.9698   23.8085 C.3     1  UNL1        0.2526
@<TRIPOS>BOND
     1    21    22    1
     2    22    13    1
     3    13    14   ar
     4    14    15   ar
     5     1    15    1
     6     1     2    1
     7     2     3   ar
     8     3     4   ar
     9     4     5    1
    10     4     6   ar
    11     6    29    1
    12    29    30    1
    13     6     7   ar
    14     7     8   ar
    15     8     9    1
    16     9    10    1
    17    10    23    1
    18    23    24    1
    19    10    11    1
    20    11    26    1
    21    26    27    1
    22    15    16   ar
    23    16    17   ar
    24    17    18   ar
    25    18    19    1
    26    18    13   ar
    27    11     1    1
    28     8     2   ar
    29     5    12    1
    30    24    25    1
    31    27    28    1
    32    19    20    1
@<TRIPOS>MOLECULE
*****
 30 32 0 0 0
SMALL
GASTEIGER

@<TRIPOS>ATOM
      1 C         -14.4587   -5.1274   18.4989 C.3     1  UNL1        0.0469
      2 C         -14.9420   -3.7345   18.7754 C.ar    1  UNL1       -0.0191
      3 C         -16.4083   -3.4242   18.7180 C.ar    1  UNL1        0.0355
      4 C         -16.8915   -2.0314   18.9945 C.ar    1  UNL1        0.1674
      5 O         -18.3580   -1.7210   18.9371 O.3     1  UNL1       -0.5029
      6 C         -15.9083   -0.9489   19.3283 C.ar    1  UNL1        0.1718
      7 C         -14.4419   -1.2592   19.3857 C.ar    1  UNL1        0.0355
      8 C         -13.9587   -2.6520   19.1092 C.ar    1  UNL1       -0.0225
      9 C         -12.4923   -2.9624   19.1666 C.3     1  UNL1        0.0287
     10 C         -12.0091   -4.3552   18.8901 C.3     1  UNL1        0.0367
     11 C         -12.9923   -5.4377   18.5563 C.3     1  UNL1        0.0401
     12 H         -18.9722   -2.3972   18.7286 H       1  UNL1        0.2923
     13 C         -17.1279   -8.0325   18.9306 C.ar    1  UNL1        0.1718
     14 C         -16.1446   -6.9499   19.2644 C.ar    1  UNL1        0.0361
     15 C         -15.4419   -6.2100   18.1651 C.ar    1  UNL1       -0.0151
     16 C         -15.7223   -6.5525   16.7319 C.ar    1  UNL1       -0.0006
     17 C         -16.7056   -7.6350   16.3980 C.ar    1  UNL1        0.0395
     18 C         -17.4083   -8.3750   17.4974 C.ar    1  UNL1        0.1677
     19 O         -18.3915   -9.4575   17.1636 O.3     1  UNL1       -0.5029
     20 H         -18.5667   -9.6715   16.2684 H       1  UNL1        0.2923
     21 C         -19.2138   -8.3652   20.4432 C.3     1  UNL1        0.2526
     22 O         -17.8306   -8.7724   20.0300 O.3     1  UNL1       -0.4684
     23 C         -10.5426   -4.6656   18.9475 C.3     1  UNL1        0.1375
     24 O          -9.5659   -3.6008   19.3502 O.3     1  UNL1       -0.3820
     25 H          -9.5573   -2.8997   18.6800 H       1  UNL1        0.2104
     26 C         -12.5090   -6.8307   18.2798 C.3     1  UNL1        0.1378
     27 O         -12.6990   -7.9079   19.3061 O.3     1  UNL1       -0.3820
     28 H         -12.1666   -7.7042   20.0910 H       1  UNL1        0.2104
     29 O         -16.3916    0.4441   19.6048 O.3     1  UNL1       -0.4684
     30 C         -17.0129    0.7732   20.9298 C.3     1  UNL1        0.2526
@<TRIPOS>BOND
     1    21    22    1
     2    22    13    1
     3    13    14   ar
     4    14    15   ar
     5     1    15    1
     6     1     2    1
     7     2     3   ar
     8     3     4   ar
     9     4     5    1
    10     4     6   ar
    11     6    29    1
    12    29    30    1
    13     6     7   ar
    14     7     8   ar
    15     8     9    1
    16     9    10    1
    17    10    23    1
    18    23    24    1
    19    10    11    1
    20    11    26    1
    21    26    27    1
    22    15    16   ar
    23    16    17   ar
    24    17    18   ar
    25    18    19    1
    26    18    13   ar
    27    11     1    1
    28     8     2   ar
    29     5    12    1
    30    24    25    1
    31    27    28    1
    32    19    20    1
@<TRIPOS>MOLECULE
*****
 30 32 0 0 0
SMALL
GASTEIGER

@<TRIPOS>ATOM
      1 C          -6.9186  -17.4373   23.0682 C.3     1  UNL1        0.0469
      2 C          -5.6170  -18.0033   22.5828 C.ar    1  UNL1       -0.0191
      3 C          -5.6107  -19.0863   21.5450 C.ar    1  UNL1        0.0355
      4 C          -4.3091  -19.6523   21.0596 C.ar    1  UNL1        0.1674
      5 O          -4.3027  -20.7353   20.0218 O.3     1  UNL1       -0.5029
      6 C          -3.0139  -19.1352   21.6120 C.ar    1  UNL1        0.1718
      7 C          -3.0203  -18.0523   22.6498 C.ar    1  UNL1        0.0355
      8 C          -4.3218  -17.4863   23.1352 C.ar    1  UNL1       -0.0225
      9 C          -4.3282  -16.4033   24.1731 C.3     1  UNL1        0.0287
     10 C          -5.6298  -15.8373   24.6585 C.3     1  UNL1        0.0367
     11 C          -6.9249  -16.3544   24.1060 C.3     1  UNL1        0.0401
     12 H          -5.1118  -21.0583   19.6767 H       1  UNL1        0.2923
     13 C         -10.6532  -18.7678   22.8869 C.ar    1  UNL1        0.1718
     14 C          -9.3580  -18.2508   23.4394 C.ar    1  UNL1        0.0361
     15 C          -8.2138  -17.9543   22.5158 C.ar    1  UNL1       -0.0151
     16 C          -8.3648  -18.1750   21.0398 C.ar    1  UNL1       -0.0006
     17 C          -9.6600  -18.6920   20.4874 C.ar    1  UNL1        0.0395
     18 C         -10.8042  -18.9884   21.4110 C.ar    1  UNL1        0.1677
     19 O         -12.0994  -19.5054   20.8586 O.3     1  UNL1       -0.5029
     20 H         -12.1937  -19.6432   19.9366 H       1  UNL1        0.2923
     21 C         -12.9972  -18.1642   23.8311 C.3     1  UNL1        0.2526
     22 O         -11.7974  -19.0642   23.8106 O.3     1  UNL1       -0.4684
     23 C          -5.6361  -14.7543   25.6963 C.3     1  UNL1        0.1375
     24 O          -6.2124  -15.0212   27.0552 O.3     1  UNL1       -0.3820
     25 H          -7.1667  -15.1766   26.9769 H       1  UNL1        0.2104
     26 C          -8.2265  -15.7883   24.5915 C.3     1  UNL1        0.1378
     27 O          -8.6906  -16.0675   25.9903 O.3     1  UNL1       -0.3820
     28 H          -8.8798  -17.0142   26.0853 H       1  UNL1        0.2104
     29 O          -1.7123  -19.7013   21.1266 O.3     1  UNL1       -0.4684
     30 C          -0.8608  -18.9144   20.1749 C.3     1  UNL1        0.2526
@<TRIPOS>BOND
     1    21    22    1
     2    22    13    1
     3    13    14   ar
     4    14    15   ar
     5     1    15    1
     6     1     2    1
     7     2     3   ar
     8     3     4   ar
     9     4     5    1
    10     4     6   ar
    11     6    29    1
    12    29    30    1
    13     6     7   ar
    14     7     8   ar
    15     8     9    1
    16     9    10    1
    17    10    23    1
    18    23    24    1
    19    10    11    1
    20    11    26    1
    21    26    27    1
    22    15    16   ar
    23    16    17   ar
    24    17    18   ar
    25    18    19    1
    26    18    13   ar
    27    11     1    1
    28     8     2   ar
    29     5    12    1
    30    24    25    1
    31    27    28    1
    32    19    20    1
