@<TRIPOS>MOLECULE
*****
 29 32 0 0 0
SMALL
GASTEIGER

@<TRIPOS>ATOM
      1 N           3.6553   -1.5991   21.2361 N.pl3   1  UNL1       -0.2996
      2 C           3.9485   -1.3383   22.6839 C.3     1  UNL1        0.1208
      3 C           4.8383   -2.4382   23.1822 C.ar    1  UNL1        0.0336
      4 C           5.5694   -2.9567   24.3849 C.ar    1  UNL1        0.0990
      5 N           6.2781   -4.2179   23.9885 N.ar    1  UNL1       -0.2287
      6 N           5.9849   -4.4788   22.5407 N.ar    1  UNL1       -0.1681
      7 C           5.0951   -3.3789   22.0424 C.ar    1  UNL1        0.0960
      8 C           4.3640   -2.8604   20.8396 C.3     1  UNL1        0.1147
      9 C           0.6357    0.6273   19.9422 C.ar    1  UNL1        0.2262
     10 C           1.4878   -0.2235   20.8365 C.ar    1  UNL1        0.0722
     11 C           2.8031   -0.7483   20.3418 C.ar    1  UNL1        0.0546
     12 C           3.2661   -0.4222   18.9529 C.ar    1  UNL1        0.0354
     13 C           2.4140    0.4287   18.0585 C.ar    1  UNL1        0.1033
     14 N           1.0987    0.9535   18.5532 N.ar    1  UNL1       -0.2101
     15 C          -0.9245    2.6311   20.4909 C.3     1  UNL1        0.2542
     16 O          -0.6797    1.1522   20.4369 O.3     1  UNL1       -0.4561
     17 C           7.1303   -5.0688   24.8827 C.ar    1  UNL1        0.0841
     18 C           8.1952   -5.9448   24.2924 C.ar    1  UNL1        0.0192
     19 C           9.0474   -6.7957   25.1868 C.ar    1  UNL1        0.0029
     20 C           8.8347   -6.7706   26.6714 C.ar    1  UNL1        0.0184
     21 C           7.7698   -5.8945   27.2617 C.ar    1  UNL1        0.1072
     22 C           6.9176   -5.0436   26.3673 C.ar    1  UNL1        0.0375
     23 S           7.5570   -5.8693   28.7463 S.O2    1  UNL1        0.0105
     24 C           7.3444   -5.8441   30.2309 C.3     1  UNL1        0.1816
     25 O           6.1597   -5.3653   28.5376 O.2     1  UNL1       -0.1686
     26 O           8.9544   -6.3733   28.9550 O.2     1  UNL1       -0.1686
     27 C           4.3449   -3.4922   19.4793 C.3     1  UNL1        0.0240
     28 C           5.4246   -3.1719   18.4884 C.3     1  UNL1        0.0021
     29 C           3.2461   -4.4441   19.1098 C.3     1  UNL1        0.0021
@<TRIPOS>BOND
     1    15    16    1
     2    16     9    1
     3     9    10   ar
     4    10    11   ar
     5    11     1    1
     6     1     2    1
     7     2     3    1
     8     3     4   ar
     9     4     5   ar
    10     5    17    1
    11    17    18   ar
    12    18    19   ar
    13    19    20   ar
    14    20    21   ar
    15    21    23    1
    16    23    24    1
    17    23    25    2
    18    23    26    2
    19    21    22   ar
    20     5     6   ar
    21     6     7   ar
    22     7     8    1
    23     8    27    1
    24    27    28    1
    25    27    29    1
    26    11    12   ar
    27    12    13   ar
    28    13    14   ar
    29    14     9   ar
    30     8     1    1
    31     7     3   ar
    32    22    17   ar
@<TRIPOS>MOLECULE
*****
 29 32 0 0 0
SMALL
GASTEIGER

@<TRIPOS>ATOM
      1 N           4.1783   -1.4457   21.0706 N.pl3   1  UNL1       -0.2996
      2 C           4.4125   -1.2488   22.5391 C.3     1  UNL1        0.1208
      3 C           5.1777   -2.4336   23.0496 C.ar    1  UNL1        0.0336
      4 C           5.7954   -3.0441   24.2726 C.ar    1  UNL1        0.0990
      5 N           6.4159   -4.3507   23.8754 N.ar    1  UNL1       -0.2287
      6 N           6.1818   -4.5477   22.4070 N.ar    1  UNL1       -0.1681
      7 C           5.4165   -3.3629   21.8966 C.ar    1  UNL1        0.0960
      8 C           4.7989   -2.7524   20.6735 C.3     1  UNL1        0.1147
      9 C           3.4662    1.5635   18.5833 C.ar    1  UNL1        0.2262
     10 C           4.1932    0.6197   19.4946 C.ar    1  UNL1        0.0722
     11 C           3.4513   -0.5019   20.1594 C.ar    1  UNL1        0.0546
     12 C           1.9825   -0.6795   19.9127 C.ar    1  UNL1        0.0354
     13 C           1.2554    0.2644   19.0014 C.ar    1  UNL1        0.1033
     14 N           1.9972    1.3859   18.3367 N.ar    1  UNL1       -0.2101
     15 C           3.6625    4.0813   17.9732 C.3     1  UNL1        0.2542
     16 O           4.2080    2.6851   17.9185 O.3     1  UNL1       -0.4561
     17 C           7.1429   -5.2946   24.7868 C.ar    1  UNL1        0.0841
     18 C           8.0334   -6.3559   24.2116 C.ar    1  UNL1        0.0192
     19 C           8.7604   -7.2998   25.1230 C.ar    1  UNL1        0.0029
     20 C           8.5970   -7.1824   26.6095 C.ar    1  UNL1        0.0184
     21 C           7.7066   -6.1211   27.1846 C.ar    1  UNL1        0.1072
     22 C           6.9796   -5.1772   26.2732 C.ar    1  UNL1        0.0375
     23 S           7.5431   -6.0036   28.6710 S.O2    1  UNL1        0.0105
     24 C           7.3796   -5.8861   30.1574 C.3     1  UNL1        0.1816
     25 O           8.8206   -6.7637   28.8716 O.2     1  UNL1       -0.1686
     26 O           6.2656   -5.2435   28.4704 O.2     1  UNL1       -0.1686
     27 C           4.8013   -3.3445   19.2953 C.3     1  UNL1        0.0240
     28 C           5.6616   -2.7446   18.2228 C.3     1  UNL1        0.0021
     29 C           3.9436   -4.5365   18.9896 C.3     1  UNL1        0.0021
@<TRIPOS>BOND
     1    15    16    1
     2    16     9    1
     3     9    10   ar
     4    10    11   ar
     5    11     1    1
     6     1     2    1
     7     2     3    1
     8     3     4   ar
     9     4     5   ar
    10     5    17    1
    11    17    18   ar
    12    18    19   ar
    13    19    20   ar
    14    20    21   ar
    15    21    23    1
    16    23    24    1
    17    23    25    2
    18    23    26    2
    19    21    22   ar
    20     5     6   ar
    21     6     7   ar
    22     7     8    1
    23     8    27    1
    24    27    28    1
    25    27    29    1
    26    11    12   ar
    27    12    13   ar
    28    13    14   ar
    29    14     9   ar
    30     8     1    1
    31     7     3   ar
    32    22    17   ar
@<TRIPOS>MOLECULE
*****
 29 32 0 0 0
SMALL
GASTEIGER

@<TRIPOS>ATOM
      1 N           6.4337   -1.3774   20.2573 N.pl3   1  UNL1       -0.2996
      2 C           7.4974   -1.2837   21.3108 C.3     1  UNL1        0.1208
      3 C           7.4043   -2.5071   22.1738 C.ar    1  UNL1        0.0336
      4 C           8.0041   -3.2052   23.3582 C.ar    1  UNL1        0.0990
      5 N           7.2536   -4.4865   23.5700 N.ar    1  UNL1       -0.2287
      6 N           6.1899   -4.5803   22.5165 N.ar    1  UNL1       -0.1681
      7 C           6.2830   -3.3569   21.6536 C.ar    1  UNL1        0.0960
      8 C           5.6832   -2.6588   20.4692 C.3     1  UNL1        0.1147
      9 C           4.8419    1.6867   18.3012 C.ar    1  UNL1        0.2262
     10 C           5.1082    0.6766   19.3775 C.ar    1  UNL1        0.0722
     11 C           6.1674   -0.3673   19.1810 C.ar    1  UNL1        0.0546
     12 C           6.9601   -0.4009   17.9080 C.ar    1  UNL1        0.0354
     13 C           6.6938    0.6092   16.8316 C.ar    1  UNL1        0.1033
     14 N           5.6347    1.6531   17.0282 N.ar    1  UNL1       -0.2101
     15 C           2.3422    2.3265   18.6052 C.3     1  UNL1        0.2542
     16 O           3.7827    2.7306   18.4978 O.3     1  UNL1       -0.4561
     17 C           7.5199   -5.4967   24.6464 C.ar    1  UNL1        0.0841
     18 C           8.0895   -6.8382   24.2916 C.ar    1  UNL1        0.0192
     19 C           8.3558   -7.8484   25.3680 C.ar    1  UNL1        0.0029
     20 C           8.0526   -7.5171   26.7992 C.ar    1  UNL1        0.0184
     21 C           7.4830   -6.1756   27.1540 C.ar    1  UNL1        0.1072
     22 C           7.2167   -5.1654   26.0775 C.ar    1  UNL1        0.0375
     23 S           7.1798   -5.8442   28.5851 S.O2    1  UNL1        0.0105
     24 C           6.8766   -5.5128   30.0163 C.3     1  UNL1        0.1816
     25 O           6.0513   -4.9611   28.1416 O.2     1  UNL1       -0.1686
     26 O           8.3084   -6.7273   29.0287 O.2     1  UNL1       -0.1686
     27 C           4.5345   -3.1550   19.6418 C.3     1  UNL1        0.0240
     28 C           3.2094   -2.4546   19.7019 C.3     1  UNL1        0.0021
     29 C           4.7110   -4.3514   18.7545 C.3     1  UNL1        0.0021
@<TRIPOS>BOND
     1    15    16    1
     2    16     9    1
     3     9    10   ar
     4    10    11   ar
     5    11     1    1
     6     1     2    1
     7     2     3    1
     8     3     4   ar
     9     4     5   ar
    10     5    17    1
    11    17    18   ar
    12    18    19   ar
    13    19    20   ar
    14    20    21   ar
    15    21    23    1
    16    23    24    1
    17    23    25    2
    18    23    26    2
    19    21    22   ar
    20     5     6   ar
    21     6     7   ar
    22     7     8    1
    23     8    27    1
    24    27    28    1
    25    27    29    1
    26    11    12   ar
    27    12    13   ar
    28    13    14   ar
    29    14     9   ar
    30     8     1    1
    31     7     3   ar
    32    22    17   ar
@<TRIPOS>MOLECULE
*****
 29 32 0 0 0
SMALL
GASTEIGER

@<TRIPOS>ATOM
      1 N           4.0183   -1.6056   21.7561 N.pl3   1  UNL1       -0.2996
      2 C           4.5040   -1.9502   23.1329 C.3     1  UNL1        0.1208
      3 C           3.7465   -1.1078   24.1160 C.ar    1  UNL1        0.0336
      4 C           3.5785   -0.8001   25.5745 C.ar    1  UNL1        0.0990
      5 N           2.5208    0.2552   25.7068 N.ar    1  UNL1       -0.2287
      6 N           2.0350    0.5998   24.3300 N.ar    1  UNL1       -0.1681
      7 C           2.7926   -0.2426   23.3469 C.ar    1  UNL1        0.0960
      8 C           2.9605   -0.5503   21.8884 C.3     1  UNL1        0.1147
      9 C           5.8435   -2.0073   18.2552 C.ar    1  UNL1        0.2262
     10 C           5.3570   -1.4028   19.5387 C.ar    1  UNL1        0.0722
     11 C           4.5048   -2.2102   20.4726 C.ar    1  UNL1        0.0546
     12 C           4.1394   -3.6223   20.1227 C.ar    1  UNL1        0.0354
     13 C           4.6259   -4.2270   18.8391 C.ar    1  UNL1        0.1033
     14 N           5.4780   -3.4195   17.9053 N.ar    1  UNL1       -0.2101
     15 C           6.4771    0.2788   17.1959 C.3     1  UNL1        0.2542
     16 O           6.6956   -1.1999   17.3214 O.3     1  UNL1       -0.4561
     17 C           2.0342    0.8598   26.9904 C.ar    1  UNL1        0.0841
     18 C           0.9532    1.8995   26.9673 C.ar    1  UNL1        0.0192
     19 C           0.4667    2.5041   28.2510 C.ar    1  UNL1        0.0029
     20 C           1.0611    2.0691   29.5577 C.ar    1  UNL1        0.0184
     21 C           2.1421    1.0294   29.5807 C.ar    1  UNL1        0.1072
     22 C           2.6286    0.4248   28.2970 C.ar    1  UNL1        0.0375
     23 S           2.7366    0.5944   30.8873 S.O2    1  UNL1        0.0105
     24 C           3.3310    0.1592   32.1939 C.3     1  UNL1        0.1816
     25 O           3.3246    1.9614   31.0751 O.2     1  UNL1       -0.1686
     26 O           2.1485   -0.7728   30.6996 O.2     1  UNL1       -0.1686
     27 C           2.2037    0.0857   20.7603 C.3     1  UNL1        0.0240
     28 C           0.9451   -0.5504   20.2489 C.3     1  UNL1        0.0021
     29 C           2.7053    1.3577   20.1436 C.3     1  UNL1        0.0021
@<TRIPOS>BOND
     1    15    16    1
     2    16     9    1
     3     9    10   ar
     4    10    11   ar
     5    11     1    1
     6     1     2    1
     7     2     3    1
     8     3     4   ar
     9     4     5   ar
    10     5    17    1
    11    17    18   ar
    12    18    19   ar
    13    19    20   ar
    14    20    21   ar
    15    21    23    1
    16    23    24    1
    17    23    25    2
    18    23    26    2
    19    21    22   ar
    20     5     6   ar
    21     6     7   ar
    22     7     8    1
    23     8    27    1
    24    27    28    1
    25    27    29    1
    26    11    12   ar
    27    12    13   ar
    28    13    14   ar
    29    14     9   ar
    30     8     1    1
    31     7     3   ar
    32    22    17   ar
@<TRIPOS>MOLECULE
*****
 29 32 0 0 0
SMALL
GASTEIGER

@<TRIPOS>ATOM
      1 N           7.1823   -4.0068   26.8289 N.pl3   1  UNL1       -0.2996
      2 C           6.4927   -2.7918   26.2828 C.3     1  UNL1        0.1208
      3 C           6.2110   -3.0326   24.8293 C.ar    1  UNL1        0.0336
      4 C           5.6107   -2.4305   23.5936 C.ar    1  UNL1        0.0990
      5 N           5.7553   -3.4222   22.4775 N.ar    1  UNL1       -0.2287
      6 N           6.4449   -4.6373   23.0235 N.ar    1  UNL1       -0.1681
      7 C           6.7266   -4.3964   24.4770 C.ar    1  UNL1        0.0960
      8 C           7.3269   -4.9986   25.7128 C.3     1  UNL1        0.1147
      9 C           7.1503   -4.1917   30.7930 C.ar    1  UNL1        0.2262
     10 C           6.6866   -4.0018   29.3792 C.ar    1  UNL1        0.0722
     11 C           7.6460   -4.1967   28.2426 C.ar    1  UNL1        0.0546
     12 C           9.0690   -4.5816   28.5200 C.ar    1  UNL1        0.0354
     13 C           9.5327   -4.7716   29.9338 C.ar    1  UNL1        0.1033
     14 N           8.5734   -4.5766   31.0703 N.ar    1  UNL1       -0.2101
     15 C           6.0670   -2.6528   32.5842 C.3     1  UNL1        0.2542
     16 O           6.1910   -3.9967   31.9296 O.3     1  UNL1       -0.4561
     17 C           5.2916   -3.2323   21.0637 C.ar    1  UNL1        0.0841
     18 C           4.2272   -4.1246   20.4972 C.ar    1  UNL1        0.0192
     19 C           3.7636   -3.9346   19.0833 C.ar    1  UNL1        0.0029
     20 C           4.3643   -2.8524   18.2360 C.ar    1  UNL1        0.0184
     21 C           5.4287   -1.9601   18.8025 C.ar    1  UNL1        0.1072
     22 C           5.8923   -2.1501   20.2163 C.ar    1  UNL1        0.0375
     23 S           6.0295   -0.8780   17.9552 S.O2    1  UNL1        0.0105
     24 C           6.6302    0.2043   17.1080 C.3     1  UNL1        0.1816
     25 O           6.8854   -1.8960   17.2617 O.2     1  UNL1       -0.1686
     26 O           5.1734    0.1401   18.6487 O.2     1  UNL1       -0.1686
     27 C           7.9605   -6.3543   25.8146 C.3     1  UNL1        0.0240
     28 C           9.3189   -6.5936   25.2249 C.3     1  UNL1        0.0021
     29 C           7.2358   -7.4709   26.5061 C.3     1  UNL1        0.0021
@<TRIPOS>BOND
     1    15    16    1
     2    16     9    1
     3     9    10   ar
     4    10    11   ar
     5    11     1    1
     6     1     2    1
     7     2     3    1
     8     3     4   ar
     9     4     5   ar
    10     5    17    1
    11    17    18   ar
    12    18    19   ar
    13    19    20   ar
    14    20    21   ar
    15    21    23    1
    16    23    24    1
    17    23    25    2
    18    23    26    2
    19    21    22   ar
    20     5     6   ar
    21     6     7   ar
    22     7     8    1
    23     8    27    1
    24    27    28    1
    25    27    29    1
    26    11    12   ar
    27    12    13   ar
    28    13    14   ar
    29    14     9   ar
    30     8     1    1
    31     7     3   ar
    32    22    17   ar
@<TRIPOS>MOLECULE
*****
 29 32 0 0 0
SMALL
GASTEIGER

@<TRIPOS>ATOM
      1 N           3.7849   -0.4699   20.6090 N.pl3   1  UNL1       -0.2996
      2 C           3.8194   -0.8458   22.0607 C.3     1  UNL1        0.1208
      3 C           2.7515   -0.0647   22.7674 C.ar    1  UNL1        0.0336
      4 C           2.1129    0.1856   24.1014 C.ar    1  UNL1        0.0990
      5 N           1.0236    1.1991   23.9109 N.ar    1  UNL1       -0.2287
      6 N           0.9890    1.5751   22.4592 N.ar    1  UNL1       -0.1681
      7 C           2.0569    0.7940   21.7525 C.ar    1  UNL1        0.0960
      8 C           2.6955    0.5437   20.4185 C.3     1  UNL1        0.1147
      9 C           6.4514   -0.6238   17.6738 C.ar    1  UNL1        0.2262
     10 C           5.5542   -0.0816   18.7466 C.ar    1  UNL1        0.0722
     11 C           4.6820   -1.0121   19.5362 C.ar    1  UNL1        0.0546
     12 C           4.7071   -2.4849   19.2529 C.ar    1  UNL1        0.0354
     13 C           5.6043   -3.0272   18.1801 C.ar    1  UNL1        0.1033
     14 N           6.4764   -2.0967   17.3905 N.ar    1  UNL1       -0.2101
     15 C           6.7176    1.4802   16.1731 C.3     1  UNL1        0.2542
     16 O           7.3236    0.3067   16.8841 O.3     1  UNL1       -0.4561
     17 C           0.1264    1.7414   24.9837 C.ar    1  UNL1        0.0841
     18 C           0.3563    1.3618   26.4165 C.ar    1  UNL1        0.0192
     19 C          -0.5409    1.9041   27.4893 C.ar    1  UNL1        0.0029
     20 C          -1.6681    2.8260   27.1293 C.ar    1  UNL1        0.0184
     21 C          -1.8981    3.2055   25.6965 C.ar    1  UNL1        0.1072
     22 C          -1.0008    2.6632   24.6237 C.ar    1  UNL1        0.0375
     23 S          -3.0252    4.1274   25.3364 S.O2    1  UNL1        0.0105
     24 C          -4.1524    5.0492   24.9762 C.3     1  UNL1        0.1816
     25 O          -3.7036    3.8053   26.6348 O.2     1  UNL1       -0.1686
     26 O          -2.3468    4.4495   24.0378 O.2     1  UNL1       -0.1686
     27 C           2.3122    1.1928   19.1217 C.3     1  UNL1        0.0240
     28 C           2.9457    2.4908   18.7167 C.3     1  UNL1        0.0021
     29 C           1.2954    0.5440   18.2300 C.3     1  UNL1        0.0021
@<TRIPOS>BOND
     1    15    16    1
     2    16     9    1
     3     9    10   ar
     4    10    11   ar
     5    11     1    1
     6     1     2    1
     7     2     3    1
     8     3     4   ar
     9     4     5   ar
    10     5    17    1
    11    17    18   ar
    12    18    19   ar
    13    19    20   ar
    14    20    21   ar
    15    21    23    1
    16    23    24    1
    17    23    25    2
    18    23    26    2
    19    21    22   ar
    20     5     6   ar
    21     6     7   ar
    22     7     8    1
    23     8    27    1
    24    27    28    1
    25    27    29    1
    26    11    12   ar
    27    12    13   ar
    28    13    14   ar
    29    14     9   ar
    30     8     1    1
    31     7     3   ar
    32    22    17   ar
@<TRIPOS>MOLECULE
*****
 29 32 0 0 0
SMALL
GASTEIGER

@<TRIPOS>ATOM
      1 N           2.9043   -1.2047   19.8554 N.pl3   1  UNL1       -0.2996
      2 C           1.7392   -1.0022   20.7782 C.3     1  UNL1        0.1208
      3 C           1.0372    0.2586   20.3688 C.ar    1  UNL1        0.0336
      4 C          -0.1167    1.1629   20.6861 C.ar    1  UNL1        0.0990
      5 N          -0.0987    2.2985   19.7063 N.ar    1  UNL1       -0.2287
      6 N           1.0663    2.0960   18.7834 N.ar    1  UNL1       -0.1681
      7 C           1.7683    0.8353   19.1928 C.ar    1  UNL1        0.0960
      8 C           2.9222   -0.0690   18.8755 C.3     1  UNL1        0.1147
      9 C           6.1077   -3.3614   20.7696 C.ar    1  UNL1        0.2262
     10 C           5.1320   -2.2232   20.7212 C.ar    1  UNL1        0.0722
     11 C           3.8800   -2.3429   19.9038 C.ar    1  UNL1        0.0546
     12 C           3.6038   -3.6008   19.1348 C.ar    1  UNL1        0.0354
     13 C           4.5795   -4.7391   19.1832 C.ar    1  UNL1        0.1033
     14 N           5.8315   -4.6194   20.0006 N.ar    1  UNL1       -0.2101
     15 C           7.7517   -4.3453   22.5245 C.3     1  UNL1        0.2542
     16 O           7.3598   -3.2418   21.5871 O.3     1  UNL1       -0.4561
     17 C          -1.0745    3.4367   19.6579 C.ar    1  UNL1        0.0841
     18 C          -0.7152    4.7024   18.9376 C.ar    1  UNL1        0.0192
     19 C          -1.6910    5.8407   18.8892 C.ar    1  UNL1        0.0029
     20 C          -3.0260    5.7132   19.5610 C.ar    1  UNL1        0.0184
     21 C          -3.3854    4.4475   20.2813 C.ar    1  UNL1        0.1072
     22 C          -2.4095    3.3092   20.3297 C.ar    1  UNL1        0.0375
     23 S          -4.7204    4.3199   20.9531 S.O2    1  UNL1        0.0105
     24 C          -6.0554    4.1924   21.6249 C.3     1  UNL1        0.1816
     25 O          -4.4469    2.8697   21.2215 O.2     1  UNL1       -0.1686
     26 O          -4.9939    5.7702   20.6847 O.2     1  UNL1       -0.1686
     27 C           3.9191    0.1277   17.7721 C.3     1  UNL1        0.0240
     28 C           3.9412   -0.8138   16.6045 C.3     1  UNL1        0.0021
     29 C           4.8939    1.2660   17.8361 C.3     1  UNL1        0.0021
@<TRIPOS>BOND
     1    15    16    1
     2    16     9    1
     3     9    10   ar
     4    10    11   ar
     5    11     1    1
     6     1     2    1
     7     2     3    1
     8     3     4   ar
     9     4     5   ar
    10     5    17    1
    11    17    18   ar
    12    18    19   ar
    13    19    20   ar
    14    20    21   ar
    15    21    23    1
    16    23    24    1
    17    23    25    2
    18    23    26    2
    19    21    22   ar
    20     5     6   ar
    21     6     7   ar
    22     7     8    1
    23     8    27    1
    24    27    28    1
    25    27    29    1
    26    11    12   ar
    27    12    13   ar
    28    13    14   ar
    29    14     9   ar
    30     8     1    1
    31     7     3   ar
    32    22    17   ar
@<TRIPOS>MOLECULE
*****
 29 32 0 0 0
SMALL
GASTEIGER

@<TRIPOS>ATOM
      1 N           2.9927   -0.1811   26.5574 N.pl3   1  UNL1       -0.2996
      2 C           3.8913   -1.3356   26.2265 C.3     1  UNL1        0.1208
      3 C           4.0025   -1.4234   24.7332 C.ar    1  UNL1        0.0336
      4 C           4.6266   -2.1912   23.6058 C.ar    1  UNL1        0.0990
      5 N           4.1823   -1.5654   22.3170 N.ar    1  UNL1       -0.2287
      6 N           3.2836   -0.4109   22.6479 N.ar    1  UNL1       -0.1681
      7 C           3.1725   -0.3231   24.1412 C.ar    1  UNL1        0.0960
      8 C           2.5484    0.4447   25.2685 C.3     1  UNL1        0.1147
      9 C           0.7779    0.7117   29.7272 C.ar    1  UNL1        0.2262
     10 C           1.1645    0.2619   28.3495 C.ar    1  UNL1        0.0722
     11 C           2.6061    0.2687   27.9351 C.ar    1  UNL1        0.0546
     12 C           3.6612    0.7253   28.8986 C.ar    1  UNL1        0.0354
     13 C           3.2747    1.1751   30.2764 C.ar    1  UNL1        0.1033
     14 N           1.8331    1.1683   30.6907 N.ar    1  UNL1       -0.2101
     15 C          -1.6957    0.0727   29.2554 C.3     1  UNL1        0.2542
     16 O          -0.6637    0.7049   30.1415 O.3     1  UNL1       -0.4561
     17 C           4.5688   -2.0152   20.9392 C.ar    1  UNL1        0.0841
     18 C           4.4122   -3.4550   20.5488 C.ar    1  UNL1        0.0192
     19 C           4.7988   -3.9047   19.1710 C.ar    1  UNL1        0.0029
     20 C           5.3419   -2.9147   18.1836 C.ar    1  UNL1        0.0184
     21 C           5.4985   -1.4749   18.5740 C.ar    1  UNL1        0.1072
     22 C           5.1119   -1.0252   19.9519 C.ar    1  UNL1        0.0375
     23 S           6.0416   -0.4848   17.5868 S.O2    1  UNL1        0.0105
     24 C           6.5848    0.5052   16.5995 C.3     1  UNL1        0.1816
     25 O           4.8195   -0.6633   16.7354 O.2     1  UNL1       -0.1686
     26 O           7.2637   -0.3064   18.4381 O.2     1  UNL1       -0.1686
     27 C           1.6396    1.6301   25.1312 C.3     1  UNL1        0.0240
     28 C           2.1985    3.0188   25.2277 C.3     1  UNL1        0.0021
     29 C           0.1719    1.4269   24.8974 C.3     1  UNL1        0.0021
@<TRIPOS>BOND
     1    15    16    1
     2    16     9    1
     3     9    10   ar
     4    10    11   ar
     5    11     1    1
     6     1     2    1
     7     2     3    1
     8     3     4   ar
     9     4     5   ar
    10     5    17    1
    11    17    18   ar
    12    18    19   ar
    13    19    20   ar
    14    20    21   ar
    15    21    23    1
    16    23    24    1
    17    23    25    2
    18    23    26    2
    19    21    22   ar
    20     5     6   ar
    21     6     7   ar
    22     7     8    1
    23     8    27    1
    24    27    28    1
    25    27    29    1
    26    11    12   ar
    27    12    13   ar
    28    13    14   ar
    29    14     9   ar
    30     8     1    1
    31     7     3   ar
    32    22    17   ar
@<TRIPOS>MOLECULE
*****
 29 32 0 0 0
SMALL
GASTEIGER

@<TRIPOS>ATOM
      1 N           6.1843   -2.3322   31.4157 N.pl3   1  UNL1       -0.2996
      2 C           4.8327   -2.0709   32.0115 C.3     1  UNL1        0.1208
      3 C           5.0263   -1.2778   33.2699 C.ar    1  UNL1        0.0336
      4 C           4.3105   -0.6262   34.4158 C.ar    1  UNL1        0.0990
      5 N           5.3394    0.0053   35.3060 N.ar    1  UNL1       -0.2287
      6 N           6.6911   -0.2559   34.7102 N.ar    1  UNL1       -0.1681
      7 C           6.4975   -1.0490   33.4518 C.ar    1  UNL1        0.0960
      8 C           7.2132   -1.7006   32.3059 C.3     1  UNL1        0.1147
      9 C           7.2032   -5.2742   28.9547 C.ar    1  UNL1        0.2262
     10 C           6.9287   -4.5147   30.2187 C.ar    1  UNL1        0.0722
     11 C           6.4588   -3.0917   30.1517 C.ar    1  UNL1        0.0546
     12 C           6.2634   -2.4283   28.8206 C.ar    1  UNL1        0.0354
     13 C           6.5379   -3.1878   27.5565 C.ar    1  UNL1        0.1033
     14 N           7.0078   -4.6107   27.6236 N.ar    1  UNL1       -0.2101
     15 C           8.8373   -7.1425   28.1872 C.3     1  UNL1        0.2542
     16 O           7.6732   -6.6971   29.0217 O.3     1  UNL1       -0.4561
     17 C           5.0650    0.7649   36.5700 C.ar    1  UNL1        0.0841
     18 C           6.1819    1.4749   37.2759 C.ar    1  UNL1        0.0192
     19 C           5.9073    2.2344   38.5400 C.ar    1  UNL1        0.0029
     20 C           4.5159    2.2839   39.0981 C.ar    1  UNL1        0.0184
     21 C           3.3990    1.5739   38.3922 C.ar    1  UNL1        0.1072
     22 C           3.6735    0.8144   37.1281 C.ar    1  UNL1        0.0375
     23 S           2.0075    1.6234   38.9502 S.O2    1  UNL1        0.0105
     24 C           0.6161    1.6728   39.5083 C.3     1  UNL1        0.1816
     25 O           1.6580    2.7145   37.9820 O.2     1  UNL1       -0.1686
     26 O           2.3571    0.5323   39.9184 O.2     1  UNL1       -0.1686
     27 C           8.6973   -1.7176   32.0884 C.3     1  UNL1        0.0240
     28 C           9.3439   -0.6587   31.2453 C.3     1  UNL1        0.0021
     29 C           9.5347   -2.7935   32.7138 C.3     1  UNL1        0.0021
@<TRIPOS>BOND
     1    15    16    1
     2    16     9    1
     3     9    10   ar
     4    10    11   ar
     5    11     1    1
     6     1     2    1
     7     2     3    1
     8     3     4   ar
     9     4     5   ar
    10     5    17    1
    11    17    18   ar
    12    18    19   ar
    13    19    20   ar
    14    20    21   ar
    15    21    23    1
    16    23    24    1
    17    23    25    2
    18    23    26    2
    19    21    22   ar
    20     5     6   ar
    21     6     7   ar
    22     7     8    1
    23     8    27    1
    24    27    28    1
    25    27    29    1
    26    11    12   ar
    27    12    13   ar
    28    13    14   ar
    29    14     9   ar
    30     8     1    1
    31     7     3   ar
    32    22    17   ar
