@<TRIPOS>MOLECULE
*****
 43 46 0 0 0
SMALL
GASTEIGER

@<TRIPOS>ATOM
      1 C           2.7750    0.4902   20.3461 C.3     1  UNL1        0.0781
      2 C           3.5275    0.8112   21.6034 C.3     1  UNL1        0.0372
      3 C           2.7801    1.1162   22.8676 C.3     1  UNL1        0.0738
      4 N           1.2803    1.1003   22.8747 N.3     1  UNL1       -0.2725
      5 C           0.5277    0.7793   21.6174 C.3     1  UNL1        0.0738
      6 C           1.2751    0.4742   20.3531 C.3     1  UNL1        0.0372
      7 N           3.5224    0.1851   19.0819 N.am    1  UNL1       -0.2808
      8 C           3.8666   -1.2338   18.7379 C.2     1  UNL1        0.2300
      9 O           4.6139   -1.5389   17.4736 O.2     1  UNL1       -0.2745
     10 C           5.2186    2.0255   18.3852 C.3     1  UNL1        0.0233
     11 C           3.9256    1.2989   18.1616 C.3     1  UNL1        0.0934
     12 C           3.4634   -2.3476   19.6581 C.3     1  UNL1        0.1116
     13 C           4.4316   -2.8625   20.6816 C.ar    1  UNL1       -0.0130
     14 C           4.0675   -2.8400   22.1366 C.ar    1  UNL1       -0.0025
     15 C           5.0357   -3.3549   23.1600 C.ar    1  UNL1        0.0180
     16 C           6.3680   -3.8924   22.7285 C.ar    1  UNL1        0.1057
     17 C           6.7320   -3.9149   21.2735 C.ar    1  UNL1        0.0180
     18 C           5.7638   -3.4000   20.2501 C.ar    1  UNL1       -0.0025
     19 S           7.3362   -4.4073   23.7520 S.O2    1  UNL1        0.0104
     20 C           8.3043   -4.9222   24.7755 C.3     1  UNL1        0.1816
     21 O           7.0047   -3.2505   24.6474 O.2     1  UNL1       -0.1686
     22 O           7.6676   -5.5641   22.8565 O.2     1  UNL1       -0.1686
     23 C           0.5329    1.4054   24.1389 C.3     1  UNL1        0.0728
     24 C          -0.3566    2.6109   24.2120 C.3     1  UNL1        0.0261
     25 C          -1.1932    2.8527   25.4333 C.3     1  UNL1        0.0461
     26 C          -2.6104    3.3230   25.2906 C.ar    1  UNL1       -0.0139
     27 C          -3.3306    3.1489   23.9864 C.ar    1  UNL1        0.0258
     28 C          -4.7479    3.6191   23.8436 C.ar    1  UNL1        0.1421
     29 F          -5.4681    3.4450   22.5394 F       1  UNL1       -0.2041
     30 C          -5.4449    4.2634   25.0051 C.ar    1  UNL1        0.0592
     31 C          -4.7247    4.4375   26.3093 C.ar    1  UNL1        0.1421
     32 F          -5.4217    5.0818   27.4708 F       1  UNL1       -0.2041
     33 C          -3.3075    3.9673   26.4521 C.ar    1  UNL1        0.0258
     34 C          -0.6127    2.6244   26.7974 C.ar    1  UNL1       -0.0183
     35 C           0.2396    3.6806   27.4363 C.ar    1  UNL1       -0.0026
     36 C           0.8202    3.4522   28.8003 C.ar    1  UNL1        0.0180
     37 C           0.5485    2.1676   29.5256 C.ar    1  UNL1        0.1057
     38 C          -0.3037    1.1114   28.8868 C.ar    1  UNL1        0.0180
     39 C          -0.8844    1.3398   27.5227 C.ar    1  UNL1       -0.0026
     40 S           1.1291    1.9392   30.8897 S.O2    1  UNL1        0.0104
     41 C           1.7097    1.7108   32.2538 C.3     1  UNL1        0.1816
     42 O           0.9722    3.3982   31.2008 O.2     1  UNL1       -0.1686
     43 O           1.2860    0.4803   30.5786 O.2     1  UNL1       -0.1686
@<TRIPOS>BOND
     1    10    11    1
     2    11     7    1
     3     7     8   am
     4     8     9    2
     5     8    12    1
     6    12    13    1
     7    13    14   ar
     8    14    15   ar
     9    15    16   ar
    10    16    19    1
    11    19    20    1
    12    19    21    2
    13    19    22    2
    14    16    17   ar
    15    17    18   ar
    16     7     1    1
    17     1     2    1
    18     2     3    1
    19     3     4    1
    20     4    23    1
    21    23    24    1
    22    25    24    1
    23    25    34    1
    24    34    35   ar
    25    35    36   ar
    26    36    37   ar
    27    37    40    1
    28    40    41    1
    29    40    42    2
    30    40    43    2
    31    37    38   ar
    32    38    39   ar
    33    25    26    1
    34    26    27   ar
    35    27    28   ar
    36    28    29    1
    37    28    30   ar
    38    30    31   ar
    39    31    32    1
    40    31    33   ar
    41     4     5    1
    42     5     6    1
    43    18    13   ar
    44     6     1    1
    45    39    34   ar
    46    33    26   ar
@<TRIPOS>MOLECULE
*****
 43 46 0 0 0
SMALL
GASTEIGER

@<TRIPOS>ATOM
      1 C           2.9391    0.4316   20.4110 C.3     1  UNL1        0.0781
      2 C           3.7734    0.6974   21.6289 C.3     1  UNL1        0.0372
      3 C           3.1110    0.9972   22.9409 C.3     1  UNL1        0.0738
      4 N           1.6144    1.0313   23.0350 N.3     1  UNL1       -0.2725
      5 C           0.7800    0.7655   21.8171 C.3     1  UNL1        0.0738
      6 C           1.4424    0.4657   20.5051 C.3     1  UNL1        0.0372
      7 N           3.6014    0.1318   19.0990 N.am    1  UNL1       -0.2808
      8 C           3.8691   -1.2896   18.7015 C.2     1  UNL1        0.2300
      9 O           4.5315   -1.5895   17.3894 O.2     1  UNL1       -0.2745
     10 C           3.5080    2.6462   18.4519 C.3     1  UNL1        0.0233
     11 C           3.9961    1.2533   18.1845 C.3     1  UNL1        0.0934
     12 C           3.4744   -2.4112   19.6159 C.3     1  UNL1        0.1116
     13 C           4.4433   -2.9179   20.6429 C.ar    1  UNL1       -0.0130
     14 C           5.7917   -3.4196   20.2186 C.ar    1  UNL1       -0.0025
     15 C           6.7605   -3.9263   21.2455 C.ar    1  UNL1        0.0180
     16 C           6.3809   -3.9314   22.6967 C.ar    1  UNL1        0.1057
     17 C           5.0325   -3.4297   23.1209 C.ar    1  UNL1        0.0180
     18 C           4.0637   -2.9230   22.0940 C.ar    1  UNL1       -0.0025
     19 S           7.3498   -4.4381   23.7236 S.O2    1  UNL1        0.0104
     20 C           8.3187   -4.9449   24.7504 C.3     1  UNL1        0.1816
     21 O           7.8302   -5.4793   22.7565 O.2     1  UNL1       -0.1686
     22 O           6.8695   -3.3970   24.6906 O.2     1  UNL1       -0.1686
     23 C           0.9520    1.3311   24.3470 C.3     1  UNL1        0.0728
     24 C           0.1301    2.5758   24.5051 C.3     1  UNL1        0.0261
     25 C          -0.8624    2.6821   25.6248 C.3     1  UNL1        0.0461
     26 C          -0.4757    2.2630   27.0121 C.ar    1  UNL1       -0.0139
     27 C           0.2953    3.2021   27.8918 C.ar    1  UNL1        0.0258
     28 C           0.6820    2.7830   29.2792 C.ar    1  UNL1        0.1421
     29 F           1.4529    3.7220   30.1589 F       1  UNL1       -0.2041
     30 C           0.2978    1.4248   29.7869 C.ar    1  UNL1        0.0592
     31 C          -0.4732    0.4858   28.9072 C.ar    1  UNL1        0.1421
     32 F          -0.8574   -0.8724   29.4150 F       1  UNL1       -0.2041
     33 C          -0.8599    0.9048   27.5199 C.ar    1  UNL1        0.0258
     34 C          -2.2416    3.2074   25.3571 C.ar    1  UNL1       -0.0183
     35 C          -2.7278    3.3533   23.9455 C.ar    1  UNL1       -0.0026
     36 C          -4.1070    3.8787   23.6778 C.ar    1  UNL1        0.0180
     37 C          -5.0001    4.2581   24.8216 C.ar    1  UNL1        0.1057
     38 C          -4.5141    4.1122   26.2331 C.ar    1  UNL1        0.0180
     39 C          -3.1348    3.5869   26.5009 C.ar    1  UNL1       -0.0026
     40 S          -6.3794    4.7834   24.5539 S.O2    1  UNL1        0.0104
     41 C          -7.7587    5.3088   24.2863 C.3     1  UNL1        0.1816
     42 O          -6.3655    4.1316   23.2031 O.2     1  UNL1       -0.1686
     43 O          -6.3933    5.4353   25.9048 O.2     1  UNL1       -0.1686
@<TRIPOS>BOND
     1    10    11    1
     2    11     7    1
     3     7     8   am
     4     8     9    2
     5     8    12    1
     6    12    13    1
     7    13    14   ar
     8    14    15   ar
     9    15    16   ar
    10    16    19    1
    11    19    20    1
    12    19    21    2
    13    19    22    2
    14    16    17   ar
    15    17    18   ar
    16     7     1    1
    17     1     2    1
    18     2     3    1
    19     3     4    1
    20     4    23    1
    21    23    24    1
    22    25    24    1
    23    25    34    1
    24    34    35   ar
    25    35    36   ar
    26    36    37   ar
    27    37    40    1
    28    40    41    1
    29    40    42    2
    30    40    43    2
    31    37    38   ar
    32    38    39   ar
    33    25    26    1
    34    26    27   ar
    35    27    28   ar
    36    28    29    1
    37    28    30   ar
    38    30    31   ar
    39    31    32    1
    40    31    33   ar
    41     4     5    1
    42     5     6    1
    43    18    13   ar
    44     6     1    1
    45    39    34   ar
    46    33    26   ar
@<TRIPOS>MOLECULE
*****
 43 46 0 0 0
SMALL
GASTEIGER

@<TRIPOS>ATOM
      1 C           4.3772   -0.3123   21.7071 C.3     1  UNL1        0.0781
      2 C           4.1097    1.1635   21.7260 C.3     1  UNL1        0.0372
      3 C           3.2724    1.7601   22.8183 C.3     1  UNL1        0.0738
      4 N           2.7027    0.8808   23.8918 N.3     1  UNL1       -0.2725
      5 C           2.9702   -0.5950   23.8729 C.3     1  UNL1        0.0738
      6 C           3.8075   -1.1916   22.7806 C.3     1  UNL1        0.0372
      7 N           5.2144   -0.9088   20.6148 N.am    1  UNL1       -0.2808
      8 C           4.5607   -1.6681   19.4985 C.2     1  UNL1        0.2300
      9 O           5.3979   -2.2647   18.4062 O.2     1  UNL1       -0.2745
     10 C           7.5681   -1.8244   21.2243 C.3     1  UNL1        0.0233
     11 C           6.7054   -0.7461   20.6388 C.3     1  UNL1        0.0934
     12 C           3.0698   -1.8308   19.4745 C.3     1  UNL1        0.1116
     13 C           2.1829   -0.6211   19.4886 C.ar    1  UNL1       -0.0130
     14 C           2.4387    0.5075   18.5343 C.ar    1  UNL1       -0.0025
     15 C           1.5518    1.7171   18.5484 C.ar    1  UNL1        0.0180
     16 C           0.4093    1.7982   19.5169 C.ar    1  UNL1        0.1057
     17 C           0.1535    0.6696   20.4713 C.ar    1  UNL1        0.0180
     18 C           1.0404   -0.5401   20.4571 C.ar    1  UNL1       -0.0025
     19 S          -0.4776    3.0079   19.5310 S.O2    1  UNL1        0.0104
     20 C          -1.3644    4.2176   19.5451 C.3     1  UNL1        0.1816
     21 O           0.3747    3.6450   18.4738 O.2     1  UNL1       -0.1686
     22 O          -1.3299    2.3708   20.5882 O.2     1  UNL1       -0.1686
     23 C           1.8655    1.4774   24.9841 C.3     1  UNL1        0.0728
     24 C           0.3750    1.5502   24.8318 C.3     1  UNL1        0.0261
     25 C          -0.4510    2.2559   25.8661 C.3     1  UNL1        0.0461
     26 C          -1.7039    2.9751   25.4626 C.ar    1  UNL1       -0.0139
     27 C          -1.9462    3.3078   24.0201 C.ar    1  UNL1        0.0258
     28 C          -3.1992    4.0270   23.6166 C.ar    1  UNL1        0.1421
     29 F          -3.4415    4.3597   22.1742 F       1  UNL1       -0.2041
     30 C          -4.2098    4.4134   24.6555 C.ar    1  UNL1        0.0592
     31 C          -3.9675    4.0807   26.0979 C.ar    1  UNL1        0.1421
     32 F          -4.9782    4.4672   27.1368 F       1  UNL1       -0.2041
     33 C          -2.7146    3.3615   26.5014 C.ar    1  UNL1        0.0258
     34 C          -0.0240    2.2424   27.3040 C.ar    1  UNL1       -0.0183
     35 C           0.5617    3.4763   27.9241 C.ar    1  UNL1       -0.0026
     36 C           0.9886    3.4628   29.3620 C.ar    1  UNL1        0.0180
     37 C           0.8299    2.2154   30.1798 C.ar    1  UNL1        0.1057
     38 C           0.2442    0.9816   29.5598 C.ar    1  UNL1        0.0180
     39 C          -0.1828    0.9950   28.1218 C.ar    1  UNL1       -0.0026
     40 S           1.2568    2.2019   31.6177 S.O2    1  UNL1        0.0104
     41 C           1.6838    2.1885   33.0556 C.3     1  UNL1        0.1816
     42 O           1.7860    0.8088   31.4474 O.2     1  UNL1       -0.1686
     43 O           0.7276    3.5951   31.7879 O.2     1  UNL1       -0.1686
@<TRIPOS>BOND
     1    10    11    1
     2    11     7    1
     3     7     8   am
     4     8     9    2
     5     8    12    1
     6    12    13    1
     7    13    14   ar
     8    14    15   ar
     9    15    16   ar
    10    16    19    1
    11    19    20    1
    12    19    21    2
    13    19    22    2
    14    16    17   ar
    15    17    18   ar
    16     7     1    1
    17     1     2    1
    18     2     3    1
    19     3     4    1
    20     4    23    1
    21    23    24    1
    22    25    24    1
    23    25    34    1
    24    34    35   ar
    25    35    36   ar
    26    36    37   ar
    27    37    40    1
    28    40    41    1
    29    40    42    2
    30    40    43    2
    31    37    38   ar
    32    38    39   ar
    33    25    26    1
    34    26    27   ar
    35    27    28   ar
    36    28    29    1
    37    28    30   ar
    38    30    31   ar
    39    31    32    1
    40    31    33   ar
    41     4     5    1
    42     5     6    1
    43    18    13   ar
    44     6     1    1
    45    39    34   ar
    46    33    26   ar
@<TRIPOS>MOLECULE
*****
 43 46 0 0 0
SMALL
GASTEIGER

@<TRIPOS>ATOM
      1 C           2.8603    0.5356   27.7431 C.3     1  UNL1        0.0781
      2 C           3.0929    1.5338   26.6479 C.3     1  UNL1        0.0372
      3 C           3.6659    1.0873   25.3355 C.3     1  UNL1        0.0738
      4 N           4.0064   -0.3573   25.1184 N.3     1  UNL1       -0.2725
      5 C           3.7739   -1.3555   26.2136 C.3     1  UNL1        0.0738
      6 C           3.2008   -0.9090   27.5260 C.3     1  UNL1        0.0372
      7 N           2.2873    0.9821   29.0555 N.am    1  UNL1       -0.2808
      8 C           0.8041    0.9465   29.2771 C.2     1  UNL1        0.2300
      9 O           0.2311    1.3930   30.5895 O.2     1  UNL1       -0.2745
     10 C           3.5969    0.5357   31.2544 C.3     1  UNL1        0.0233
     11 C           3.1973    1.4641   30.1461 C.3     1  UNL1        0.0934
     12 C          -0.1059    0.4645   28.1865 C.3     1  UNL1        0.1116
     13 C          -0.6130    1.4263   27.1531 C.ar    1  UNL1       -0.0130
     14 C          -0.1454    1.3159   25.7322 C.ar    1  UNL1       -0.0025
     15 C          -0.6525    2.2776   24.6988 C.ar    1  UNL1        0.0180
     16 C          -1.6273    3.3497   25.0864 C.ar    1  UNL1        0.1057
     17 C          -2.0950    3.4602   26.5073 C.ar    1  UNL1        0.0180
     18 C          -1.5879    2.4984   27.5407 C.ar    1  UNL1       -0.0025
     19 S          -2.1345    4.3115   24.0530 S.O2    1  UNL1        0.0104
     20 C          -2.6417    5.2732   23.0197 C.3     1  UNL1        0.1816
     21 O          -3.5085    4.2270   24.6487 O.2     1  UNL1       -0.1686
     22 O          -0.7605    4.3960   23.4573 O.2     1  UNL1       -0.1686
     23 C           4.5795   -0.8037   23.8060 C.3     1  UNL1        0.0728
     24 C           3.7482   -1.6242   22.8649 C.3     1  UNL1        0.0261
     25 C           3.5645   -1.1795   21.4442 C.3     1  UNL1        0.0461
     26 C           4.4063   -1.7776   20.3563 C.ar    1  UNL1       -0.0139
     27 C           4.1068   -3.1569   19.8486 C.ar    1  UNL1        0.0258
     28 C           4.9487   -3.7549   18.7606 C.ar    1  UNL1        0.1421
     29 F           4.6492   -5.1343   18.2530 F       1  UNL1       -0.2041
     30 C           6.0901   -2.9736   18.1804 C.ar    1  UNL1        0.0592
     31 C           6.3897   -1.5943   18.6881 C.ar    1  UNL1        0.1421
     32 F           7.5312   -0.8130   18.1078 F       1  UNL1       -0.2041
     33 C           5.5478   -0.9963   19.7760 C.ar    1  UNL1        0.0258
     34 C           2.5388   -0.1368   21.1113 C.ar    1  UNL1       -0.0183
     35 C           2.7628    1.2908   21.5135 C.ar    1  UNL1       -0.0026
     36 C           1.7372    2.3335   21.1807 C.ar    1  UNL1        0.0180
     37 C           0.4875    1.9486   20.4456 C.ar    1  UNL1        0.1057
     38 C           0.2636    0.5211   20.0434 C.ar    1  UNL1        0.0180
     39 C           1.2892   -0.5217   20.3762 C.ar    1  UNL1       -0.0026
     40 S          -0.5381    2.9913   20.1128 S.O2    1  UNL1        0.0104
     41 C          -1.5637    4.0341   19.7799 C.3     1  UNL1        0.1816
     42 O          -1.5426    2.2757   20.9664 O.2     1  UNL1       -0.1686
     43 O           0.4665    3.7069   19.2591 O.2     1  UNL1       -0.1686
@<TRIPOS>BOND
     1    10    11    1
     2    11     7    1
     3     7     8   am
     4     8     9    2
     5     8    12    1
     6    12    13    1
     7    13    14   ar
     8    14    15   ar
     9    15    16   ar
    10    16    19    1
    11    19    20    1
    12    19    21    2
    13    19    22    2
    14    16    17   ar
    15    17    18   ar
    16     7     1    1
    17     1     2    1
    18     2     3    1
    19     3     4    1
    20     4    23    1
    21    23    24    1
    22    25    24    1
    23    25    34    1
    24    34    35   ar
    25    35    36   ar
    26    36    37   ar
    27    37    40    1
    28    40    41    1
    29    40    42    2
    30    40    43    2
    31    37    38   ar
    32    38    39   ar
    33    25    26    1
    34    26    27   ar
    35    27    28   ar
    36    28    29    1
    37    28    30   ar
    38    30    31   ar
    39    31    32    1
    40    31    33   ar
    41     4     5    1
    42     5     6    1
    43    18    13   ar
    44     6     1    1
    45    39    34   ar
    46    33    26   ar
@<TRIPOS>MOLECULE
*****
 43 46 0 0 0
SMALL
GASTEIGER

@<TRIPOS>ATOM
      1 C          -0.7808    3.7503   21.0734 C.3     1  UNL1        0.0781
      2 C          -0.2593    2.4975   21.7125 C.3     1  UNL1        0.0372
      3 C           0.4899    2.5731   23.0098 C.3     1  UNL1        0.0738
      4 N           0.7176    3.9016   23.6680 N.3     1  UNL1       -0.2725
      5 C           0.1961    5.1545   23.0289 C.3     1  UNL1        0.0738
      6 C          -0.5531    5.0788   21.7316 C.3     1  UNL1        0.0372
      7 N          -1.5299    3.6746   19.7761 N.am    1  UNL1       -0.2808
      8 C          -0.7874    3.7573   18.4753 C.2     1  UNL1        0.2300
      9 O          -1.5366    3.6817   17.1780 O.2     1  UNL1       -0.2745
     10 C          -3.8950    4.6502   20.2280 C.3     1  UNL1        0.0233
     11 C          -3.0215    3.5163   19.7795 C.3     1  UNL1        0.0934
     12 C           0.7042    3.9157   18.4719 C.3     1  UNL1        0.1116
     13 C           1.5867    2.7055   18.3902 C.ar    1  UNL1       -0.0130
     14 C           3.0774    2.8660   18.3466 C.ar    1  UNL1       -0.0025
     15 C           3.9599    1.6558   18.2649 C.ar    1  UNL1        0.0180
     16 C           3.3516    0.2852   18.2267 C.ar    1  UNL1        0.1057
     17 C           1.8609    0.1248   18.2702 C.ar    1  UNL1        0.0180
     18 C           0.9784    1.3349   18.3519 C.ar    1  UNL1       -0.0025
     19 S           4.2342   -0.9250   18.1449 S.O2    1  UNL1        0.0104
     20 C           5.1167   -2.1351   18.0631 C.3     1  UNL1        0.1816
     21 O           4.1296   -0.9001   16.6488 O.2     1  UNL1       -0.1686
     22 O           4.3388   -0.9499   19.6410 O.2     1  UNL1       -0.1686
     23 C           1.4667    3.9772   24.9654 C.3     1  UNL1        0.0728
     24 C           0.7586    4.4052   26.2165 C.3     1  UNL1        0.0261
     25 C          -0.4002    3.6053   26.7334 C.3     1  UNL1        0.0461
     26 C          -0.1624    2.4644   27.6776 C.ar    1  UNL1       -0.0139
     27 C          -1.0490    1.2554   27.6317 C.ar    1  UNL1        0.0258
     28 C          -0.8111    0.1144   28.5760 C.ar    1  UNL1        0.1421
     29 F          -1.6978   -1.0946   28.5300 F       1  UNL1       -0.2041
     30 C           0.3135    0.1825   29.5662 C.ar    1  UNL1        0.0592
     31 C           1.2002    1.3915   29.6122 C.ar    1  UNL1        0.1421
     32 F           2.3248    1.4596   30.6025 F       1  UNL1       -0.2041
     33 C           0.9623    2.5324   28.6680 C.ar    1  UNL1        0.0258
     34 C          -1.7970    3.9463   26.3060 C.ar    1  UNL1       -0.0183
     35 C          -2.3789    3.3183   25.0743 C.ar    1  UNL1       -0.0026
     36 C          -3.7757    3.6593   24.6469 C.ar    1  UNL1        0.0180
     37 C          -4.5906    4.6283   25.4512 C.ar    1  UNL1        0.1057
     38 C          -4.0088    5.2563   26.6828 C.ar    1  UNL1        0.0180
     39 C          -2.6120    4.9153   27.1103 C.ar    1  UNL1       -0.0026
     40 S          -5.9874    4.9693   25.0238 S.O2    1  UNL1        0.0104
     41 C          -7.3842    5.3103   24.5964 C.3     1  UNL1        0.1816
     42 O          -5.6893    4.4613   23.6443 O.2     1  UNL1       -0.1686
     43 O          -6.2855    5.4773   26.4033 O.2     1  UNL1       -0.1686
@<TRIPOS>BOND
     1    10    11    1
     2    11     7    1
     3     7     8   am
     4     8     9    2
     5     8    12    1
     6    12    13    1
     7    13    14   ar
     8    14    15   ar
     9    15    16   ar
    10    16    19    1
    11    19    20    1
    12    19    21    2
    13    19    22    2
    14    16    17   ar
    15    17    18   ar
    16     7     1    1
    17     1     2    1
    18     2     3    1
    19     3     4    1
    20     4    23    1
    21    23    24    1
    22    25    24    1
    23    25    34    1
    24    34    35   ar
    25    35    36   ar
    26    36    37   ar
    27    37    40    1
    28    40    41    1
    29    40    42    2
    30    40    43    2
    31    37    38   ar
    32    38    39   ar
    33    25    26    1
    34    26    27   ar
    35    27    28   ar
    36    28    29    1
    37    28    30   ar
    38    30    31   ar
    39    31    32    1
    40    31    33   ar
    41     4     5    1
    42     5     6    1
    43    18    13   ar
    44     6     1    1
    45    39    34   ar
    46    33    26   ar
@<TRIPOS>MOLECULE
*****
 43 46 0 0 0
SMALL
GASTEIGER

@<TRIPOS>ATOM
      1 C          -0.4532    4.0509   23.6048 C.3     1  UNL1        0.0781
      2 C           1.0118    3.7601   23.7429 C.3     1  UNL1        0.0372
      3 C           1.6826    2.8173   22.7884 C.3     1  UNL1        0.0738
      4 N           0.8883    2.1653   21.6957 N.3     1  UNL1       -0.2725
      5 C          -0.5768    2.4561   21.5575 C.3     1  UNL1        0.0738
      6 C          -1.2475    3.3989   22.5120 C.3     1  UNL1        0.0372
      7 N          -1.1240    4.9938   24.5593 N.am    1  UNL1       -0.2808
      8 C          -1.7656    4.4660   25.8083 C.2     1  UNL1        0.2300
      9 O          -2.4363    5.4089   26.7628 O.2     1  UNL1       -0.2745
     10 C          -0.6351    6.9771   22.9540 C.3     1  UNL1        0.0233
     11 C          -1.1532    6.4643   24.2649 C.3     1  UNL1        0.0934
     12 C          -1.7364    2.9955   26.1027 C.3     1  UNL1        0.1116
     13 C          -0.8014    2.4578   27.1452 C.ar    1  UNL1       -0.0130
     14 C          -0.9803    1.0621   27.6649 C.ar    1  UNL1       -0.0025
     15 C          -0.0454    0.5244   28.7073 C.ar    1  UNL1        0.0180
     16 C           1.0684    1.3823   29.2301 C.ar    1  UNL1        0.1057
     17 C           1.2473    2.7780   28.7105 C.ar    1  UNL1        0.0180
     18 C           0.3124    3.3157   27.6680 C.ar    1  UNL1       -0.0025
     19 S           2.0034    0.8446   30.2726 S.O2    1  UNL1        0.0104
     20 C           2.9383    0.3068   31.3150 C.3     1  UNL1        0.1816
     21 O           1.4592   -0.5352   30.0488 O.2     1  UNL1       -0.1686
     22 O           2.5476    2.2243   30.4964 O.2     1  UNL1       -0.1686
     23 C           1.5591    1.2224   20.7412 C.3     1  UNL1        0.0728
     24 C           1.5612   -0.2514   21.0199 C.3     1  UNL1        0.0261
     25 C           2.8407   -0.9437   21.3854 C.3     1  UNL1        0.0461
     26 C           3.6913   -1.5616   20.3155 C.ar    1  UNL1       -0.0139
     27 C           3.5926   -3.0318   20.0346 C.ar    1  UNL1        0.0258
     28 C           4.4433   -3.6496   18.9646 C.ar    1  UNL1        0.1421
     29 F           4.3446   -5.1198   18.6837 F       1  UNL1       -0.2041
     30 C           5.3925   -2.7973   18.1756 C.ar    1  UNL1        0.0592
     31 C           5.4911   -1.3272   18.4565 C.ar    1  UNL1        0.1421
     32 F           6.4403   -0.4749   17.6674 F       1  UNL1       -0.2041
     33 C           4.6405   -0.7093   19.5264 C.ar    1  UNL1        0.0258
     34 C           3.2697   -1.0182   22.8208 C.ar    1  UNL1       -0.0183
     35 C           4.3431   -1.9812   23.2338 C.ar    1  UNL1       -0.0026
     36 C           4.7720   -2.0557   24.6692 C.ar    1  UNL1        0.0180
     37 C           4.1276   -1.1672   25.6916 C.ar    1  UNL1        0.1057
     38 C           3.0542   -0.2042   25.2787 C.ar    1  UNL1        0.0180
     39 C           2.6252   -0.1297   23.8432 C.ar    1  UNL1       -0.0026
     40 S           4.5565   -1.2417   27.1270 S.O2    1  UNL1        0.0104
     41 C           4.9854   -1.3161   28.5625 C.3     1  UNL1        0.1816
     42 O           5.9400   -0.8141   26.7358 O.2     1  UNL1       -0.1686
     43 O           3.1730   -1.6692   27.5183 O.2     1  UNL1       -0.1686
@<TRIPOS>BOND
     1    10    11    1
     2    11     7    1
     3     7     8   am
     4     8     9    2
     5     8    12    1
     6    12    13    1
     7    13    14   ar
     8    14    15   ar
     9    15    16   ar
    10    16    19    1
    11    19    20    1
    12    19    21    2
    13    19    22    2
    14    16    17   ar
    15    17    18   ar
    16     7     1    1
    17     1     2    1
    18     2     3    1
    19     3     4    1
    20     4    23    1
    21    23    24    1
    22    25    24    1
    23    25    34    1
    24    34    35   ar
    25    35    36   ar
    26    36    37   ar
    27    37    40    1
    28    40    41    1
    29    40    42    2
    30    40    43    2
    31    37    38   ar
    32    38    39   ar
    33    25    26    1
    34    26    27   ar
    35    27    28   ar
    36    28    29    1
    37    28    30   ar
    38    30    31   ar
    39    31    32    1
    40    31    33   ar
    41     4     5    1
    42     5     6    1
    43    18    13   ar
    44     6     1    1
    45    39    34   ar
    46    33    26   ar
@<TRIPOS>MOLECULE
*****
 43 46 0 0 0
SMALL
GASTEIGER

@<TRIPOS>ATOM
      1 C          -0.3447    3.3960   22.5457 C.3     1  UNL1        0.0781
      2 C           1.0304    3.9650   22.7333 C.3     1  UNL1        0.0372
      3 C           2.1529    3.5233   21.8417 C.3     1  UNL1        0.0738
      4 N           1.9002    2.5127   20.7625 N.3     1  UNL1       -0.2725
      5 C           0.5250    1.9437   20.5748 C.3     1  UNL1        0.0738
      6 C          -0.5975    2.3854   21.4664 C.3     1  UNL1        0.0372
      7 N          -1.4672    3.8377   23.4373 N.am    1  UNL1       -0.2808
      8 C          -1.6458    3.2072   24.7866 C.2     1  UNL1        0.2300
      9 O          -2.7683    3.6489   25.6782 O.2     1  UNL1       -0.2745
     10 C          -3.8067    4.5523   22.5623 C.3     1  UNL1        0.0233
     11 C          -2.4111    4.9099   22.9796 C.3     1  UNL1        0.0934
     12 C          -0.7019    2.1350   25.2443 C.3     1  UNL1        0.1116
     13 C          -0.2456    2.0971   26.6727 C.ar    1  UNL1       -0.0130
     14 C          -0.4764    0.8683   27.5014 C.ar    1  UNL1       -0.0025
     15 C          -0.0201    0.8304   28.9298 C.ar    1  UNL1        0.0180
     16 C           0.6668    2.0214   29.5295 C.ar    1  UNL1        0.1057
     17 C           0.8976    3.2502   28.7009 C.ar    1  UNL1        0.0180
     18 C           0.4413    3.2880   27.2725 C.ar    1  UNL1       -0.0025
     19 S           1.1231    1.9835   30.9580 S.O2    1  UNL1        0.0104
     20 C           1.5794    1.9456   32.3864 C.3     1  UNL1        0.1816
     21 O           2.4930    2.4215   30.5320 O.2     1  UNL1       -0.1686
     22 O          -0.2468    1.5454   31.3840 O.2     1  UNL1       -0.1686
     23 C           3.0227    2.0710   19.8709 C.3     1  UNL1        0.0728
     24 C           4.2944    1.5473   20.4695 C.3     1  UNL1        0.0261
     25 C           4.3269    0.1787   21.0825 C.3     1  UNL1        0.0461
     26 C           4.5599   -1.0249   20.2182 C.ar    1  UNL1       -0.0139
     27 C           5.8433   -1.1624   19.4540 C.ar    1  UNL1        0.0258
     28 C           6.0763   -2.3660   18.5897 C.ar    1  UNL1        0.1421
     29 F           7.3597   -2.5035   17.8255 F       1  UNL1       -0.2041
     30 C           5.0259   -3.4321   18.4895 C.ar    1  UNL1        0.0592
     31 C           3.7425   -3.2946   19.2537 C.ar    1  UNL1        0.1421
     32 F           2.6921   -4.3608   19.1535 F       1  UNL1       -0.2041
     33 C           3.5095   -2.0911   20.1180 C.ar    1  UNL1        0.0258
     34 C           4.1264    0.0136   22.5598 C.ar    1  UNL1       -0.0183
     35 C           2.7624    0.1967   23.1567 C.ar    1  UNL1       -0.0026
     36 C           2.5619    0.0316   24.6340 C.ar    1  UNL1        0.0180
     37 C           3.7253   -0.3166   25.5145 C.ar    1  UNL1        0.1057
     38 C           5.0892   -0.4997   24.9177 C.ar    1  UNL1        0.0180
     39 C           5.2897   -0.3346   23.4403 C.ar    1  UNL1       -0.0026
     40 S           3.5247   -0.4817   26.9918 S.O2    1  UNL1        0.0104
     41 C           3.3242   -0.6468   28.4692 C.3     1  UNL1        0.1816
     42 O           3.0433    0.9359   27.0849 O.2     1  UNL1       -0.1686
     43 O           4.0062   -1.8992   26.8988 O.2     1  UNL1       -0.1686
@<TRIPOS>BOND
     1    10    11    1
     2    11     7    1
     3     7     8   am
     4     8     9    2
     5     8    12    1
     6    12    13    1
     7    13    14   ar
     8    14    15   ar
     9    15    16   ar
    10    16    19    1
    11    19    20    1
    12    19    21    2
    13    19    22    2
    14    16    17   ar
    15    17    18   ar
    16     7     1    1
    17     1     2    1
    18     2     3    1
    19     3     4    1
    20     4    23    1
    21    23    24    1
    22    25    24    1
    23    25    34    1
    24    34    35   ar
    25    35    36   ar
    26    36    37   ar
    27    37    40    1
    28    40    41    1
    29    40    42    2
    30    40    43    2
    31    37    38   ar
    32    38    39   ar
    33    25    26    1
    34    26    27   ar
    35    27    28   ar
    36    28    29    1
    37    28    30   ar
    38    30    31   ar
    39    31    32    1
    40    31    33   ar
    41     4     5    1
    42     5     6    1
    43    18    13   ar
    44     6     1    1
    45    39    34   ar
    46    33    26   ar
@<TRIPOS>MOLECULE
*****
 43 46 0 0 0
SMALL
GASTEIGER

@<TRIPOS>ATOM
      1 C           7.3621   -4.3548   28.8289 C.3     1  UNL1        0.0781
      2 C           6.3154   -4.8393   27.8699 C.3     1  UNL1        0.0372
      3 C           6.5346   -4.7090   26.3917 C.3     1  UNL1        0.0738
      4 N           7.8004   -4.0943   25.8725 N.3     1  UNL1       -0.2725
      5 C           8.8472   -3.6098   26.8315 C.3     1  UNL1        0.0738
      6 C           8.6281   -3.7401   28.3097 C.3     1  UNL1        0.0372
      7 N           7.1430   -4.4851   30.3071 N.am    1  UNL1       -0.2808
      8 C           6.7943   -3.2756   31.1230 C.2     1  UNL1        0.2300
      9 O           6.5752   -3.4059   32.6012 O.2     1  UNL1       -0.2745
     10 C           8.6312   -6.4026   31.2333 C.3     1  UNL1        0.0233
     11 C           7.2724   -5.8247   30.9693 C.3     1  UNL1        0.0934
     12 C           6.6649   -1.9360   30.4608 C.3     1  UNL1        0.1116
     13 C           5.3078   -1.3354   30.2421 C.ar    1  UNL1       -0.0130
     14 C           4.5122   -0.8344   31.4109 C.ar    1  UNL1       -0.0025
     15 C           3.1552   -0.2339   31.1921 C.ar    1  UNL1        0.0180
     16 C           2.5938   -0.1344   29.8047 C.ar    1  UNL1        0.1057
     17 C           3.3894   -0.6354   28.6360 C.ar    1  UNL1        0.0180
     18 C           4.7464   -1.2360   28.8547 C.ar    1  UNL1       -0.0025
     19 S           1.2367    0.4662   29.5860 S.O2    1  UNL1        0.0104
     20 C          -0.1203    1.0667   29.3674 C.3     1  UNL1        0.1816
     21 O           1.1853    0.8751   31.0283 O.2     1  UNL1       -0.1686
     22 O           1.2881    0.0573   28.1438 O.2     1  UNL1       -0.1686
     23 C           8.0196   -3.9640   24.3944 C.3     1  UNL1        0.0728
     24 C           6.9209   -4.3239   23.4387 C.3     1  UNL1        0.0261
     25 C           6.1073   -3.2435   22.7901 C.3     1  UNL1        0.0461
     26 C           5.7322   -3.3540   21.3419 C.ar    1  UNL1       -0.0139
     27 C           4.4506   -4.0267   20.9483 C.ar    1  UNL1        0.0258
     28 C           4.0756   -4.1372   19.5001 C.ar    1  UNL1        0.1421
     29 F           2.7940   -4.8098   19.1065 F       1  UNL1       -0.2041
     30 C           4.9822   -3.5750   18.4456 C.ar    1  UNL1        0.0592
     31 C           6.2638   -2.9023   18.8392 C.ar    1  UNL1        0.1421
     32 F           7.1705   -2.3402   17.7847 F       1  UNL1       -0.2041
     33 C           6.6389   -2.7918   20.2874 C.ar    1  UNL1        0.0258
     34 C           5.6686   -2.0526   23.5896 C.ar    1  UNL1       -0.0183
     35 C           4.3242   -2.0497   24.2549 C.ar    1  UNL1       -0.0026
     36 C           3.8856   -0.8588   25.0544 C.ar    1  UNL1        0.0180
     37 C           4.7913    0.3293   25.1886 C.ar    1  UNL1        0.1057
     38 C           6.1356    0.3266   24.5233 C.ar    1  UNL1        0.0180
     39 C           6.5743   -0.8644   23.7238 C.ar    1  UNL1       -0.0026
     40 S           4.3527    1.5203   25.9882 S.O2    1  UNL1        0.0104
     41 C           3.9141    2.7112   26.7877 C.3     1  UNL1        0.1816
     42 O           2.9901    1.4356   25.3667 O.2     1  UNL1       -0.1686
     43 O           5.7152    1.6049   26.6096 O.2     1  UNL1       -0.1686
@<TRIPOS>BOND
     1    10    11    1
     2    11     7    1
     3     7     8   am
     4     8     9    2
     5     8    12    1
     6    12    13    1
     7    13    14   ar
     8    14    15   ar
     9    15    16   ar
    10    16    19    1
    11    19    20    1
    12    19    21    2
    13    19    22    2
    14    16    17   ar
    15    17    18   ar
    16     7     1    1
    17     1     2    1
    18     2     3    1
    19     3     4    1
    20     4    23    1
    21    23    24    1
    22    25    24    1
    23    25    34    1
    24    34    35   ar
    25    35    36   ar
    26    36    37   ar
    27    37    40    1
    28    40    41    1
    29    40    42    2
    30    40    43    2
    31    37    38   ar
    32    38    39   ar
    33    25    26    1
    34    26    27   ar
    35    27    28   ar
    36    28    29    1
    37    28    30   ar
    38    30    31   ar
    39    31    32    1
    40    31    33   ar
    41     4     5    1
    42     5     6    1
    43    18    13   ar
    44     6     1    1
    45    39    34   ar
    46    33    26   ar
@<TRIPOS>MOLECULE
*****
 43 46 0 0 0
SMALL
GASTEIGER

@<TRIPOS>ATOM
      1 C           7.0128   -3.4043   27.2841 C.3     1  UNL1        0.0781
      2 C           5.7572   -2.9057   27.9358 C.3     1  UNL1        0.0372
      3 C           5.3348   -1.4777   27.7557 C.3     1  UNL1        0.0738
      4 N           6.1680   -0.5483   26.9239 N.3     1  UNL1       -0.2725
      5 C           7.4237   -1.0469   26.2722 C.3     1  UNL1        0.0738
      6 C           7.8461   -2.4749   26.4522 C.3     1  UNL1        0.0372
      7 N           7.4352   -4.8323   27.4641 N.am    1  UNL1       -0.2808
      8 C           8.3880   -5.1997   28.5629 C.2     1  UNL1        0.2300
      9 O           8.8104   -6.6277   28.7430 O.2     1  UNL1       -0.2745
     10 C           7.6498   -6.2389   25.2904 C.3     1  UNL1        0.0233
     11 C           6.9048   -5.8928   26.5455 C.3     1  UNL1        0.0934
     12 C           8.9183   -4.1392   29.4816 C.3     1  UNL1        0.1116
     13 C           8.0124   -3.5013   30.4928 C.ar    1  UNL1       -0.0130
     14 C           7.1373   -4.3561   31.3607 C.ar    1  UNL1       -0.0025
     15 C           6.2314   -3.7182   32.3718 C.ar    1  UNL1        0.0180
     16 C           6.2007   -2.2254   32.5150 C.ar    1  UNL1        0.1057
     17 C           7.0758   -1.3705   31.6471 C.ar    1  UNL1        0.0180
     18 C           7.9816   -2.0084   30.6359 C.ar    1  UNL1       -0.0025
     19 S           5.2947   -1.5874   33.5262 S.O2    1  UNL1        0.0104
     20 C           4.3888   -0.9495   34.5373 C.3     1  UNL1        0.1816
     21 O           4.1343   -2.3617   32.9749 O.2     1  UNL1       -0.1686
     22 O           6.4552   -0.8132   34.0774 O.2     1  UNL1       -0.1686
     23 C           5.7456    0.8797   26.7438 C.3     1  UNL1        0.0728
     24 C           4.9583    1.2818   25.5321 C.3     1  UNL1        0.0261
     25 C           3.7495    0.4916   25.1269 C.3     1  UNL1        0.0461
     26 C           2.4481    0.6902   25.8458 C.ar    1  UNL1       -0.0139
     27 C           1.2762    1.2871   25.1244 C.ar    1  UNL1        0.0258
     28 C          -0.0253    1.4857   25.8434 C.ar    1  UNL1        0.1421
     29 F          -1.1972    2.0826   25.1220 F       1  UNL1       -0.2041
     30 C          -0.1548    1.0873   27.2837 C.ar    1  UNL1        0.0592
     31 C           1.0171    0.4904   28.0051 C.ar    1  UNL1        0.1421
     32 F           0.8876    0.0920   29.4455 F       1  UNL1       -0.2041
     33 C           2.3185    0.2918   27.2862 C.ar    1  UNL1        0.0258
     34 C           3.8420   -0.4971   24.0027 C.ar    1  UNL1       -0.0183
     35 C           4.4231   -1.8583   24.2469 C.ar    1  UNL1       -0.0026
     36 C           4.5156   -2.8470   23.1228 C.ar    1  UNL1        0.0180
     37 C           4.0270   -2.4747   21.7544 C.ar    1  UNL1        0.1057
     38 C           3.4459   -1.1136   21.5101 C.ar    1  UNL1        0.0180
     39 C           3.3534   -0.1248   22.6343 C.ar    1  UNL1       -0.0026
     40 S           4.1195   -3.4635   20.6302 S.O2    1  UNL1        0.0104
     41 C           4.2121   -4.4523   19.5060 C.3     1  UNL1        0.1816
     42 O           3.3491   -2.5292   19.7451 O.2     1  UNL1       -0.1686
     43 O           4.8899   -4.3977   21.5153 O.2     1  UNL1       -0.1686
@<TRIPOS>BOND
     1    10    11    1
     2    11     7    1
     3     7     8   am
     4     8     9    2
     5     8    12    1
     6    12    13    1
     7    13    14   ar
     8    14    15   ar
     9    15    16   ar
    10    16    19    1
    11    19    20    1
    12    19    21    2
    13    19    22    2
    14    16    17   ar
    15    17    18   ar
    16     7     1    1
    17     1     2    1
    18     2     3    1
    19     3     4    1
    20     4    23    1
    21    23    24    1
    22    25    24    1
    23    25    34    1
    24    34    35   ar
    25    35    36   ar
    26    36    37   ar
    27    37    40    1
    28    40    41    1
    29    40    42    2
    30    40    43    2
    31    37    38   ar
    32    38    39   ar
    33    25    26    1
    34    26    27   ar
    35    27    28   ar
    36    28    29    1
    37    28    30   ar
    38    30    31   ar
    39    31    32    1
    40    31    33   ar
    41     4     5    1
    42     5     6    1
    43    18    13   ar
    44     6     1    1
    45    39    34   ar
    46    33    26   ar
