@<TRIPOS>MOLECULE
*****
 33 37 0 0 0
SMALL
GASTEIGER

@<TRIPOS>ATOM
      1 C           0.7510    3.0625   18.8919 C.ar    1  UNL1        0.0687
      2 C           2.0368    3.8079   18.6890 C.ar    1  UNL1        0.0163
      3 C           2.2198    5.1669   19.2968 C.ar    1  UNL1        0.0029
      4 C           1.1170    5.7806   20.1075 C.ar    1  UNL1        0.0188
      5 C          -0.1687    5.0352   20.3104 C.ar    1  UNL1        0.0801
      6 C          -0.3517    3.6762   19.7026 C.ar    1  UNL1        0.1120
      7 N          -1.7199    3.1839   20.0713 N.ar    1  UNL1       -0.2256
      8 C          -2.3824    4.2387   20.9071 C.ar    1  UNL1        0.1439
      9 N          -1.4237    5.3829   21.0548 N.ar    1  UNL1       -0.3094
     10 C          -1.6758    6.6519   21.8138 C.3     1  UNL1        0.1319
     11 C          -3.7615    4.1627   21.4923 C.ar    1  UNL1        0.0343
     12 C          -4.9442    4.6102   20.6857 C.ar    1  UNL1        0.0053
     13 C          -6.3232    4.5341   21.2709 C.ar    1  UNL1        0.0297
     14 C          -6.5194    4.0106   22.6628 C.ar    1  UNL1        0.1401
     15 F          -7.8985    3.9346   23.2481 F       1  UNL1       -0.2042
     16 C          -5.3367    3.5632   23.4695 C.ar    1  UNL1        0.0297
     17 C          -3.9577    3.6392   22.8842 C.ar    1  UNL1        0.0053
     18 N           0.5680    1.7034   18.2840 N.pl3   1  UNL1       -0.2966
     19 H          -0.1812    1.5368   17.6673 H       1  UNL1        0.1537
     20 C           3.6598   -0.7740   18.0543 C.ar    1  UNL1        0.2428
     21 N           2.7014    0.3312   17.7226 N.ar    1  UNL1       -0.1954
     22 C           1.5263    0.5982   18.6157 C.ar    1  UNL1        0.1354
     23 C           1.3096   -0.2400   19.8407 C.ar    1  UNL1        0.0361
     24 C           2.2679   -1.3452   20.1725 C.ar    1  UNL1        0.0252
     25 C           3.4431   -1.6122   19.2792 C.ar    1  UNL1        0.1190
     26 N           4.4015   -2.7174   19.6109 N.ar    1  UNL1       -0.2826
     27 C           4.1961   -4.1764   19.3300 C.ar    1  UNL1        0.1826
     28 N           5.4012   -4.9184   19.8273 N.ar    1  UNL1       -0.2280
     29 C           6.3513   -3.9179   20.4156 C.ar    1  UNL1        0.0786
     30 C           7.6852   -4.2239   21.0298 C.3     1  UNL1        0.0538
     31 C           5.7335   -2.5576   20.2819 C.ar    1  UNL1        0.0963
     32 C           6.0535   -0.1703   17.2444 C.3     1  UNL1        0.2543
     33 O           4.8349   -1.0410   17.1610 O.3     1  UNL1       -0.4551
@<TRIPOS>BOND
     1    32    33    1
     2    33    20    1
     3    20    21   ar
     4    21    22   ar
     5    22    18    1
     6    18     1    1
     7     1     2   ar
     8     2     3   ar
     9     3     4   ar
    10     4     5   ar
    11     5     6   ar
    12     6     7   ar
    13     7     8   ar
    14     8    11    1
    15    11    12   ar
    16    12    13   ar
    17    13    14   ar
    18    14    15    1
    19    14    16   ar
    20    16    17   ar
    21     8     9   ar
    22     9    10    1
    23    22    23   ar
    24    23    24   ar
    25    24    25   ar
    26    25    26    1
    27    26    27   ar
    28    27    28   ar
    29    28    29   ar
    30    29    30    1
    31    29    31   ar
    32    25    20   ar
    33    31    26   ar
    34     6     1   ar
    35    17    11   ar
    36     9     5   ar
    37    18    19    1
@<TRIPOS>MOLECULE
*****
 33 37 0 0 0
SMALL
GASTEIGER

@<TRIPOS>ATOM
      1 C           6.5475   -3.2663   26.8390 C.ar    1  UNL1        0.0687
      2 C           6.9758   -4.4800   26.0686 C.ar    1  UNL1        0.0163
      3 C           7.3306   -5.7431   26.7956 C.ar    1  UNL1        0.0029
      4 C           7.2571   -5.7926   28.2930 C.ar    1  UNL1        0.0188
      5 C           6.8288   -4.5789   29.0634 C.ar    1  UNL1        0.0801
      6 C           6.4740   -3.3158   28.3364 C.ar    1  UNL1        0.1120
      7 N           6.0889   -2.2861   29.3570 N.ar    1  UNL1       -0.2256
      8 C           6.2056   -2.9130   30.7147 C.ar    1  UNL1        0.1439
      9 N           6.6630   -4.3300   30.5333 N.ar    1  UNL1       -0.3094
     10 C           6.9109   -5.3236   31.6292 C.3     1  UNL1        0.1319
     11 C           5.9159   -2.2408   32.0241 C.ar    1  UNL1        0.0343
     12 C           6.9663   -1.3960   32.6820 C.ar    1  UNL1        0.0053
     13 C           6.6766   -0.7239   33.9913 C.ar    1  UNL1        0.0297
     14 C           5.3365   -0.8966   34.6427 C.ar    1  UNL1        0.1401
     15 F           5.0468   -0.2245   35.9521 F       1  UNL1       -0.2042
     16 C           4.2861   -1.7414   33.9848 C.ar    1  UNL1        0.0297
     17 C           4.5758   -2.4135   32.6755 C.ar    1  UNL1        0.0053
     18 N           6.1927   -2.0031   26.1121 N.pl3   1  UNL1       -0.2966
     19 H           6.1092   -1.1566   26.6079 H       1  UNL1        0.1537
     20 C           6.8529   -1.6977   22.2107 C.ar    1  UNL1        0.2428
     21 N           7.0805   -1.6713   23.6931 N.ar    1  UNL1       -0.1954
     22 C           5.9651   -2.0295   24.6297 C.ar    1  UNL1        0.1354
     23 C           4.6218   -2.4143   24.0839 C.ar    1  UNL1        0.0361
     24 C           4.3942   -2.4408   22.6015 C.ar    1  UNL1        0.0252
     25 C           5.5098   -2.0825   21.6649 C.ar    1  UNL1        0.1190
     26 N           5.2822   -2.1089   20.1825 N.ar    1  UNL1       -0.2826
     27 C           5.7710   -3.1632   19.2341 C.ar    1  UNL1        0.1826
     28 N           5.3167   -2.7916   17.8537 N.ar    1  UNL1       -0.2280
     29 C           4.5470   -1.5077   17.9489 C.ar    1  UNL1        0.0786
     30 C           3.9105   -0.7744   16.8057 C.3     1  UNL1        0.0538
     31 C           4.5257   -1.0858   19.3882 C.ar    1  UNL1        0.0963
     32 C           8.9870   -2.3718   20.8911 C.3     1  UNL1        0.2543
     33 O           7.9685   -1.3394   21.2741 O.3     1  UNL1       -0.4551
@<TRIPOS>BOND
     1    32    33    1
     2    33    20    1
     3    20    21   ar
     4    21    22   ar
     5    22    18    1
     6    18     1    1
     7     1     2   ar
     8     2     3   ar
     9     3     4   ar
    10     4     5   ar
    11     5     6   ar
    12     6     7   ar
    13     7     8   ar
    14     8    11    1
    15    11    12   ar
    16    12    13   ar
    17    13    14   ar
    18    14    15    1
    19    14    16   ar
    20    16    17   ar
    21     8     9   ar
    22     9    10    1
    23    22    23   ar
    24    23    24   ar
    25    24    25   ar
    26    25    26    1
    27    26    27   ar
    28    27    28   ar
    29    28    29   ar
    30    29    30    1
    31    29    31   ar
    32    25    20   ar
    33    31    26   ar
    34     6     1   ar
    35    17    11   ar
    36     9     5   ar
    37    18    19    1
@<TRIPOS>MOLECULE
*****
 33 37 0 0 0
SMALL
GASTEIGER

@<TRIPOS>ATOM
      1 C          -1.6322    3.5545   20.4403 C.ar    1  UNL1        0.0687
      2 C          -1.7131    5.0384   20.6438 C.ar    1  UNL1        0.0163
      3 C          -0.4839    5.8844   20.4915 C.ar    1  UNL1        0.0029
      4 C           0.8263    5.2465   20.1357 C.ar    1  UNL1        0.0188
      5 C           0.9071    3.7626   19.9321 C.ar    1  UNL1        0.0801
      6 C          -0.3221    2.9166   20.0844 C.ar    1  UNL1        0.1120
      7 N           0.0618    1.4900   19.8243 N.ar    1  UNL1       -0.2256
      8 C           1.5283    1.4544   19.5112 C.ar    1  UNL1        0.1439
      9 N           2.0508    2.8589   19.5779 N.ar    1  UNL1       -0.3094
     10 C           3.4680    3.2850   19.3332 C.3     1  UNL1        0.1319
     11 C           2.3314    0.2293   19.1882 C.ar    1  UNL1        0.0343
     12 C           3.0252    0.1152   17.8632 C.ar    1  UNL1        0.0053
     13 C           3.8283   -1.1099   17.5403 C.ar    1  UNL1        0.0297
     14 C           3.9376   -2.2207   18.5423 C.ar    1  UNL1        0.1401
     15 F           4.7407   -3.4458   18.2193 F       1  UNL1       -0.2042
     16 C           3.2438   -2.1065   19.8673 C.ar    1  UNL1        0.0297
     17 C           2.4407   -0.8815   20.1902 C.ar    1  UNL1        0.0053
     18 N          -2.8615    2.7085   20.5926 N.pl3   1  UNL1       -0.2966
     19 H          -2.8761    1.7921   20.2329 H       1  UNL1        0.1537
     20 C          -5.3559    3.7715   23.4904 C.ar    1  UNL1        0.2428
     21 N          -4.1489    3.2213   22.7902 N.ar    1  UNL1       -0.1954
     22 C          -4.0686    3.2586   21.2928 C.ar    1  UNL1        0.1354
     23 C          -5.1953    3.8461   20.4956 C.ar    1  UNL1        0.0361
     24 C          -6.4024    4.3962   21.1959 C.ar    1  UNL1        0.0252
     25 C          -6.4827    4.3589   22.6934 C.ar    1  UNL1        0.1190
     26 N          -7.6897    4.9091   23.3936 N.ar    1  UNL1       -0.2826
     27 C          -8.8454    4.1096   23.9183 C.ar    1  UNL1        0.1826
     28 N          -9.8229    5.0617   24.5411 N.ar    1  UNL1       -0.2280
     29 C          -9.2714    6.4496   24.4013 C.ar    1  UNL1        0.0786
     30 C          -9.9238    7.7105   24.8857 C.3     1  UNL1        0.0538
     31 C          -7.9530    6.3553   23.6922 C.ar    1  UNL1        0.0963
     32 C          -4.2656    4.1798   25.8131 C.3     1  UNL1        0.2543
     33 O          -5.4362    3.7342   24.9879 O.3     1  UNL1       -0.4551
@<TRIPOS>BOND
     1    32    33    1
     2    33    20    1
     3    20    21   ar
     4    21    22   ar
     5    22    18    1
     6    18     1    1
     7     1     2   ar
     8     2     3   ar
     9     3     4   ar
    10     4     5   ar
    11     5     6   ar
    12     6     7   ar
    13     7     8   ar
    14     8    11    1
    15    11    12   ar
    16    12    13   ar
    17    13    14   ar
    18    14    15    1
    19    14    16   ar
    20    16    17   ar
    21     8     9   ar
    22     9    10    1
    23    22    23   ar
    24    23    24   ar
    25    24    25   ar
    26    25    26    1
    27    26    27   ar
    28    27    28   ar
    29    28    29   ar
    30    29    30    1
    31    29    31   ar
    32    25    20   ar
    33    31    26   ar
    34     6     1   ar
    35    17    11   ar
    36     9     5   ar
    37    18    19    1
@<TRIPOS>MOLECULE
*****
 33 37 0 0 0
SMALL
GASTEIGER

@<TRIPOS>ATOM
      1 C          -0.9944    3.8294   18.5059 C.ar    1  UNL1        0.0687
      2 C          -1.2759    3.6859   17.0396 C.ar    1  UNL1        0.0163
      3 C          -2.6904    3.7133   16.5413 C.ar    1  UNL1        0.0029
      4 C          -3.8234    3.8842   17.5093 C.ar    1  UNL1        0.0188
      5 C          -3.5419    4.0276   18.9756 C.ar    1  UNL1        0.0801
      6 C          -2.1274    4.0002   19.4739 C.ar    1  UNL1        0.1120
      7 N          -2.1578    4.1643   20.9647 N.ar    1  UNL1       -0.2256
      8 C          -3.5911    4.2932   21.3876 C.ar    1  UNL1        0.1439
      9 N          -4.4466    4.2087   20.1583 N.ar    1  UNL1       -0.3094
     10 C          -5.9438    4.2908   20.1187 C.3     1  UNL1        0.1319
     11 C          -4.0828    4.4746   22.7931 C.ar    1  UNL1        0.0343
     12 C          -4.0082    5.8232   23.4455 C.ar    1  UNL1        0.0053
     13 C          -4.4999    6.0046   24.8510 C.ar    1  UNL1        0.0297
     14 C          -5.0661    4.8375   25.6040 C.ar    1  UNL1        0.1401
     15 F          -5.5578    5.0189   27.0095 F       1  UNL1       -0.2042
     16 C          -5.1407    3.4889   24.9516 C.ar    1  UNL1        0.0297
     17 C          -4.6491    3.3075   23.5462 C.ar    1  UNL1        0.0053
     18 N           0.4202    3.8020   19.0043 N.pl3   1  UNL1       -0.2966
     19 H           0.8964    4.6454   19.1805 H       1  UNL1        0.1537
     20 C           3.2552    1.0282   19.1411 C.ar    1  UNL1        0.2428
     21 N           2.5663    2.3407   18.9113 N.ar    1  UNL1       -0.1954
     22 C           1.1091    2.4895   19.2341 C.ar    1  UNL1        0.1354
     23 C           0.3407    1.3258   19.7867 C.ar    1  UNL1        0.0361
     24 C           1.0296    0.0133   20.0165 C.ar    1  UNL1        0.0252
     25 C           2.4869   -0.1355   19.6937 C.ar    1  UNL1        0.1190
     26 N           3.1758   -1.4479   19.9235 N.ar    1  UNL1       -0.2826
     27 C           3.7760   -1.9142   21.2167 C.ar    1  UNL1        0.1826
     28 N           4.3566   -3.2790   20.9929 N.ar    1  UNL1       -0.2280
     29 C           4.1153   -3.6563   19.5613 C.ar    1  UNL1        0.0786
     30 C           4.5308   -4.9399   18.9058 C.3     1  UNL1        0.0538
     31 C           3.3855   -2.5247   18.9004 C.ar    1  UNL1        0.0963
     32 C           5.1361    0.4374   17.4489 C.3     1  UNL1        0.2543
     33 O           4.7126    0.8795   18.8183 O.3     1  UNL1       -0.4551
@<TRIPOS>BOND
     1    32    33    1
     2    33    20    1
     3    20    21   ar
     4    21    22   ar
     5    22    18    1
     6    18     1    1
     7     1     2   ar
     8     2     3   ar
     9     3     4   ar
    10     4     5   ar
    11     5     6   ar
    12     6     7   ar
    13     7     8   ar
    14     8    11    1
    15    11    12   ar
    16    12    13   ar
    17    13    14   ar
    18    14    15    1
    19    14    16   ar
    20    16    17   ar
    21     8     9   ar
    22     9    10    1
    23    22    23   ar
    24    23    24   ar
    25    24    25   ar
    26    25    26    1
    27    26    27   ar
    28    27    28   ar
    29    28    29   ar
    30    29    30    1
    31    29    31   ar
    32    25    20   ar
    33    31    26   ar
    34     6     1   ar
    35    17    11   ar
    36     9     5   ar
    37    18    19    1
@<TRIPOS>MOLECULE
*****
 33 37 0 0 0
SMALL
GASTEIGER

@<TRIPOS>ATOM
      1 C           0.9343    1.4930   19.4455 C.ar    1  UNL1        0.0687
      2 C           2.1122    2.0655   18.7142 C.ar    1  UNL1        0.0163
      3 C           2.1603    3.5317   18.4015 C.ar    1  UNL1        0.0029
      4 C           1.0307    4.4254   18.8200 C.ar    1  UNL1        0.0188
      5 C          -0.1472    3.8529   19.5512 C.ar    1  UNL1        0.0801
      6 C          -0.1954    2.3867   19.8640 C.ar    1  UNL1        0.1120
      7 N          -1.4774    2.1098   20.5920 N.ar    1  UNL1       -0.2256
      8 C          -2.2215    3.4050   20.7292 C.ar    1  UNL1        0.1439
      9 N          -1.3994    4.4822   20.0859 N.ar    1  UNL1       -0.3094
     10 C          -1.7652    5.9340   19.9936 C.3     1  UNL1        0.1319
     11 C          -3.5538    3.5904   21.3930 C.ar    1  UNL1        0.0343
     12 C          -4.7739    3.8608   20.5635 C.ar    1  UNL1        0.0053
     13 C          -6.1061    4.0462   21.2274 C.ar    1  UNL1        0.0297
     14 C          -6.2182    3.9613   22.7207 C.ar    1  UNL1        0.1401
     15 F          -7.5506    4.1467   23.3846 F       1  UNL1       -0.2042
     16 C          -4.9981    3.6909   23.5503 C.ar    1  UNL1        0.0297
     17 C          -3.6659    3.5054   22.8864 C.ar    1  UNL1        0.0053
     18 N           0.8861    0.0267   19.7583 N.pl3   1  UNL1       -0.2966
     19 H           0.0561   -0.4814   19.6094 H       1  UNL1        0.1537
     20 C           4.1370   -2.2420   19.9442 C.ar    1  UNL1        0.2428
     21 N           2.9206   -1.5499   19.4045 N.ar    1  UNL1       -0.1954
     22 C           2.1025   -0.6654   20.2980 C.ar    1  UNL1        0.1354
     23 C           2.5009   -0.4730   21.7314 C.ar    1  UNL1        0.0361
     24 C           3.7173   -1.1651   22.2711 C.ar    1  UNL1        0.0252
     25 C           4.5354   -2.0496   21.3775 C.ar    1  UNL1        0.1190
     26 N           5.7518   -2.7418   21.9172 N.ar    1  UNL1       -0.2826
     27 C           7.1765   -2.3946   21.6017 C.ar    1  UNL1        0.1826
     28 N           8.0623   -3.3409   22.3567 N.ar    1  UNL1       -0.2280
     29 C           7.1850   -4.2728   23.1388 C.ar    1  UNL1        0.0786
     30 C           7.6534   -5.3805   24.0352 C.3     1  UNL1        0.0538
     31 C           5.7570   -3.9025   22.8672 C.ar    1  UNL1        0.0963
     32 C           4.6530   -4.5934   18.9671 C.3     1  UNL1        0.2543
     33 O           4.9550   -3.1266   19.0506 O.3     1  UNL1       -0.4551
@<TRIPOS>BOND
     1    32    33    1
     2    33    20    1
     3    20    21   ar
     4    21    22   ar
     5    22    18    1
     6    18     1    1
     7     1     2   ar
     8     2     3   ar
     9     3     4   ar
    10     4     5   ar
    11     5     6   ar
    12     6     7   ar
    13     7     8   ar
    14     8    11    1
    15    11    12   ar
    16    12    13   ar
    17    13    14   ar
    18    14    15    1
    19    14    16   ar
    20    16    17   ar
    21     8     9   ar
    22     9    10    1
    23    22    23   ar
    24    23    24   ar
    25    24    25   ar
    26    25    26    1
    27    26    27   ar
    28    27    28   ar
    29    28    29   ar
    30    29    30    1
    31    29    31   ar
    32    25    20   ar
    33    31    26   ar
    34     6     1   ar
    35    17    11   ar
    36     9     5   ar
    37    18    19    1
@<TRIPOS>MOLECULE
*****
 33 37 0 0 0
SMALL
GASTEIGER

@<TRIPOS>ATOM
      1 C          -5.9442  -19.1528   20.3857 C.ar    1  UNL1        0.0687
      2 C          -4.7916  -19.8576   19.7340 C.ar    1  UNL1        0.0163
      3 C          -3.4449  -19.8620   20.3945 C.ar    1  UNL1        0.0029
      4 C          -3.2507  -19.1615   21.7066 C.ar    1  UNL1        0.0188
      5 C          -4.4033  -18.4566   22.3582 C.ar    1  UNL1        0.0801
      6 C          -5.7500  -18.4522   21.6977 C.ar    1  UNL1        0.1120
      7 N          -6.6926  -17.6791   22.5719 N.ar    1  UNL1       -0.2256
      8 C          -5.9283  -17.2057   23.7726 C.ar    1  UNL1        0.1439
      9 N          -4.5134  -17.6862   23.6405 N.ar    1  UNL1       -0.3094
     10 C          -3.4036  -17.4396   24.6190 C.3     1  UNL1        0.1319
     11 C          -6.4816  -16.3943   24.9064 C.ar    1  UNL1        0.0343
     12 C          -5.5525  -15.6554   25.8233 C.ar    1  UNL1        0.0053
     13 C          -6.1058  -14.8440   26.9570 C.ar    1  UNL1        0.0297
     14 C          -7.5883  -14.7715   27.1739 C.ar    1  UNL1        0.1401
     15 F          -8.1417  -13.9600   28.3077 F       1  UNL1       -0.2042
     16 C          -8.5174  -15.5104   26.2570 C.ar    1  UNL1        0.0297
     17 C          -7.9641  -16.3218   25.1233 C.ar    1  UNL1        0.0053
     18 N          -7.2910  -19.1484   19.7252 N.pl3   1  UNL1       -0.2966
     19 H          -7.3609  -19.2538   18.7489 H       1  UNL1        0.1537
     20 C         -10.6396  -17.6087   21.1971 C.ar    1  UNL1        0.2428
     21 N          -9.3992  -17.7736   20.3699 N.ar    1  UNL1       -0.1954
     22 C          -8.5314  -18.9834   20.5524 C.ar    1  UNL1        0.1354
     23 C          -8.9040  -20.0283   21.5621 C.ar    1  UNL1        0.0361
     24 C         -10.1444  -19.8634   22.3893 C.ar    1  UNL1        0.0252
     25 C         -11.0122  -18.6535   22.2068 C.ar    1  UNL1        0.1190
     26 N         -12.2526  -18.4886   23.0340 N.ar    1  UNL1       -0.2826
     27 C         -13.6036  -18.0807   22.5256 C.ar    1  UNL1        0.1826
     28 N         -14.5457  -18.0426   23.6922 N.ar    1  UNL1       -0.2280
     29 C         -13.7770  -18.4268   24.9216 C.ar    1  UNL1        0.0786
     30 C         -14.3286  -18.5193   26.3134 C.3     1  UNL1        0.0538
     31 C         -12.3598  -18.7025   24.5147 C.ar    1  UNL1        0.0963
     32 C         -11.7268  -15.8333   19.6428 C.3     1  UNL1        0.2543
     33 O         -11.5074  -16.3988   21.0146 O.3     1  UNL1       -0.4551
@<TRIPOS>BOND
     1    32    33    1
     2    33    20    1
     3    20    21   ar
     4    21    22   ar
     5    22    18    1
     6    18     1    1
     7     1     2   ar
     8     2     3   ar
     9     3     4   ar
    10     4     5   ar
    11     5     6   ar
    12     6     7   ar
    13     7     8   ar
    14     8    11    1
    15    11    12   ar
    16    12    13   ar
    17    13    14   ar
    18    14    15    1
    19    14    16   ar
    20    16    17   ar
    21     8     9   ar
    22     9    10    1
    23    22    23   ar
    24    23    24   ar
    25    24    25   ar
    26    25    26    1
    27    26    27   ar
    28    27    28   ar
    29    28    29   ar
    30    29    30    1
    31    29    31   ar
    32    25    20   ar
    33    31    26   ar
    34     6     1   ar
    35    17    11   ar
    36     9     5   ar
    37    18    19    1
@<TRIPOS>MOLECULE
*****
 33 37 0 0 0
SMALL
GASTEIGER

@<TRIPOS>ATOM
      1 C           8.5072   -5.2515   23.6036 C.ar    1  UNL1        0.0687
      2 C           8.7847   -6.7195   23.4695 C.ar    1  UNL1        0.0163
      3 C           8.3672   -7.6640   24.5574 C.ar    1  UNL1        0.0029
      4 C           7.6721   -7.1406   25.7792 C.ar    1  UNL1        0.0188
      5 C           7.3946   -5.6727   25.9133 C.ar    1  UNL1        0.0801
      6 C           7.8122   -4.7281   24.8254 C.ar    1  UNL1        0.1120
      7 N           7.4072   -3.3426   25.2338 N.ar    1  UNL1       -0.2256
      8 C           6.7393   -3.4310   26.5740 C.ar    1  UNL1        0.1439
      9 N           6.7316   -4.8711   26.9939 N.ar    1  UNL1       -0.3094
     10 C           6.1610   -5.4141   28.2704 C.3     1  UNL1        0.1319
     11 C           6.1778   -2.2813   27.3568 C.ar    1  UNL1        0.0343
     12 C           6.9802   -1.6649   28.4641 C.ar    1  UNL1        0.0053
     13 C           6.4187   -0.5152   29.2469 C.ar    1  UNL1        0.0297
     14 C           5.0547    0.0181   28.9224 C.ar    1  UNL1        0.1401
     15 F           4.4932    1.1679   29.7053 F       1  UNL1       -0.2042
     16 C           4.2523   -0.5983   27.8151 C.ar    1  UNL1        0.0297
     17 C           4.8139   -1.7480   27.0323 C.ar    1  UNL1        0.0053
     18 N           8.9248   -4.3068   22.5157 N.pl3   1  UNL1       -0.2966
     19 H           9.8807   -4.1512   22.3390 H       1  UNL1        0.1537
     20 C           5.5476   -3.5727   20.5648 C.ar    1  UNL1        0.2428
     21 N           6.5866   -4.2802   21.3834 N.ar    1  UNL1       -0.1954
     22 C           7.8858   -3.5994   21.6971 C.ar    1  UNL1        0.1354
     23 C           8.1462   -2.2110   21.1923 C.ar    1  UNL1        0.0361
     24 C           7.1072   -1.5036   20.3737 C.ar    1  UNL1        0.0252
     25 C           5.8079   -2.1844   20.0600 C.ar    1  UNL1        0.1190
     26 N           4.7690   -1.4770   19.2414 N.ar    1  UNL1       -0.2826
     27 C           4.7491   -1.3675   17.7455 C.ar    1  UNL1        0.1826
     28 N           3.5353   -0.5777   17.3546 N.ar    1  UNL1       -0.2280
     29 C           2.8050   -0.1989   18.6088 C.ar    1  UNL1        0.0786
     30 C           1.5352    0.5961   18.6839 C.3     1  UNL1        0.0538
     31 C           3.5674   -0.7547   19.7749 C.ar    1  UNL1        0.0963
     32 C           4.1006   -5.0392   18.9819 C.3     1  UNL1        0.2543
     33 O           4.2483   -4.2536   20.2511 O.3     1  UNL1       -0.4551
@<TRIPOS>BOND
     1    32    33    1
     2    33    20    1
     3    20    21   ar
     4    21    22   ar
     5    22    18    1
     6    18     1    1
     7     1     2   ar
     8     2     3   ar
     9     3     4   ar
    10     4     5   ar
    11     5     6   ar
    12     6     7   ar
    13     7     8   ar
    14     8    11    1
    15    11    12   ar
    16    12    13   ar
    17    13    14   ar
    18    14    15    1
    19    14    16   ar
    20    16    17   ar
    21     8     9   ar
    22     9    10    1
    23    22    23   ar
    24    23    24   ar
    25    24    25   ar
    26    25    26    1
    27    26    27   ar
    28    27    28   ar
    29    28    29   ar
    30    29    30    1
    31    29    31   ar
    32    25    20   ar
    33    31    26   ar
    34     6     1   ar
    35    17    11   ar
    36     9     5   ar
    37    18    19    1
@<TRIPOS>MOLECULE
*****
 33 37 0 0 0
SMALL
GASTEIGER

@<TRIPOS>ATOM
      1 C          -8.9354  -19.6182   20.4176 C.ar    1  UNL1        0.0687
      2 C         -10.0443  -19.7847   19.4213 C.ar    1  UNL1        0.0163
      3 C         -11.2852  -18.9497   19.5338 C.ar    1  UNL1        0.0029
      4 C         -11.4173  -17.9481   20.6426 C.ar    1  UNL1        0.0188
      5 C         -10.3084  -17.7816   21.6389 C.ar    1  UNL1        0.0801
      6 C          -9.0675  -18.6167   21.5264 C.ar    1  UNL1        0.1120
      7 N          -8.1475  -18.2334   22.6475 N.ar    1  UNL1       -0.2256
      8 C          -8.8200  -17.1614   23.4529 C.ar    1  UNL1        0.1439
      9 N         -10.1555  -16.8822   22.8295 N.ar    1  UNL1       -0.3094
     10 C         -11.1614  -15.8796   23.3121 C.3     1  UNL1        0.1319
     11 C          -8.2560  -16.4870   24.6683 C.ar    1  UNL1        0.0343
     12 C          -7.0640  -15.5855   24.5406 C.ar    1  UNL1        0.0053
     13 C          -6.5000  -14.9112   25.7560 C.ar    1  UNL1        0.0297
     14 C          -7.1282  -15.1382   27.0991 C.ar    1  UNL1        0.1401
     15 F          -6.5642  -14.4638   28.3145 F       1  UNL1       -0.2042
     16 C          -8.3202  -16.0397   27.2268 C.ar    1  UNL1        0.0297
     17 C          -8.8841  -16.7141   26.0114 C.ar    1  UNL1        0.0053
     18 N          -7.6944  -20.4533   20.3051 N.pl3   1  UNL1       -0.2966
     19 H          -7.7661  -21.4269   20.1780 H       1  UNL1        0.1537
     20 C          -4.2960  -19.0404   21.7899 C.ar    1  UNL1        0.2428
     21 N          -5.6462  -19.6889   21.7088 N.ar    1  UNL1       -0.1954
     22 C          -6.3442  -19.8049   20.3862 C.ar    1  UNL1        0.1354
     23 C          -5.6920  -19.2725   19.1447 C.ar    1  UNL1        0.0361
     24 C          -4.3419  -18.6241   19.2258 C.ar    1  UNL1        0.0252
     25 C          -3.6439  -18.5081   20.5485 C.ar    1  UNL1        0.1190
     26 N          -2.2937  -17.8597   20.6296 N.ar    1  UNL1       -0.2826
     27 C          -2.0109  -16.4701   21.1185 C.ar    1  UNL1        0.1826
     28 N          -0.5316  -16.2386   21.0272 N.ar    1  UNL1       -0.2280
     29 C           0.0998  -17.4851   20.4818 C.ar    1  UNL1        0.0786
     30 C           1.5632  -17.6933   20.2269 C.3     1  UNL1        0.0538
     31 C          -0.9892  -18.4870   20.2361 C.ar    1  UNL1        0.0963
     32 C          -3.8233  -17.7189   23.9763 C.3     1  UNL1        0.2543
     33 O          -3.5980  -18.9244   23.1126 O.3     1  UNL1       -0.4551
@<TRIPOS>BOND
     1    32    33    1
     2    33    20    1
     3    20    21   ar
     4    21    22   ar
     5    22    18    1
     6    18     1    1
     7     1     2   ar
     8     2     3   ar
     9     3     4   ar
    10     4     5   ar
    11     5     6   ar
    12     6     7   ar
    13     7     8   ar
    14     8    11    1
    15    11    12   ar
    16    12    13   ar
    17    13    14   ar
    18    14    15    1
    19    14    16   ar
    20    16    17   ar
    21     8     9   ar
    22     9    10    1
    23    22    23   ar
    24    23    24   ar
    25    24    25   ar
    26    25    26    1
    27    26    27   ar
    28    27    28   ar
    29    28    29   ar
    30    29    30    1
    31    29    31   ar
    32    25    20   ar
    33    31    26   ar
    34     6     1   ar
    35    17    11   ar
    36     9     5   ar
    37    18    19    1
@<TRIPOS>MOLECULE
*****
 33 37 0 0 0
SMALL
GASTEIGER

@<TRIPOS>ATOM
      1 C          -1.1829    3.4836   20.1329 C.ar    1  UNL1        0.0687
      2 C          -2.3287    3.5882   19.1705 C.ar    1  UNL1        0.0163
      3 C          -3.7338    3.6899   19.6855 C.ar    1  UNL1        0.0029
      4 C          -3.9931    3.6870   21.1630 C.ar    1  UNL1        0.0188
      5 C          -2.8474    3.5825   22.1253 C.ar    1  UNL1        0.0801
      6 C          -1.4422    3.4808   21.6103 C.ar    1  UNL1        0.1120
      7 N          -0.5212    3.3904   22.7909 N.ar    1  UNL1       -0.2256
      8 C          -1.3572    3.4362   24.0355 C.ar    1  UNL1        0.1439
      9 N          -2.7948    3.5549   23.6242 N.ar    1  UNL1       -0.3094
     10 C          -3.9730    3.6324   24.5492 C.3     1  UNL1        0.1319
     11 C          -0.8454    3.3742   25.4442 C.ar    1  UNL1        0.0343
     12 C          -0.2111    4.5831   26.0656 C.ar    1  UNL1        0.0053
     13 C           0.3007    4.5210   27.4742 C.ar    1  UNL1        0.0297
     14 C           0.1781    3.2501   28.2614 C.ar    1  UNL1        0.1401
     15 F           0.6899    3.1880   29.6701 F       1  UNL1       -0.2042
     16 C          -0.4562    2.0412   27.6400 C.ar    1  UNL1        0.0297
     17 C          -0.9679    2.1032   26.2314 C.ar    1  UNL1        0.0053
     18 N           0.2223    3.3820   19.6179 N.pl3   1  UNL1       -0.2966
     19 H           0.6519    4.1640   19.2019 H       1  UNL1        0.1537
     20 C           3.2000    0.7585   19.5943 C.ar    1  UNL1        0.2428
     21 N           2.4494    2.0517   19.4754 N.ar    1  UNL1       -0.1954
     22 C           0.9729    2.0887   19.7368 C.ar    1  UNL1        0.1354
     23 C           0.2468    0.8323   20.1170 C.ar    1  UNL1        0.0361
     24 C           0.9973   -0.4609   20.2358 C.ar    1  UNL1        0.0252
     25 C           2.4740   -0.4978   19.9745 C.ar    1  UNL1        0.1190
     26 N           3.2246   -1.7911   20.0933 N.ar    1  UNL1       -0.2826
     27 C           3.9110   -2.3021   21.3252 C.ar    1  UNL1        0.1826
     28 N           4.5312   -3.6273   20.9944 N.ar    1  UNL1       -0.2280
     29 C           4.2280   -3.9352   19.5580 C.ar    1  UNL1        0.0786
     30 C           4.6570   -5.1625   18.8098 C.3     1  UNL1        0.0538
     31 C           3.4205   -2.8004   19.0011 C.ar    1  UNL1        0.0963
     32 C           5.1874    0.4002   17.9596 C.3     1  UNL1        0.2543
     33 O           4.6766    0.7215   19.3329 O.3     1  UNL1       -0.4551
@<TRIPOS>BOND
     1    32    33    1
     2    33    20    1
     3    20    21   ar
     4    21    22   ar
     5    22    18    1
     6    18     1    1
     7     1     2   ar
     8     2     3   ar
     9     3     4   ar
    10     4     5   ar
    11     5     6   ar
    12     6     7   ar
    13     7     8   ar
    14     8    11    1
    15    11    12   ar
    16    12    13   ar
    17    13    14   ar
    18    14    15    1
    19    14    16   ar
    20    16    17   ar
    21     8     9   ar
    22     9    10    1
    23    22    23   ar
    24    23    24   ar
    25    24    25   ar
    26    25    26    1
    27    26    27   ar
    28    27    28   ar
    29    28    29   ar
    30    29    30    1
    31    29    31   ar
    32    25    20   ar
    33    31    26   ar
    34     6     1   ar
    35    17    11   ar
    36     9     5   ar
    37    18    19    1
