@<TRIPOS>MOLECULE
*****
 33 36 0 0 0
SMALL
GASTEIGER

@<TRIPOS>ATOM
      1 C           8.1948   -7.2718   25.8417 C.ar    1  UNL1       -0.0025
      2 C           7.3990   -6.0007   25.8715 C.ar    1  UNL1       -0.0013
      3 C           7.3282   -5.1315   24.6511 C.ar    1  UNL1        0.0185
      4 C           8.0531   -5.5334   23.4009 C.ar    1  UNL1        0.1103
      5 C           8.8489   -6.8045   23.3712 C.ar    1  UNL1        0.0185
      6 C           8.9198   -7.6738   24.5916 C.ar    1  UNL1       -0.0013
      7 S           7.9822   -4.6641   22.1806 S.O2    1  UNL1        0.0274
      8 O           6.4842   -4.6835   22.2537 O.2     1  UNL1       -0.1642
      9 O           9.4804   -4.6447   22.1074 O.2     1  UNL1       -0.1642
     10 C           7.9115   -3.7949   20.9602 C.ar    1  UNL1        0.1102
     11 C           9.1707   -3.2522   20.3518 C.ar    1  UNL1        0.0187
     12 C           9.1000   -2.3829   19.1315 C.ar    1  UNL1        0.0013
     13 C           7.7701   -2.0563   18.5194 C.ar    1  UNL1        0.0039
     14 C           6.5109   -2.5989   19.1276 C.ar    1  UNL1        0.0727
     15 C           6.5816   -3.4682   20.3481 C.ar    1  UNL1        0.0226
     16 C           5.1810   -2.2722   18.5155 C.3     1  UNL1        0.4186
     17 F           3.8512   -1.9456   17.9034 F       1  UNL1       -0.1659
     18 F           5.3629   -0.8310   18.8894 F       1  UNL1       -0.1659
     19 F           4.9991   -3.7135   18.1417 F       1  UNL1       -0.1659
     20 C           8.2656   -8.1411   27.0622 C.3     1  UNL1        0.1166
     21 O           9.0877  -10.8290   28.1106 O.2     1  UNL1       -0.2703
     22 C           7.6450  -10.5508   27.8090 C.2     1  UNL1        0.2461
     23 N           7.2339   -9.2069   27.2848 N.am    1  UNL1       -0.2970
     24 H           6.2869   -9.0243   27.0868 H       1  UNL1        0.1500
     25 C           6.6131  -11.6166   28.0316 C.2     1  UNL1        0.0824
     26 C           6.9072  -12.7650   28.9506 C.2     1  UNL1        0.2365
     27 N           5.8753  -13.8308   29.1732 N.2     1  UNL1       -0.0290
     28 C           4.5494  -13.7481   28.4767 C.2     1  UNL1        0.3995
     29 N           3.3457  -14.6428   28.5004 N.2     1  UNL1        0.0864
     30 N           2.3077  -14.0473   27.5961 N.2     1  UNL1       -0.0324
     31 C           2.8699  -12.7846   27.0134 C.2     1  UNL1        0.1528
     32 C           4.2554  -12.5997   27.5576 C.2     1  UNL1        0.0960
     33 C           5.2872  -11.5339   27.3351 C.3     1  UNL1        0.0708
@<TRIPOS>BOND
     1    21    22    2
     2    22    23   am
     3    23    20    1
     4    20     1    1
     5     1     2   ar
     6     2     3   ar
     7     3     4   ar
     8     4     7    1
     9     7     8    2
    10     7     9    2
    11     7    10    1
    12    10    11   ar
    13    11    12   ar
    14    12    13   ar
    15    13    14   ar
    16    14    16    1
    17    16    17    1
    18    16    18    1
    19    16    19    1
    20    14    15   ar
    21     4     5   ar
    22     5     6   ar
    23    22    25    1
    24    25    26    2
    25    26    27    1
    26    27    28    2
    27    28    29    1
    28    29    30    2
    29    30    31    1
    30    31    32    2
    31    32    33    1
    32     6     1   ar
    33    33    25    1
    34    15    10   ar
    35    32    28    1
    36    23    24    1
@<TRIPOS>MOLECULE
*****
 33 36 0 0 0
SMALL
GASTEIGER

@<TRIPOS>ATOM
      1 C          -1.0798    3.2042   19.8623 C.ar    1  UNL1       -0.0025
      2 C          -0.3733    3.2127   18.5393 C.ar    1  UNL1       -0.0013
      3 C           0.7246    2.2270   18.2689 C.ar    1  UNL1        0.0185
      4 C           1.1158    1.2327   19.3217 C.ar    1  UNL1        0.1103
      5 C           0.4092    1.2242   20.6448 C.ar    1  UNL1        0.0185
      6 C          -0.6887    2.2100   20.9152 C.ar    1  UNL1       -0.0013
      7 S           2.2136    0.2470   19.0513 S.O2    1  UNL1        0.0274
      8 O           2.9284    1.2710   18.2204 O.2     1  UNL1       -0.1642
      9 O           1.4987   -0.7771   19.8823 O.2     1  UNL1       -0.1642
     10 C           3.3114   -0.7388   18.7810 C.ar    1  UNL1        0.1102
     11 C           4.5930   -0.2800   18.1509 C.ar    1  UNL1        0.0187
     12 C           5.6908   -1.2658   17.8805 C.ar    1  UNL1        0.0013
     13 C           5.5070   -2.7103   18.2404 C.ar    1  UNL1        0.0039
     14 C           4.2255   -3.1692   18.8705 C.ar    1  UNL1        0.0727
     15 C           3.1276   -2.1833   19.1409 C.ar    1  UNL1        0.0226
     16 C           4.0417   -4.6137   19.2303 C.3     1  UNL1        0.4186
     17 F           3.8579   -6.0582   19.5901 F       1  UNL1       -0.1659
     18 F           5.4933   -4.7071   19.5966 F       1  UNL1       -0.1659
     19 F           2.5901   -4.5202   18.8640 F       1  UNL1       -0.1659
     20 C          -2.1777    4.1900   20.1327 C.3     1  UNL1        0.1166
     21 O          -4.3745    2.6556   21.4815 O.2     1  UNL1       -0.2703
     22 C          -3.6604    3.7486   22.2199 C.2     1  UNL1        0.2461
     23 N          -2.5620    4.5159   21.5455 N.am    1  UNL1       -0.2970
     24 H          -2.0933    5.2332   22.0302 H       1  UNL1        0.1500
     25 C          -4.0446    4.0745   23.6328 C.2     1  UNL1        0.0824
     26 C          -3.2239    3.5497   24.7733 C.2     1  UNL1        0.2365
     27 N          -3.6082    3.8755   26.1863 N.2     1  UNL1       -0.0290
     28 C          -4.8132    4.7262   26.4585 C.2     1  UNL1        0.3995
     29 N          -5.4323    5.2101   27.7362 N.2     1  UNL1        0.0864
     30 N          -6.6356    6.0340   27.3853 N.2     1  UNL1       -0.0324
     31 C          -6.7603    6.0593   25.8907 C.2     1  UNL1        0.1528
     32 C          -5.6340    5.2511   25.3179 C.2     1  UNL1        0.0960
     33 C          -5.2497    4.9252   23.9051 C.3     1  UNL1        0.0708
@<TRIPOS>BOND
     1    21    22    2
     2    22    23   am
     3    23    20    1
     4    20     1    1
     5     1     2   ar
     6     2     3   ar
     7     3     4   ar
     8     4     7    1
     9     7     8    2
    10     7     9    2
    11     7    10    1
    12    10    11   ar
    13    11    12   ar
    14    12    13   ar
    15    13    14   ar
    16    14    16    1
    17    16    17    1
    18    16    18    1
    19    16    19    1
    20    14    15   ar
    21     4     5   ar
    22     5     6   ar
    23    22    25    1
    24    25    26    2
    25    26    27    1
    26    27    28    2
    27    28    29    1
    28    29    30    2
    29    30    31    1
    30    31    32    2
    31    32    33    1
    32     6     1   ar
    33    33    25    1
    34    15    10   ar
    35    32    28    1
    36    23    24    1
@<TRIPOS>MOLECULE
*****
 33 36 0 0 0
SMALL
GASTEIGER

@<TRIPOS>ATOM
      1 C           1.1284    1.3390   25.8567 C.ar    1  UNL1       -0.0025
      2 C           0.3248    1.6311   24.6244 C.ar    1  UNL1       -0.0013
      3 C           0.8041    1.1532   23.2857 C.ar    1  UNL1        0.0185
      4 C           2.0869    0.3832   23.1795 C.ar    1  UNL1        0.1103
      5 C           2.8906    0.0911   24.4119 C.ar    1  UNL1        0.0185
      6 C           2.4113    0.5690   25.7506 C.ar    1  UNL1       -0.0013
      7 S           2.5662   -0.0947   21.8409 S.O2    1  UNL1        0.0274
      8 O           1.8201    1.0231   21.1747 O.2     1  UNL1       -0.1642
      9 O           3.3123   -1.2126   22.5071 O.2     1  UNL1       -0.1642
     10 C           3.0454   -0.5727   20.5023 C.ar    1  UNL1        0.1102
     11 C           3.1432    0.3875   19.3540 C.ar    1  UNL1        0.0187
     12 C           3.6225   -0.0904   18.0154 C.ar    1  UNL1        0.0013
     13 C           4.0040   -1.5285   17.8250 C.ar    1  UNL1        0.0039
     14 C           3.9062   -2.4887   18.9732 C.ar    1  UNL1        0.0727
     15 C           3.4269   -2.0108   20.3119 C.ar    1  UNL1        0.0226
     16 C           4.2877   -3.9268   18.7828 C.3     1  UNL1        0.4186
     17 F           4.6691   -5.3649   18.5925 F       1  UNL1       -0.1659
     18 F           5.7239   -3.5247   18.6233 F       1  UNL1       -0.1659
     19 F           2.8514   -4.3289   18.9424 F       1  UNL1       -0.1659
     20 C           0.6492    1.8170   27.1954 C.3     1  UNL1        0.1166
     21 O          -0.1434   -0.1577   29.3102 O.2     1  UNL1       -0.2703
     22 C           1.1137    0.6453   29.4672 C.2     1  UNL1        0.2461
     23 N           1.5100    1.6326   28.4098 N.am    1  UNL1       -0.2970
     24 H           2.3352    2.1596   28.5129 H       1  UNL1        0.1500
     25 C           1.9747    0.4609   30.6817 C.2     1  UNL1        0.0824
     26 C           1.9556    1.4854   31.7771 C.2     1  UNL1        0.2365
     27 N           2.8166    1.3010   32.9916 N.2     1  UNL1       -0.0290
     28 C           3.6966    0.0922   33.1105 C.2     1  UNL1        0.3995
     29 N           4.6467   -0.3562   34.1811 N.2     1  UNL1        0.0864
     30 N           5.2530   -1.6578   33.7473 N.2     1  UNL1       -0.0324
     31 C           4.6776   -2.0139   32.4086 C.2     1  UNL1        0.1528
     32 C           3.7157   -0.9323   32.0150 C.2     1  UNL1        0.0960
     33 C           2.8548   -0.7479   30.8006 C.3     1  UNL1        0.0708
@<TRIPOS>BOND
     1    21    22    2
     2    22    23   am
     3    23    20    1
     4    20     1    1
     5     1     2   ar
     6     2     3   ar
     7     3     4   ar
     8     4     7    1
     9     7     8    2
    10     7     9    2
    11     7    10    1
    12    10    11   ar
    13    11    12   ar
    14    12    13   ar
    15    13    14   ar
    16    14    16    1
    17    16    17    1
    18    16    18    1
    19    16    19    1
    20    14    15   ar
    21     4     5   ar
    22     5     6   ar
    23    22    25    1
    24    25    26    2
    25    26    27    1
    26    27    28    2
    27    28    29    1
    28    29    30    2
    29    30    31    1
    30    31    32    2
    31    32    33    1
    32     6     1   ar
    33    33    25    1
    34    15    10   ar
    35    32    28    1
    36    23    24    1
@<TRIPOS>MOLECULE
*****
 33 36 0 0 0
SMALL
GASTEIGER

@<TRIPOS>ATOM
      1 C          -0.3991    2.4233   24.0150 C.ar    1  UNL1       -0.0025
      2 C          -0.5823    2.8112   22.5777 C.ar    1  UNL1       -0.0013
      3 C           0.2006    2.1116   21.5064 C.ar    1  UNL1        0.0185
      4 C           1.1668    1.0243   21.8725 C.ar    1  UNL1        0.1103
      5 C           1.3501    0.6364   23.3098 C.ar    1  UNL1        0.0185
      6 C           0.5671    1.3360   24.3812 C.ar    1  UNL1       -0.0013
      7 S           1.9498    0.3248   20.8012 S.O2    1  UNL1        0.0274
      8 O           0.6703   -0.0989   20.1428 O.2     1  UNL1       -0.1642
      9 O           3.2293    0.7485   21.4597 O.2     1  UNL1       -0.1642
     10 C           2.7328   -0.3747   19.7300 C.ar    1  UNL1        0.1102
     11 C           3.1700    0.3776   18.5081 C.ar    1  UNL1        0.0187
     12 C           3.9530   -0.3218   17.4368 C.ar    1  UNL1        0.0013
     13 C           4.2988   -1.7736   17.5873 C.ar    1  UNL1        0.0039
     14 C           3.8617   -2.5260   18.8091 C.ar    1  UNL1        0.0727
     15 C           3.0786   -1.8265   19.8805 C.ar    1  UNL1        0.0226
     16 C           4.2076   -3.9777   18.9596 C.3     1  UNL1        0.4186
     17 F           4.5535   -5.4295   19.1101 F       1  UNL1       -0.1659
     18 F           2.7480   -4.3210   19.0026 F       1  UNL1       -0.1659
     19 F           5.6672   -3.6344   18.9167 F       1  UNL1       -0.1659
     20 C          -1.1821    3.1229   25.0863 C.3     1  UNL1        0.1166
     21 O          -2.3768    5.6158   23.9211 O.2     1  UNL1       -0.2703
     22 C          -3.2685    4.5005   24.3800 C.2     1  UNL1        0.2461
     23 N          -2.6712    3.2540   24.9626 N.am    1  UNL1       -0.2970
     24 H          -3.2565    2.5219   25.2637 H       1  UNL1        0.1500
     25 C          -4.7577    4.6315   24.2562 C.2     1  UNL1        0.0824
     26 C          -5.4849    3.9148   23.1574 C.2     1  UNL1        0.2365
     27 N          -6.9741    4.0459   23.0337 N.2     1  UNL1       -0.0290
     28 C          -7.7359    4.8935   24.0088 C.2     1  UNL1        0.3995
     29 N          -9.1967    5.2095   24.1368 N.2     1  UNL1        0.0864
     30 N          -9.3722    6.1214   25.3147 N.2     1  UNL1       -0.0324
     31 C          -8.0199    6.3691   25.9148 C.2     1  UNL1        0.1528
     32 C          -7.0087    5.6102   25.1077 C.2     1  UNL1        0.0960
     33 C          -5.5195    5.4792   25.2314 C.3     1  UNL1        0.0708
@<TRIPOS>BOND
     1    21    22    2
     2    22    23   am
     3    23    20    1
     4    20     1    1
     5     1     2   ar
     6     2     3   ar
     7     3     4   ar
     8     4     7    1
     9     7     8    2
    10     7     9    2
    11     7    10    1
    12    10    11   ar
    13    11    12   ar
    14    12    13   ar
    15    13    14   ar
    16    14    16    1
    17    16    17    1
    18    16    18    1
    19    16    19    1
    20    14    15   ar
    21     4     5   ar
    22     5     6   ar
    23    22    25    1
    24    25    26    2
    25    26    27    1
    26    27    28    2
    27    28    29    1
    28    29    30    2
    29    30    31    1
    30    31    32    2
    31    32    33    1
    32     6     1   ar
    33    33    25    1
    34    15    10   ar
    35    32    28    1
    36    23    24    1
@<TRIPOS>MOLECULE
*****
 33 36 0 0 0
SMALL
GASTEIGER

@<TRIPOS>ATOM
      1 C           6.9292   -2.8569   27.8734 C.ar    1  UNL1       -0.0025
      2 C           5.8661   -1.8387   27.5852 C.ar    1  UNL1       -0.0013
      3 C           5.2465   -1.7668   26.2211 C.ar    1  UNL1        0.0185
      4 C           5.6900   -2.7131   25.1451 C.ar    1  UNL1        0.1103
      5 C           6.7531   -3.7313   25.4332 C.ar    1  UNL1        0.0185
      6 C           7.3728   -3.8032   26.7974 C.ar    1  UNL1       -0.0013
      7 S           5.0704   -2.6412   23.7810 S.O2    1  UNL1        0.0274
      8 O           4.2884   -1.4317   24.1999 O.2     1  UNL1       -0.1642
      9 O           5.8524   -3.8508   23.3620 O.2     1  UNL1       -0.1642
     10 C           4.4508   -2.5693   22.4168 C.ar    1  UNL1        0.1102
     11 C           3.5465   -1.4260   22.0631 C.ar    1  UNL1        0.0187
     12 C           2.9269   -1.3541   20.6989 C.ar    1  UNL1        0.0013
     13 C           3.2115   -2.4255   19.6885 C.ar    1  UNL1        0.0039
     14 C           4.1157   -3.5688   20.0422 C.ar    1  UNL1        0.0727
     15 C           4.7354   -3.6408   21.4064 C.ar    1  UNL1        0.0226
     16 C           4.4004   -4.6403   19.0317 C.3     1  UNL1        0.4186
     17 F           4.6850   -5.7116   18.0213 F       1  UNL1       -0.1659
     18 F           3.4805   -5.5733   19.7619 F       1  UNL1       -0.1659
     19 F           5.3203   -3.7072   18.3015 F       1  UNL1       -0.1659
     20 C           7.5489   -2.9288   29.2376 C.3     1  UNL1        0.1166
     21 O           6.9091   -4.3729   31.7880 O.2     1  UNL1       -0.2703
     22 C           6.6073   -2.9094   31.6589 C.2     1  UNL1        0.2461
     23 N           6.9272   -2.1872   30.3837 N.am    1  UNL1       -0.2970
     24 H           6.7291   -1.2266   30.2990 H       1  UNL1        0.1500
     25 C           5.9856   -2.1678   32.8051 C.2     1  UNL1        0.0824
     26 C           4.5842   -2.4875   33.2334 C.2     1  UNL1        0.2365
     27 N           3.9625   -1.7459   34.3796 N.2     1  UNL1       -0.0290
     28 C           4.7424   -0.6845   35.0973 C.2     1  UNL1        0.3995
     29 N           4.3962    0.2067   36.2531 N.2     1  UNL1        0.0864
     30 N           5.5838    1.0773   36.5391 N.2     1  UNL1       -0.0324
     31 C           6.6640    0.7241   35.5600 C.2     1  UNL1        0.1528
     32 C           6.1440   -0.3647   34.6689 C.2     1  UNL1        0.0960
     33 C           6.7656   -1.1064   33.5228 C.3     1  UNL1        0.0708
@<TRIPOS>BOND
     1    21    22    2
     2    22    23   am
     3    23    20    1
     4    20     1    1
     5     1     2   ar
     6     2     3   ar
     7     3     4   ar
     8     4     7    1
     9     7     8    2
    10     7     9    2
    11     7    10    1
    12    10    11   ar
    13    11    12   ar
    14    12    13   ar
    15    13    14   ar
    16    14    16    1
    17    16    17    1
    18    16    18    1
    19    16    19    1
    20    14    15   ar
    21     4     5   ar
    22     5     6   ar
    23    22    25    1
    24    25    26    2
    25    26    27    1
    26    27    28    2
    27    28    29    1
    28    29    30    2
    29    30    31    1
    30    31    32    2
    31    32    33    1
    32     6     1   ar
    33    33    25    1
    34    15    10   ar
    35    32    28    1
    36    23    24    1
@<TRIPOS>MOLECULE
*****
 33 36 0 0 0
SMALL
GASTEIGER

@<TRIPOS>ATOM
      1 C           0.7603    1.2599   24.8431 C.ar    1  UNL1       -0.0025
      2 C           2.1616    0.9752   25.2959 C.ar    1  UNL1       -0.0013
      3 C           2.4982    1.0046   26.7573 C.ar    1  UNL1        0.0185
      4 C           1.4334    1.3187   27.7660 C.ar    1  UNL1        0.1103
      5 C           0.0320    1.6034   27.3132 C.ar    1  UNL1        0.0185
      6 C          -0.3046    1.5740   25.8517 C.ar    1  UNL1       -0.0013
      7 S           1.7700    1.3480   29.2274 S.O2    1  UNL1        0.0274
      8 O           0.3472    1.6985   29.5481 O.2     1  UNL1       -0.1642
      9 O           3.1929    0.9976   28.9067 O.2     1  UNL1       -0.1642
     10 C           2.1067    1.3774   30.6888 C.ar    1  UNL1        0.1102
     11 C           1.6301    2.5127   31.5456 C.ar    1  UNL1        0.0187
     12 C           1.9668    2.5421   33.0070 C.ar    1  UNL1        0.0013
     13 C           2.7800    1.4362   33.6118 C.ar    1  UNL1        0.0039
     14 C           3.2565    0.3009   32.7551 C.ar    1  UNL1        0.0727
     15 C           2.9198    0.2715   31.2935 C.ar    1  UNL1        0.0226
     16 C           4.0697   -0.8050   33.3598 C.3     1  UNL1        0.4186
     17 F           4.8828   -1.9109   33.9644 F       1  UNL1       -0.1659
     18 F           4.1762   -0.0276   34.6382 F       1  UNL1       -0.1659
     19 F           3.9631   -1.5824   32.0813 F       1  UNL1       -0.1659
     20 C           0.4237    1.2305   23.3816 C.3     1  UNL1        0.1166
     21 O          -0.4260    0.4773   20.6048 O.2     1  UNL1       -0.2703
     22 C           1.0185    0.3851   20.9980 C.2     1  UNL1        0.2461
     23 N           1.4434    0.7617   22.3864 N.am    1  UNL1       -0.2970
     24 H           2.3916    0.7012   22.6444 H       1  UNL1        0.1500
     25 C           2.0383   -0.0837   20.0028 C.2     1  UNL1        0.0824
     26 C           2.3063    0.7230   18.7670 C.2     1  UNL1        0.2365
     27 N           3.3262    0.2542   17.7718 N.2     1  UNL1       -0.0290
     28 C           4.0779   -1.0213   18.0126 C.2     1  UNL1        0.3995
     29 N           5.1334   -1.7298   17.2165 N.2     1  UNL1        0.0864
     30 N           5.5178   -2.9744   17.9603 N.2     1  UNL1       -0.0324
     31 C           4.6998   -3.0351   19.2162 C.2     1  UNL1        0.1528
     32 C           3.8098   -1.8280   19.2485 C.2     1  UNL1        0.0960
     33 C           2.7901   -1.3592   20.2436 C.3     1  UNL1        0.0708
@<TRIPOS>BOND
     1    21    22    2
     2    22    23   am
     3    23    20    1
     4    20     1    1
     5     1     2   ar
     6     2     3   ar
     7     3     4   ar
     8     4     7    1
     9     7     8    2
    10     7     9    2
    11     7    10    1
    12    10    11   ar
    13    11    12   ar
    14    12    13   ar
    15    13    14   ar
    16    14    16    1
    17    16    17    1
    18    16    18    1
    19    16    19    1
    20    14    15   ar
    21     4     5   ar
    22     5     6   ar
    23    22    25    1
    24    25    26    2
    25    26    27    1
    26    27    28    2
    27    28    29    1
    28    29    30    2
    29    30    31    1
    30    31    32    2
    31    32    33    1
    32     6     1   ar
    33    33    25    1
    34    15    10   ar
    35    32    28    1
    36    23    24    1
@<TRIPOS>MOLECULE
*****
 33 36 0 0 0
SMALL
GASTEIGER

@<TRIPOS>ATOM
      1 C           6.8977   -3.3816   27.3819 C.ar    1  UNL1       -0.0025
      2 C           6.0364   -2.2213   26.9800 C.ar    1  UNL1       -0.0013
      3 C           5.4760   -2.1491   25.5905 C.ar    1  UNL1        0.0185
      4 C           5.7770   -3.2373   24.6029 C.ar    1  UNL1        0.1103
      5 C           6.6384   -4.3977   25.0049 C.ar    1  UNL1        0.0185
      6 C           7.1988   -4.4698   26.3945 C.ar    1  UNL1       -0.0013
      7 S           5.2167   -3.1651   23.2134 S.O2    1  UNL1        0.0274
      8 O           4.2912   -2.0659   23.6437 O.2     1  UNL1       -0.1642
      9 O           6.1422   -4.2645   22.7831 O.2     1  UNL1       -0.1642
     10 C           4.6564   -3.0930   21.8239 C.ar    1  UNL1        0.1102
     11 C           4.9729   -4.1716   20.8306 C.ar    1  UNL1        0.0187
     12 C           4.4126   -4.0996   19.4411 C.ar    1  UNL1        0.0013
     13 C           3.5358   -2.9490   19.0447 C.ar    1  UNL1        0.0039
     14 C           3.2192   -1.8704   20.0379 C.ar    1  UNL1        0.0727
     15 C           3.7795   -1.9424   21.4275 C.ar    1  UNL1        0.0226
     16 C           2.3423   -0.7197   19.6415 C.3     1  UNL1        0.4186
     17 F           1.4656    0.4309   19.2450 F       1  UNL1       -0.1659
     18 F           1.5249   -0.9146   20.8839 F       1  UNL1       -0.1659
     19 F           3.1599   -0.5248   18.3989 F       1  UNL1       -0.1659
     20 C           7.4581   -3.4537   28.7715 C.3     1  UNL1        0.1166
     21 O           6.9200   -4.6910   31.4509 O.2     1  UNL1       -0.2703
     22 C           6.5813   -3.2501   31.2087 C.2     1  UNL1        0.2461
     23 N           6.8504   -2.6314   29.8690 N.am    1  UNL1       -0.2970
     24 H           6.6281   -1.6856   29.7099 H       1  UNL1        0.1500
     25 C           5.9735   -2.4276   32.3061 C.2     1  UNL1        0.0824
     26 C           4.6258   -2.7895   32.8561 C.2     1  UNL1        0.2365
     27 N           4.0181   -1.9671   33.9535 N.2     1  UNL1       -0.0290
     28 C           4.7581   -0.7827   34.5009 C.2     1  UNL1        0.3995
     29 N           4.4143    0.2073   35.5739 N.2     1  UNL1        0.0864
     30 N           5.5495    1.1812   35.6871 N.2     1  UNL1       -0.0324
     31 C           6.5950    0.7930   34.6839 C.2     1  UNL1        0.1528
     32 C           6.1059   -0.4208   33.9508 C.2     1  UNL1        0.0960
     33 C           6.7136   -1.2433   32.8534 C.3     1  UNL1        0.0708
@<TRIPOS>BOND
     1    21    22    2
     2    22    23   am
     3    23    20    1
     4    20     1    1
     5     1     2   ar
     6     2     3   ar
     7     3     4   ar
     8     4     7    1
     9     7     8    2
    10     7     9    2
    11     7    10    1
    12    10    11   ar
    13    11    12   ar
    14    12    13   ar
    15    13    14   ar
    16    14    16    1
    17    16    17    1
    18    16    18    1
    19    16    19    1
    20    14    15   ar
    21     4     5   ar
    22     5     6   ar
    23    22    25    1
    24    25    26    2
    25    26    27    1
    26    27    28    2
    27    28    29    1
    28    29    30    2
    29    30    31    1
    30    31    32    2
    31    32    33    1
    32     6     1   ar
    33    33    25    1
    34    15    10   ar
    35    32    28    1
    36    23    24    1
@<TRIPOS>MOLECULE
*****
 33 36 0 0 0
SMALL
GASTEIGER

@<TRIPOS>ATOM
      1 C           1.2866    1.3111   25.6954 C.ar    1  UNL1       -0.0025
      2 C           0.3649    1.3684   26.8773 C.ar    1  UNL1       -0.0013
      3 C          -0.9593    2.0638   26.7627 C.ar    1  UNL1        0.0185
      4 C          -1.3616    2.7019   25.4662 C.ar    1  UNL1        0.1103
      5 C          -0.4398    2.6446   24.2843 C.ar    1  UNL1        0.0185
      6 C           0.8844    1.9491   24.3988 C.ar    1  UNL1       -0.0013
      7 S          -2.6857    3.3972   25.3517 S.O2    1  UNL1        0.0274
      8 O          -2.8538    3.3224   26.8404 O.2     1  UNL1       -0.1642
      9 O          -2.5176    3.4721   23.8629 O.2     1  UNL1       -0.1642
     10 C          -4.0098    4.0926   25.2371 C.ar    1  UNL1        0.1102
     11 C          -4.6150    4.7562   26.4386 C.ar    1  UNL1        0.0187
     12 C          -5.9391    5.4516   26.3240 C.ar    1  UNL1        0.0013
     13 C          -6.6581    5.4835   25.0080 C.ar    1  UNL1        0.0039
     14 C          -6.0530    4.8199   23.8065 C.ar    1  UNL1        0.0727
     15 C          -4.7288    4.1245   23.9210 C.ar    1  UNL1        0.0226
     16 C          -6.7720    4.8518   22.4904 C.3     1  UNL1        0.4186
     17 F          -7.4910    4.8836   21.1744 F       1  UNL1       -0.1659
     18 F          -7.7337    5.8631   23.0404 F       1  UNL1       -0.1659
     19 F          -5.8103    3.8405   21.9406 F       1  UNL1       -0.1659
     20 C           2.6108    0.6156   25.8099 C.3     1  UNL1        0.1166
     21 O           4.1364    0.9785   23.2525 O.2     1  UNL1       -0.2703
     22 C           3.6756   -0.3885   23.6634 C.2     1  UNL1        0.2461
     23 N           2.9128   -0.5700   24.9421 N.am    1  UNL1       -0.2970
     24 H           2.6104   -1.4672   25.2118 H       1  UNL1        0.1500
     25 C           3.9777   -1.5742   22.7956 C.2     1  UNL1        0.0824
     26 C           4.6401   -2.7846   23.3836 C.2     1  UNL1        0.2365
     27 N           4.9421   -3.9703   22.5158 N.2     1  UNL1       -0.0290
     28 C           4.5816   -3.9454   21.0600 C.2     1  UNL1        0.3995
     29 N           4.7542   -4.9569   19.9658 N.2     1  UNL1        0.0864
     30 N           4.1984   -4.3714   18.7016 N.2     1  UNL1       -0.0324
     31 C           3.6822   -2.9982   19.0144 C.2     1  UNL1        0.1528
     32 C           3.9191   -2.7349   20.4720 C.2     1  UNL1        0.0960
     33 C           3.6171   -1.5493   21.3398 C.3     1  UNL1        0.0708
@<TRIPOS>BOND
     1    21    22    2
     2    22    23   am
     3    23    20    1
     4    20     1    1
     5     1     2   ar
     6     2     3   ar
     7     3     4   ar
     8     4     7    1
     9     7     8    2
    10     7     9    2
    11     7    10    1
    12    10    11   ar
    13    11    12   ar
    14    12    13   ar
    15    13    14   ar
    16    14    16    1
    17    16    17    1
    18    16    18    1
    19    16    19    1
    20    14    15   ar
    21     4     5   ar
    22     5     6   ar
    23    22    25    1
    24    25    26    2
    25    26    27    1
    26    27    28    2
    27    28    29    1
    28    29    30    2
    29    30    31    1
    30    31    32    2
    31    32    33    1
    32     6     1   ar
    33    33    25    1
    34    15    10   ar
    35    32    28    1
    36    23    24    1
@<TRIPOS>MOLECULE
*****
 33 36 0 0 0
SMALL
GASTEIGER

@<TRIPOS>ATOM
      1 C           0.6804    3.9543   18.1774 C.ar    1  UNL1       -0.0025
      2 C           0.0522    2.5936   18.2351 C.ar    1  UNL1       -0.0013
      3 C           0.9086    1.3805   18.4472 C.ar    1  UNL1        0.0185
      4 C           2.3932    1.5282   18.6015 C.ar    1  UNL1        0.1103
      5 C           3.0215    2.8891   18.5438 C.ar    1  UNL1        0.0185
      6 C           2.1651    4.1023   18.3317 C.ar    1  UNL1       -0.0013
      7 S           3.2496    0.3152   18.8136 S.O2    1  UNL1        0.0274
      8 O           4.4585    1.0940   18.3870 O.2     1  UNL1       -0.1642
      9 O           2.0407   -0.4637   19.2401 O.2     1  UNL1       -0.1642
     10 C           4.1060   -0.8980   19.0257 C.ar    1  UNL1        0.1102
     11 C           5.5944   -0.8025   18.8663 C.ar    1  UNL1        0.0187
     12 C           6.4508   -2.0156   19.0784 C.ar    1  UNL1        0.0013
     13 C           5.8188   -3.3242   19.4498 C.ar    1  UNL1        0.0039
     14 C           4.3303   -3.4198   19.6092 C.ar    1  UNL1        0.0727
     15 C           3.4739   -2.2066   19.3971 C.ar    1  UNL1        0.0226
     16 C           3.6983   -4.7284   19.9806 C.3     1  UNL1        0.4186
     17 F           3.0663   -6.0370   20.3520 F       1  UNL1       -0.1659
     18 F           3.2060   -4.8902   18.5729 F       1  UNL1       -0.1659
     19 F           4.1906   -4.5666   21.3883 F       1  UNL1       -0.1659
     20 C          -0.1761    5.1675   17.9653 C.3     1  UNL1        0.1166
     21 O          -2.8168    4.1282   16.9925 O.2     1  UNL1       -0.2703
     22 C          -2.7318    4.8476   18.3058 C.2     1  UNL1        0.2461
     23 N          -1.4115    5.3673   18.7923 N.am    1  UNL1       -0.2970
     24 H          -1.3557    5.8395   19.6543 H       1  UNL1        0.1500
     25 C          -3.9672    5.0474   19.1329 C.2     1  UNL1        0.0824
     26 C          -4.9807    6.0772   18.7304 C.2     1  UNL1        0.2365
     27 N          -6.2161    6.2771   19.5575 N.2     1  UNL1       -0.0290
     28 C          -6.4378    5.4470   20.7871 C.2     1  UNL1        0.3995
     29 N          -7.5511    5.4192   21.7920 N.2     1  UNL1        0.0864
     30 N          -7.2255    4.3721   22.8155 N.2     1  UNL1       -0.0324
     31 C          -5.9110    3.7528   22.4432 C.2     1  UNL1        0.1528
     32 C          -5.4242    4.4172   21.1896 C.2     1  UNL1        0.0960
     33 C          -4.1888    4.2174   20.3625 C.3     1  UNL1        0.0708
@<TRIPOS>BOND
     1    21    22    2
     2    22    23   am
     3    23    20    1
     4    20     1    1
     5     1     2   ar
     6     2     3   ar
     7     3     4   ar
     8     4     7    1
     9     7     8    2
    10     7     9    2
    11     7    10    1
    12    10    11   ar
    13    11    12   ar
    14    12    13   ar
    15    13    14   ar
    16    14    16    1
    17    16    17    1
    18    16    18    1
    19    16    19    1
    20    14    15   ar
    21     4     5   ar
    22     5     6   ar
    23    22    25    1
    24    25    26    2
    25    26    27    1
    26    27    28    2
    27    28    29    1
    28    29    30    2
    29    30    31    1
    30    31    32    2
    31    32    33    1
    32     6     1   ar
    33    33    25    1
    34    15    10   ar
    35    32    28    1
    36    23    24    1
