@<TRIPOS>MOLECULE
*****
 27 29 0 0 0
SMALL
GASTEIGER

@<TRIPOS>ATOM
      1 C          -9.9671  -18.4610   24.6939 C.3     1  UNL1        0.0374
      2 C         -11.2448  -18.2370   23.9406 C.3     1  UNL1        0.1429
      3 C         -11.7129  -19.2370   24.9559 C.3     1  UNL1        0.0374
      4 O         -12.6850  -18.3602   23.5399 O.3     1  UNL1       -0.3494
      5 C         -13.2134  -17.5613   22.3856 C.3     1  UNL1        0.1670
      6 C         -12.3015  -16.6391   21.6319 C.3     1  UNL1        0.1423
      7 N         -10.8613  -16.5158   22.0326 N.ar    1  UNL1       -0.2771
      8 C         -10.3330  -17.3148   23.1869 C.ar    1  UNL1        0.1475
      9 N          -8.8927  -17.1914   23.5876 N.ar    1  UNL1       -0.2221
     10 C          -7.9809  -16.2692   22.8339 C.ar    1  UNL1        0.1740
     11 C          -8.5092  -15.4703   21.6795 C.ar    1  UNL1        0.2130
     12 O          -7.5973  -14.5481   20.9259 O.3     1  UNL1       -0.5006
     13 C          -9.9494  -15.5936   21.2789 C.ar    1  UNL1        0.2974
     14 O         -10.4778  -14.7946   20.1245 O.2     1  UNL1       -0.2636
     15 H          -6.6977  -14.4711   21.1762 H       1  UNL1        0.2924
     16 C          -6.5406  -16.1459   23.2346 C.2     1  UNL1        0.2671
     17 O          -6.0257  -14.8527   23.7935 O.2     1  UNL1       -0.2684
     18 N          -5.6153  -17.3159   23.0762 N.am    1  UNL1       -0.2956
     19 H          -5.9533  -18.1646   22.7093 H       1  UNL1        0.1501
     20 C          -4.1751  -17.1926   23.4768 C.3     1  UNL1        0.1166
     21 C          -3.0923  -17.4378   22.4681 C.ar    1  UNL1       -0.0024
     22 C          -2.2749  -16.2912   21.9515 C.ar    1  UNL1       -0.0003
     23 C          -1.1922  -16.5364   20.9427 C.ar    1  UNL1        0.0294
     24 C          -0.9269  -17.9283   20.4506 C.ar    1  UNL1        0.1401
     25 F           0.1558  -18.1735   19.4419 F       1  UNL1       -0.2042
     26 C          -1.7443  -19.0749   20.9672 C.ar    1  UNL1        0.0294
     27 C          -2.8270  -18.8297   21.9760 C.ar    1  UNL1       -0.0003
@<TRIPOS>BOND
     1     1     2    1
     2     2     3    1
     3     2     4    1
     4     4     5    1
     5     5     6    1
     6     6     7    1
     7     7     8   ar
     8     8     9   ar
     9     9    10   ar
    10    10    16    1
    11    16    17    2
    12    16    18   am
    13    18    20    1
    14    20    21    1
    15    21    22   ar
    16    22    23   ar
    17    23    24   ar
    18    24    25    1
    19    24    26   ar
    20    26    27   ar
    21    10    11   ar
    22    11    12    1
    23    11    13   ar
    24    13    14    2
    25     8     2    1
    26    27    21   ar
    27    13     7   ar
    28    18    19    1
    29    12    15    1
@<TRIPOS>MOLECULE
*****
 27 29 0 0 0
SMALL
GASTEIGER

@<TRIPOS>ATOM
      1 C          -8.2635  -16.7005   23.8225 C.3     1  UNL1        0.0374
      2 C          -9.6930  -16.4318   23.4561 C.3     1  UNL1        0.1429
      3 C          -9.5648  -15.5543   24.6659 C.3     1  UNL1        0.0374
      4 O         -11.0780  -15.8584   23.5099 O.3     1  UNL1       -0.3494
      5 C         -12.0948  -16.2557   22.4811 C.3     1  UNL1        0.1670
      6 C         -11.7265  -17.2265   21.3986 C.3     1  UNL1        0.1423
      7 N         -10.3415  -17.7999   21.3448 N.ar    1  UNL1       -0.2771
      8 C          -9.3248  -17.4026   22.3736 C.ar    1  UNL1        0.1475
      9 N          -7.9397  -17.9761   22.3198 N.ar    1  UNL1       -0.2221
     10 C          -7.5715  -18.9468   21.2372 C.ar    1  UNL1        0.1740
     11 C          -8.5882  -19.3442   20.2085 C.ar    1  UNL1        0.2130
     12 O          -8.2199  -20.3150   19.1259 O.3     1  UNL1       -0.5006
     13 C          -9.9732  -18.7708   20.2622 C.ar    1  UNL1        0.2974
     14 O         -10.9900  -19.1681   19.2335 O.2     1  UNL1       -0.2636
     15 H          -7.3547  -20.6732   19.0923 H       1  UNL1        0.2924
     16 C          -6.1864  -19.5203   21.1834 C.2     1  UNL1        0.2671
     17 O          -5.4281  -19.7698   22.4533 O.2     1  UNL1       -0.2684
     18 N          -5.5598  -19.8443   19.8596 N.am    1  UNL1       -0.2956
     19 H          -6.0575  -19.6806   19.0262 H       1  UNL1        0.1501
     20 C          -4.1748  -20.4178   19.8058 C.3     1  UNL1        0.1166
     21 C          -2.9835  -19.5103   19.8911 C.ar    1  UNL1       -0.0024
     22 C          -2.1747  -19.4510   21.1529 C.ar    1  UNL1       -0.0003
     23 C          -0.9834  -18.5435   21.2382 C.ar    1  UNL1        0.0294
     24 C          -0.6008  -17.6954   20.0616 C.ar    1  UNL1        0.1401
     25 F           0.5905  -16.7880   20.1469 F       1  UNL1       -0.2042
     26 C          -1.4096  -17.7548   18.7998 C.ar    1  UNL1        0.0294
     27 C          -2.6009  -18.6622   18.7145 C.ar    1  UNL1       -0.0003
@<TRIPOS>BOND
     1     1     2    1
     2     2     3    1
     3     2     4    1
     4     4     5    1
     5     5     6    1
     6     6     7    1
     7     7     8   ar
     8     8     9   ar
     9     9    10   ar
    10    10    16    1
    11    16    17    2
    12    16    18   am
    13    18    20    1
    14    20    21    1
    15    21    22   ar
    16    22    23   ar
    17    23    24   ar
    18    24    25    1
    19    24    26   ar
    20    26    27   ar
    21    10    11   ar
    22    11    12    1
    23    11    13   ar
    24    13    14    2
    25     8     2    1
    26    27    21   ar
    27    13     7   ar
    28    18    19    1
    29    12    15    1
@<TRIPOS>MOLECULE
*****
 27 29 0 0 0
SMALL
GASTEIGER

@<TRIPOS>ATOM
      1 C          -9.5986  -19.1917   24.6024 C.3     1  UNL1        0.0374
      2 C         -10.9335  -18.7294   24.0979 C.3     1  UNL1        0.1429
      3 C         -11.2169  -18.7867   25.5698 C.3     1  UNL1        0.0374
      4 O         -12.3667  -18.2869   24.1047 O.3     1  UNL1       -0.3494
      5 C         -13.0530  -17.9477   22.8147 C.3     1  UNL1        0.1670
      6 C         -12.3061  -18.0509   21.5181 C.3     1  UNL1        0.1423
      7 N         -10.8729  -18.4934   21.5113 N.ar    1  UNL1       -0.2771
      8 C         -10.1866  -18.8326   22.8012 C.ar    1  UNL1        0.1475
      9 N          -8.7533  -19.2750   22.7944 N.ar    1  UNL1       -0.2221
     10 C          -8.0064  -19.3783   21.4978 C.ar    1  UNL1        0.1740
     11 C          -8.6927  -19.0390   20.2078 C.ar    1  UNL1        0.2130
     12 O          -7.9457  -19.1423   18.9111 O.3     1  UNL1       -0.5006
     13 C         -10.1259  -18.5966   20.2146 C.ar    1  UNL1        0.2974
     14 O         -10.8122  -18.2574   18.9247 O.2     1  UNL1       -0.2636
     15 H          -7.0504  -19.4187   18.9069 H       1  UNL1        0.2924
     16 C          -6.5731  -19.8207   21.4910 C.2     1  UNL1        0.2671
     17 O          -6.1236  -20.8929   20.5431 O.2     1  UNL1       -0.2684
     18 N          -5.5893  -19.1910   22.4320 N.am    1  UNL1       -0.2956
     19 H          -5.8843  -18.4873   23.0542 H       1  UNL1        0.1501
     20 C          -4.1561  -19.6334   22.4253 C.3     1  UNL1        0.1166
     21 C          -3.1108  -18.7799   21.7703 C.ar    1  UNL1       -0.0024
     22 C          -2.3167  -19.3190   20.6176 C.ar    1  UNL1       -0.0003
     23 C          -1.2715  -18.4656   19.9625 C.ar    1  UNL1        0.0294
     24 C          -1.0202  -17.0731   20.4603 C.ar    1  UNL1        0.1401
     25 F           0.0250  -16.2196   19.8053 F       1  UNL1       -0.2042
     26 C          -1.8143  -16.5340   21.6130 C.ar    1  UNL1        0.0294
     27 C          -2.8596  -17.3874   22.2680 C.ar    1  UNL1       -0.0003
@<TRIPOS>BOND
     1     1     2    1
     2     2     3    1
     3     2     4    1
     4     4     5    1
     5     5     6    1
     6     6     7    1
     7     7     8   ar
     8     8     9   ar
     9     9    10   ar
    10    10    16    1
    11    16    17    2
    12    16    18   am
    13    18    20    1
    14    20    21    1
    15    21    22   ar
    16    22    23   ar
    17    23    24   ar
    18    24    25    1
    19    24    26   ar
    20    26    27   ar
    21    10    11   ar
    22    11    12    1
    23    11    13   ar
    24    13    14    2
    25     8     2    1
    26    27    21   ar
    27    13     7   ar
    28    18    19    1
    29    12    15    1
@<TRIPOS>MOLECULE
*****
 27 29 0 0 0
SMALL
GASTEIGER

@<TRIPOS>ATOM
      1 C         -17.4197   -4.7399   19.1415 C.3     1  UNL1        0.0374
      2 C         -18.5544   -5.6089   19.5967 C.3     1  UNL1        0.1429
      3 C         -19.2237   -4.2670   19.6321 C.3     1  UNL1        0.0374
      4 O         -19.9215   -6.0120   20.0642 O.3     1  UNL1       -0.3494
      5 C         -20.2253   -7.4551   20.3382 C.3     1  UNL1        0.1670
      6 C         -19.1620   -8.4952   20.1447 C.3     1  UNL1        0.1423
      7 N         -17.7949   -8.0922   19.6773 N.ar    1  UNL1       -0.2771
      8 C         -17.4911   -6.6491   19.4032 C.ar    1  UNL1        0.1475
      9 N         -16.1239   -6.2461   18.9357 N.ar    1  UNL1       -0.2221
     10 C         -15.0606   -7.2862   18.7423 C.ar    1  UNL1        0.1740
     11 C         -15.3644   -8.7293   19.0163 C.ar    1  UNL1        0.2130
     12 O         -14.3010   -9.7695   18.8228 O.3     1  UNL1       -0.5006
     13 C         -16.7315   -9.1323   19.4838 C.ar    1  UNL1        0.2974
     14 O         -17.0352  -10.5755   19.7578 O.2     1  UNL1       -0.2636
     15 H         -13.4470   -9.5177   18.5308 H       1  UNL1        0.2924
     16 C         -13.6934   -6.8832   18.2748 C.2     1  UNL1        0.2671
     17 O         -13.5133   -6.2838   16.9116 O.2     1  UNL1       -0.2684
     18 N         -12.5063   -7.0797   19.1705 N.am    1  UNL1       -0.2956
     19 H         -12.6245   -7.4731   20.0652 H       1  UNL1        0.1501
     20 C         -11.1392   -6.6768   18.7030 C.3     1  UNL1        0.1166
     21 C         -10.8799   -5.2632   18.2734 C.ar    1  UNL1       -0.0024
     22 C         -11.5783   -4.1294   18.9636 C.ar    1  UNL1       -0.0003
     23 C         -11.3190   -2.7158   18.5340 C.ar    1  UNL1        0.0294
     24 C         -10.3611   -2.4361   17.4140 C.ar    1  UNL1        0.1401
     25 F         -10.1018   -1.0226   16.9844 F       1  UNL1       -0.2042
     26 C          -9.6627   -3.5699   16.7238 C.ar    1  UNL1        0.0294
     27 C          -9.9220   -4.9835   17.1534 C.ar    1  UNL1       -0.0003
@<TRIPOS>BOND
     1     1     2    1
     2     2     3    1
     3     2     4    1
     4     4     5    1
     5     5     6    1
     6     6     7    1
     7     7     8   ar
     8     8     9   ar
     9     9    10   ar
    10    10    16    1
    11    16    17    2
    12    16    18   am
    13    18    20    1
    14    20    21    1
    15    21    22   ar
    16    22    23   ar
    17    23    24   ar
    18    24    25    1
    19    24    26   ar
    20    26    27   ar
    21    10    11   ar
    22    11    12    1
    23    11    13   ar
    24    13    14    2
    25     8     2    1
    26    27    21   ar
    27    13     7   ar
    28    18    19    1
    29    12    15    1
@<TRIPOS>MOLECULE
*****
 27 29 0 0 0
SMALL
GASTEIGER

@<TRIPOS>ATOM
      1 C           7.0497   -5.8417   29.9342 C.3     1  UNL1        0.0374
      2 C           7.3198   -4.5250   29.2683 C.3     1  UNL1        0.1429
      3 C           6.6994   -4.0474   30.5478 C.3     1  UNL1        0.0374
      4 O           7.3744   -3.0425   29.0467 O.3     1  UNL1       -0.3494
      5 C           7.9557   -2.4948   27.7770 C.3     1  UNL1        0.1670
      6 C           8.4823   -3.4296   26.7288 C.3     1  UNL1        0.1423
      7 N           8.4277   -4.9121   26.9504 N.ar    1  UNL1       -0.2771
      8 C           7.8464   -5.4598   28.2201 C.ar    1  UNL1        0.1475
      9 N           7.7918   -6.9424   28.4416 N.ar    1  UNL1       -0.2221
     10 C           8.3184   -7.8772   27.3934 C.ar    1  UNL1        0.1740
     11 C           8.8997   -7.3295   26.1237 C.ar    1  UNL1        0.2130
     12 O           9.4263   -8.2645   25.0755 O.3     1  UNL1       -0.5006
     13 C           8.9543   -5.8470   25.9022 C.ar    1  UNL1        0.2974
     14 O           9.5355   -5.2993   24.6324 O.2     1  UNL1       -0.2636
     15 H           9.3922   -9.1905   25.2139 H       1  UNL1        0.2924
     16 C           8.2638   -9.3598   27.6150 C.2     1  UNL1        0.2671
     17 O           9.5340  -10.1539   27.6919 O.2     1  UNL1       -0.2684
     18 N           6.9390  -10.0482   27.7595 N.am    1  UNL1       -0.2956
     19 H           6.1053   -9.5270   27.7090 H       1  UNL1        0.1501
     20 C           6.8843  -11.5307   27.9810 C.3     1  UNL1        0.1166
     21 C           5.5629  -12.2405   27.9835 C.ar    1  UNL1       -0.0024
     22 C           5.2206  -13.1920   26.8756 C.ar    1  UNL1       -0.0003
     23 C           3.8991  -13.9018   26.8781 C.ar    1  UNL1        0.0294
     24 C           2.9200  -13.6600   27.9884 C.ar    1  UNL1        0.1401
     25 F           1.5985  -14.3698   27.9909 F       1  UNL1       -0.2042
     26 C           3.2623  -12.7085   29.0963 C.ar    1  UNL1        0.0294
     27 C           4.5838  -11.9988   29.0938 C.ar    1  UNL1       -0.0003
@<TRIPOS>BOND
     1     1     2    1
     2     2     3    1
     3     2     4    1
     4     4     5    1
     5     5     6    1
     6     6     7    1
     7     7     8   ar
     8     8     9   ar
     9     9    10   ar
    10    10    16    1
    11    16    17    2
    12    16    18   am
    13    18    20    1
    14    20    21    1
    15    21    22   ar
    16    22    23   ar
    17    23    24   ar
    18    24    25    1
    19    24    26   ar
    20    26    27   ar
    21    10    11   ar
    22    11    12    1
    23    11    13   ar
    24    13    14    2
    25     8     2    1
    26    27    21   ar
    27    13     7   ar
    28    18    19    1
    29    12    15    1
@<TRIPOS>MOLECULE
*****
 27 29 0 0 0
SMALL
GASTEIGER

@<TRIPOS>ATOM
      1 C         -15.9869   -8.4575   19.3196 C.3     1  UNL1        0.0374
      2 C         -17.4744   -8.5719   19.1640 C.3     1  UNL1        0.1429
      3 C         -17.0832  -10.0099   18.9925 C.3     1  UNL1        0.0374
      4 O         -18.8261   -9.1857   18.9489 O.3     1  UNL1       -0.3494
      5 C         -20.0523   -8.3219   18.9592 C.3     1  UNL1        0.1670
      6 C         -19.9270   -6.8443   19.1847 C.3     1  UNL1        0.1423
      7 N         -18.5754   -6.2305   19.3999 N.ar    1  UNL1       -0.2771
      8 C         -17.3491   -7.0943   19.3895 C.ar    1  UNL1        0.1475
      9 N         -15.9974   -6.4804   19.6047 N.ar    1  UNL1       -0.2221
     10 C         -15.8721   -5.0028   19.8302 C.ar    1  UNL1        0.1740
     11 C         -17.0983   -4.1390   19.8405 C.ar    1  UNL1        0.2130
     12 O         -16.9729   -2.6613   20.0661 O.3     1  UNL1       -0.5006
     13 C         -18.4499   -4.7528   19.6254 C.ar    1  UNL1        0.2974
     14 O         -19.6762   -3.8890   19.6358 O.2     1  UNL1       -0.2636
     15 H         -16.1286   -2.2779   20.2005 H       1  UNL1        0.2924
     16 C         -14.5204   -4.3889   20.0453 C.2     1  UNL1        0.2671
     17 O         -13.5459   -5.0321   20.9869 O.2     1  UNL1       -0.2684
     18 N         -14.1433   -3.1320   19.3188 N.am    1  UNL1       -0.2956
     19 H         -14.7830   -2.7099   18.7008 H       1  UNL1        0.1501
     20 C         -12.7917   -2.5181   19.5339 C.3     1  UNL1        0.1166
     21 C         -11.6439   -2.9021   18.6479 C.ar    1  UNL1       -0.0024
     22 C         -11.2292   -1.9993   17.5242 C.ar    1  UNL1       -0.0003
     23 C         -10.0814   -2.3834   16.6381 C.ar    1  UNL1        0.0294
     24 C          -9.3483   -3.6702   16.8758 C.ar    1  UNL1        0.1401
     25 F          -8.2005   -4.0543   15.9898 F       1  UNL1       -0.2042
     26 C          -9.7631   -4.5731   17.9996 C.ar    1  UNL1        0.0294
     27 C         -10.9109   -4.1890   18.8856 C.ar    1  UNL1       -0.0003
@<TRIPOS>BOND
     1     1     2    1
     2     2     3    1
     3     2     4    1
     4     4     5    1
     5     5     6    1
     6     6     7    1
     7     7     8   ar
     8     8     9   ar
     9     9    10   ar
    10    10    16    1
    11    16    17    2
    12    16    18   am
    13    18    20    1
    14    20    21    1
    15    21    22   ar
    16    22    23   ar
    17    23    24   ar
    18    24    25    1
    19    24    26   ar
    20    26    27   ar
    21    10    11   ar
    22    11    12    1
    23    11    13   ar
    24    13    14    2
    25     8     2    1
    26    27    21   ar
    27    13     7   ar
    28    18    19    1
    29    12    15    1
@<TRIPOS>MOLECULE
*****
 27 29 0 0 0
SMALL
GASTEIGER

@<TRIPOS>ATOM
      1 C           3.7280   -0.8174   22.2256 C.3     1  UNL1        0.0374
      2 C           2.6964   -0.2409   21.3017 C.3     1  UNL1        0.1429
      3 C           2.0711    0.0843   22.6258 C.3     1  UNL1        0.0374
      4 O           1.4477    0.4486   20.8377 O.3     1  UNL1       -0.3494
      5 C           1.1826    0.6126   19.3705 C.3     1  UNL1        0.1670
      6 C           2.1661    0.0872   18.3672 C.3     1  UNL1        0.1423
      7 N           3.4148   -0.6022   18.8312 N.ar    1  UNL1       -0.2771
      8 C           3.6800   -0.7663   20.2984 C.ar    1  UNL1        0.1475
      9 N           4.9288   -1.4558   20.7624 N.ar    1  UNL1       -0.2221
     10 C           5.9123   -1.9812   19.7592 C.ar    1  UNL1        0.1740
     11 C           5.6471   -1.8171   18.2919 C.ar    1  UNL1        0.2130
     12 O           6.6308   -2.3426   17.2887 O.3     1  UNL1       -0.5006
     13 C           4.3984   -1.1277   17.8280 C.ar    1  UNL1        0.2974
     14 O           4.1333   -0.9636   16.3607 O.2     1  UNL1       -0.2636
     15 H           7.4108   -2.7733   17.5785 H       1  UNL1        0.2924
     16 C           7.1611   -2.6707   20.2231 C.2     1  UNL1        0.2671
     17 O           8.4509   -2.4620   19.4865 O.2     1  UNL1       -0.2684
     18 N           7.1200   -3.5689   21.4238 N.am    1  UNL1       -0.2956
     19 H           6.2734   -3.7059   21.9073 H       1  UNL1        0.1501
     20 C           8.3687   -4.2584   21.8878 C.3     1  UNL1        0.1166
     21 C           8.2965   -5.2888   22.9754 C.ar    1  UNL1       -0.0024
     22 C           8.9506   -6.6254   22.7868 C.ar    1  UNL1       -0.0003
     23 C           8.8784   -7.6559   23.8744 C.ar    1  UNL1        0.0294
     24 C           8.1521   -7.3498   25.1506 C.ar    1  UNL1        0.1401
     25 F           8.0800   -8.3803   26.2382 F       1  UNL1       -0.2042
     26 C           7.4980   -6.0132   25.3392 C.ar    1  UNL1        0.0294
     27 C           7.5702   -4.9827   24.2516 C.ar    1  UNL1       -0.0003
@<TRIPOS>BOND
     1     1     2    1
     2     2     3    1
     3     2     4    1
     4     4     5    1
     5     5     6    1
     6     6     7    1
     7     7     8   ar
     8     8     9   ar
     9     9    10   ar
    10    10    16    1
    11    16    17    2
    12    16    18   am
    13    18    20    1
    14    20    21    1
    15    21    22   ar
    16    22    23   ar
    17    23    24   ar
    18    24    25    1
    19    24    26   ar
    20    26    27   ar
    21    10    11   ar
    22    11    12    1
    23    11    13   ar
    24    13    14    2
    25     8     2    1
    26    27    21   ar
    27    13     7   ar
    28    18    19    1
    29    12    15    1
@<TRIPOS>MOLECULE
*****
 27 29 0 0 0
SMALL
GASTEIGER

@<TRIPOS>ATOM
      1 C           2.5824   -0.6110   21.2459 C.3     1  UNL1        0.0374
      2 C           3.2171   -1.5666   20.2794 C.3     1  UNL1        0.1429
      3 C           2.3208   -0.8085   19.3456 C.3     1  UNL1        0.0374
      4 O           3.5405   -2.2589   18.9887 O.3     1  UNL1       -0.3494
      5 C           4.5397   -3.3774   18.9674 C.3     1  UNL1        0.1670
      6 C           5.2155   -3.8037   20.2368 C.3     1  UNL1        0.1423
      7 N           4.8921   -3.1114   21.5276 N.ar    1  UNL1       -0.2771
      8 C           3.8929   -1.9929   21.5489 C.ar    1  UNL1        0.1475
      9 N           3.5694   -1.3006   22.8398 N.ar    1  UNL1       -0.2221
     10 C           4.2452   -1.7269   24.1092 C.ar    1  UNL1        0.1740
     11 C           5.2445   -2.8454   24.0879 C.ar    1  UNL1        0.2130
     12 O           5.9203   -3.2717   25.3574 O.3     1  UNL1       -0.5006
     13 C           5.5679   -3.5377   22.7971 C.ar    1  UNL1        0.2974
     14 O           6.5671   -4.6562   22.7758 O.2     1  UNL1       -0.2636
     15 H           5.7182   -2.8392   26.1637 H       1  UNL1        0.2924
     16 C           3.9218   -1.0346   25.4001 C.2     1  UNL1        0.2671
     17 O           4.0895   -1.7596   26.7024 O.2     1  UNL1       -0.2684
     18 N           3.4307    0.3827   25.3885 N.am    1  UNL1       -0.2956
     19 H           3.3207    0.8585   24.5337 H       1  UNL1        0.1501
     20 C           3.1073    1.0749   26.6792 C.3     1  UNL1        0.1166
     21 C           1.7680    0.8727   27.3237 C.ar    1  UNL1       -0.0024
     22 C           0.5583    1.5684   26.7735 C.ar    1  UNL1       -0.0003
     23 C          -0.7810    1.3662   27.4180 C.ar    1  UNL1        0.0294
     24 C          -0.9107    0.4684   28.6125 C.ar    1  UNL1        0.1401
     25 F          -2.2500    0.2662   29.2570 F       1  UNL1       -0.2042
     26 C           0.2990   -0.2273   29.1627 C.ar    1  UNL1        0.0294
     27 C           1.6384   -0.0251   28.5183 C.ar    1  UNL1       -0.0003
@<TRIPOS>BOND
     1     1     2    1
     2     2     3    1
     3     2     4    1
     4     4     5    1
     5     5     6    1
     6     6     7    1
     7     7     8   ar
     8     8     9   ar
     9     9    10   ar
    10    10    16    1
    11    16    17    2
    12    16    18   am
    13    18    20    1
    14    20    21    1
    15    21    22   ar
    16    22    23   ar
    17    23    24   ar
    18    24    25    1
    19    24    26   ar
    20    26    27   ar
    21    10    11   ar
    22    11    12    1
    23    11    13   ar
    24    13    14    2
    25     8     2    1
    26    27    21   ar
    27    13     7   ar
    28    18    19    1
    29    12    15    1
@<TRIPOS>MOLECULE
*****
 27 29 0 0 0
SMALL
GASTEIGER

@<TRIPOS>ATOM
      1 C           6.4493   -4.5632   28.1418 C.3     1  UNL1        0.0374
      2 C           7.2732   -5.8147   28.2129 C.3     1  UNL1        0.1429
      3 C           6.9789   -5.6134   29.6699 C.3     1  UNL1        0.0374
      4 O           7.9949   -6.9962   28.7900 O.3     1  UNL1       -0.3494
      5 C           8.7248   -7.9444   27.8854 C.3     1  UNL1        0.1670
      6 C           8.7329   -7.7111   26.4037 C.3     1  UNL1        0.1423
      7 N           8.0113   -6.5295   25.8266 N.ar    1  UNL1       -0.2771
      8 C           7.2814   -5.5813   26.7312 C.ar    1  UNL1        0.1475
      9 N           6.5597   -4.3998   26.1540 N.ar    1  UNL1       -0.2221
     10 C           6.5679   -4.1664   24.6723 C.ar    1  UNL1        0.1740
     11 C           7.2977   -5.1146   23.7677 C.ar    1  UNL1        0.2130
     12 O           7.3059   -4.8812   22.2860 O.3     1  UNL1       -0.5006
     13 C           8.0194   -6.2961   24.3449 C.ar    1  UNL1        0.2974
     14 O           8.7492   -7.2443   23.4403 O.2     1  UNL1       -0.2636
     15 H           6.8550   -4.1431   21.9255 H       1  UNL1        0.2924
     16 C           5.8462   -2.9848   24.0951 C.2     1  UNL1        0.2671
     17 O           6.2538   -1.5943   24.4828 O.2     1  UNL1       -0.2684
     18 N           4.7168   -3.1938   23.1303 N.am    1  UNL1       -0.2956
     19 H           4.4493   -4.1064   22.8759 H       1  UNL1        0.1501
     20 C           3.9951   -2.0123   22.5531 C.3     1  UNL1        0.1166
     21 C           3.9393   -1.8205   21.0665 C.ar    1  UNL1       -0.0024
     22 C           4.7413   -2.7112   20.1647 C.ar    1  UNL1       -0.0003
     23 C           4.6855   -2.5194   18.6781 C.ar    1  UNL1        0.0294
     24 C           3.8275   -1.4369   18.0932 C.ar    1  UNL1        0.1401
     25 F           3.7717   -1.2450   16.6066 F       1  UNL1       -0.2042
     26 C           3.0255   -0.5462   18.9950 C.ar    1  UNL1        0.0294
     27 C           3.0813   -0.7380   20.4817 C.ar    1  UNL1       -0.0003
@<TRIPOS>BOND
     1     1     2    1
     2     2     3    1
     3     2     4    1
     4     4     5    1
     5     5     6    1
     6     6     7    1
     7     7     8   ar
     8     8     9   ar
     9     9    10   ar
    10    10    16    1
    11    16    17    2
    12    16    18   am
    13    18    20    1
    14    20    21    1
    15    21    22   ar
    16    22    23   ar
    17    23    24   ar
    18    24    25    1
    19    24    26   ar
    20    26    27   ar
    21    10    11   ar
    22    11    12    1
    23    11    13   ar
    24    13    14    2
    25     8     2    1
    26    27    21   ar
    27    13     7   ar
    28    18    19    1
    29    12    15    1
