@<TRIPOS>MOLECULE
*****
 31 33 0 0 0
SMALL
GASTEIGER

@<TRIPOS>ATOM
      1 C          -5.2603  -15.4408   25.4878 C.3     1  UNL1        0.1020
      2 C          -4.7774  -15.7422   24.1000 C.3     1  UNL1        0.1697
      3 O          -4.8689  -14.6948   23.0301 O.3     1  UNL1       -0.3793
      4 H          -5.2607  -13.8882   23.3999 H       1  UNL1        0.2106
      5 C          -4.2032  -17.0909   23.7820 C.3     1  UNL1        0.2358
      6 O          -3.7606  -17.4070   22.3841 O.3     1  UNL1       -0.4715
      7 C          -4.3010  -18.6173   21.6819 C.ar    1  UNL1        0.1556
      8 C          -5.5585  -19.2707   22.1737 C.ar    1  UNL1        0.0382
      9 C          -6.0990  -20.4809   21.4715 C.ar    1  UNL1        0.0032
     10 C          -5.3820  -21.0378   20.2775 C.ar    1  UNL1        0.0015
     11 C          -4.1245  -20.3845   19.7857 C.ar    1  UNL1        0.0214
     12 C          -3.5840  -19.1742   20.4879 C.ar    1  UNL1        0.1395
     13 S          -2.3265  -18.5209   19.9960 S.O2    1  UNL1        0.0133
     14 C          -1.0691  -17.8675   19.5042 C.3     1  UNL1        0.1817
     15 O          -3.1407  -17.6054   19.1306 O.2     1  UNL1       -0.1685
     16 O          -1.5124  -19.4363   20.8615 O.2     1  UNL1       -0.1685
     17 N          -6.5491  -14.7004   25.6892 N.3     1  UNL1       -0.2971
     18 H          -6.5317  -14.3324   26.6404 H       1  UNL1        0.1233
     19 C          -8.0530  -14.7510   24.1941 C.3     1  UNL1        0.0162
     20 C          -7.8580  -15.4145   25.5251 C.3     1  UNL1        0.0476
     21 C          -7.6630  -16.0780   26.8561 C.3     1  UNL1        0.0162
     22 C          -9.1668  -16.1286   25.3609 C.3     1  UNL1        0.0602
     23 C          -9.5233  -16.7473   24.0418 C.2     1  UNL1        0.0599
     24 C          -8.8274  -17.9085   23.3957 C.2     1  UNL1        0.0159
     25 C          -9.5123  -18.1923   22.0917 C.2     1  UNL1        0.0150
     26 C          -9.2614  -19.2210   21.0293 C.2     1  UNL1        0.0009
     27 C         -10.1297  -19.2640   19.8070 C.2     1  UNL1       -0.0041
     28 C         -11.2490  -18.2782   19.6472 C.2     1  UNL1       -0.0198
     29 C         -11.4999  -17.2496   20.7096 C.3     1  UNL1        0.0717
     30 C         -10.6316  -17.2066   21.9319 C.2     1  UNL1        0.0630
     31 N         -10.6384  -16.3136   23.1371 N.2     1  UNL1       -0.2536
@<TRIPOS>BOND
     1    19    20    1
     2    20    21    1
     3    20    22    1
     4    22    23    1
     5    23    24    2
     6    24    25    1
     7    25    26    2
     8    26    27    1
     9    27    28    2
    10    28    29    1
    11    29    30    1
    12    30    31    2
    13    20    17    1
    14    17     1    1
    15     1     2    1
    16     2     3    1
    17     2     5    1
    18     5     6    1
    19     6     7    1
    20     7     8   ar
    21     8     9   ar
    22     9    10   ar
    23    10    11   ar
    24    11    12   ar
    25    12    13    1
    26    13    14    1
    27    13    15    2
    28    13    16    2
    29    31    23    1
    30    12     7   ar
    31    30    25    1
    32    17    18    1
    33     3     4    1
@<TRIPOS>MOLECULE
*****
 31 33 0 0 0
SMALL
GASTEIGER

@<TRIPOS>ATOM
      1 C          -8.3733  -19.7024   19.3902 C.3     1  UNL1        0.1020
      2 C          -7.0821  -19.2954   20.0362 C.3     1  UNL1        0.1697
      3 O          -6.8863  -17.8809   20.4954 O.3     1  UNL1       -0.3793
      4 H          -7.6842  -17.3646   20.3012 H       1  UNL1        0.2106
      5 C          -5.9867  -20.3030   20.2229 C.3     1  UNL1        0.2358
      6 O          -4.5527  -19.8871   20.0790 O.3     1  UNL1       -0.4715
      7 C          -3.9152  -19.0187   21.1229 C.ar    1  UNL1        0.1556
      8 C          -4.3894  -19.0841   22.5445 C.ar    1  UNL1        0.0382
      9 C          -3.7520  -18.2158   23.5884 C.ar    1  UNL1        0.0032
     10 C          -2.6404  -17.2821   23.2107 C.ar    1  UNL1        0.0015
     11 C          -2.1663  -17.2168   21.7891 C.ar    1  UNL1        0.0214
     12 C          -2.8037  -18.0851   20.7452 C.ar    1  UNL1        0.1395
     13 S          -2.3295  -18.0197   19.3236 S.O2    1  UNL1        0.0133
     14 C          -1.8554  -17.9544   17.9020 C.3     1  UNL1        0.1817
     15 O          -1.1714  -18.9082   19.6690 O.2     1  UNL1       -0.1685
     16 O          -3.4877  -17.1313   18.9782 O.2     1  UNL1       -0.1685
     17 N          -9.6085  -19.8715   20.2242 N.3     1  UNL1       -0.2971
     18 H         -10.3840  -20.0117   19.5767 H       1  UNL1        0.1233
     19 C          -9.6256  -19.6488   22.3337 C.3     1  UNL1        0.0162
     20 C         -10.0271  -18.7877   21.1730 C.3     1  UNL1        0.0476
     21 C         -10.4286  -17.9266   20.0123 C.3     1  UNL1        0.0162
     22 C         -10.4456  -17.7040   22.1218 C.3     1  UNL1        0.0602
     23 C          -9.4549  -17.1335   23.0929 C.2     1  UNL1        0.0599
     24 C          -9.6591  -16.9760   24.5706 C.2     1  UNL1        0.0159
     25 C          -8.4165  -16.3654   25.1478 C.2     1  UNL1        0.0150
     26 C          -8.0446  -15.9813   26.5492 C.2     1  UNL1        0.0009
     27 C          -6.7006  -15.3773   26.8297 C.2     1  UNL1       -0.0041
     28 C          -5.7284  -15.1574   25.7087 C.2     1  UNL1       -0.0198
     29 C          -6.1003  -15.5416   24.3073 C.3     1  UNL1        0.0717
     30 C          -7.4443  -16.1456   24.0268 C.2     1  UNL1        0.0630
     31 N          -8.0861  -16.6202   22.7569 N.2     1  UNL1       -0.2536
@<TRIPOS>BOND
     1    19    20    1
     2    20    21    1
     3    20    22    1
     4    22    23    1
     5    23    24    2
     6    24    25    1
     7    25    26    2
     8    26    27    1
     9    27    28    2
    10    28    29    1
    11    29    30    1
    12    30    31    2
    13    20    17    1
    14    17     1    1
    15     1     2    1
    16     2     3    1
    17     2     5    1
    18     5     6    1
    19     6     7    1
    20     7     8   ar
    21     8     9   ar
    22     9    10   ar
    23    10    11   ar
    24    11    12   ar
    25    12    13    1
    26    13    14    1
    27    13    15    2
    28    13    16    2
    29    31    23    1
    30    12     7   ar
    31    30    25    1
    32    17    18    1
    33     3     4    1
@<TRIPOS>MOLECULE
*****
 31 33 0 0 0
SMALL
GASTEIGER

@<TRIPOS>ATOM
      1 C          -8.4252  -19.5054   19.6344 C.3     1  UNL1        0.1020
      2 C          -7.2062  -19.1762   20.4441 C.3     1  UNL1        0.1697
      3 O          -7.0324  -17.7987   21.0119 O.3     1  UNL1       -0.3793
      4 H          -7.7920  -17.2487   20.7641 H       1  UNL1        0.2106
      5 C          -6.1610  -20.2245   20.6861 C.3     1  UNL1        0.2358
      6 O          -4.9225  -19.8839   21.4607 O.3     1  UNL1       -0.4715
      7 C          -3.8458  -19.0540   20.8267 C.ar    1  UNL1        0.1556
      8 C          -3.4671  -19.2845   19.3937 C.ar    1  UNL1        0.0382
      9 C          -2.3904  -18.4546   18.7597 C.ar    1  UNL1        0.0032
     10 C          -1.6925  -17.3942   19.5586 C.ar    1  UNL1        0.0015
     11 C          -2.0712  -17.1637   20.9916 C.ar    1  UNL1        0.0214
     12 C          -3.1478  -17.9936   21.6257 C.ar    1  UNL1        0.1395
     13 S          -3.5265  -17.7631   23.0586 S.O2    1  UNL1        0.0133
     14 C          -3.9052  -17.5326   24.4916 C.3     1  UNL1        0.1817
     15 O          -2.1594  -18.2038   23.4908 O.2     1  UNL1       -0.1685
     16 O          -4.8936  -17.3223   22.6265 O.2     1  UNL1       -0.1685
     17 N          -9.7322  -19.7714   20.3207 N.3     1  UNL1       -0.2971
     18 H         -10.4456  -19.8054   19.5925 H       1  UNL1        0.1233
     19 C          -9.8762  -19.8234   22.4365 C.3     1  UNL1        0.0162
     20 C         -10.2324  -18.8271   21.3733 C.3     1  UNL1        0.0476
     21 C         -10.5887  -17.8307   20.3102 C.3     1  UNL1        0.0162
     22 C         -10.7327  -17.8828   22.4259 C.3     1  UNL1        0.0602
     23 C          -9.7743  -17.2818   23.4111 C.2     1  UNL1        0.0599
     24 C          -9.8343  -17.4302   24.9025 C.2     1  UNL1        0.0159
     25 C          -8.6848  -16.6671   25.4909 C.2     1  UNL1        0.0150
     26 C          -8.2401  -16.4567   26.9079 C.2     1  UNL1        0.0009
     27 C          -7.0250  -15.6263   27.1972 C.2     1  UNL1       -0.0041
     28 C          -6.2545  -15.0062   26.0694 C.2     1  UNL1       -0.0198
     29 C          -6.6992  -15.2166   24.6524 C.3     1  UNL1        0.0717
     30 C          -7.9143  -16.0471   24.3631 C.2     1  UNL1        0.0630
     31 N          -8.5877  -16.4270   23.0777 N.2     1  UNL1       -0.2536
@<TRIPOS>BOND
     1    19    20    1
     2    20    21    1
     3    20    22    1
     4    22    23    1
     5    23    24    2
     6    24    25    1
     7    25    26    2
     8    26    27    1
     9    27    28    2
    10    28    29    1
    11    29    30    1
    12    30    31    2
    13    20    17    1
    14    17     1    1
    15     1     2    1
    16     2     3    1
    17     2     5    1
    18     5     6    1
    19     6     7    1
    20     7     8   ar
    21     8     9   ar
    22     9    10   ar
    23    10    11   ar
    24    11    12   ar
    25    12    13    1
    26    13    14    1
    27    13    15    2
    28    13    16    2
    29    31    23    1
    30    12     7   ar
    31    30    25    1
    32    17    18    1
    33     3     4    1
@<TRIPOS>MOLECULE
*****
 31 33 0 0 0
SMALL
GASTEIGER

@<TRIPOS>ATOM
      1 C          -9.6829  -17.9001   21.9153 C.3     1  UNL1        0.1020
      2 C          -9.8183  -16.4140   22.0674 C.3     1  UNL1        0.1697
      3 O         -11.1700  -15.8029   22.2900 O.3     1  UNL1       -0.3793
      4 H         -11.8418  -16.5023   22.3093 H       1  UNL1        0.2106
      5 C          -8.6021  -15.5390   21.9970 C.3     1  UNL1        0.2358
      6 O          -7.3046  -16.0094   22.5846 O.3     1  UNL1       -0.4715
      7 C          -7.0306  -15.8185   24.0470 C.ar    1  UNL1        0.1556
      8 C          -8.1673  -15.5973   25.0004 C.ar    1  UNL1        0.0382
      9 C          -7.8932  -15.4064   26.4627 C.ar    1  UNL1        0.0032
     10 C          -6.4826  -15.4366   26.9716 C.ar    1  UNL1        0.0015
     11 C          -5.3459  -15.6579   26.0182 C.ar    1  UNL1        0.0214
     12 C          -5.6199  -15.8488   24.5559 C.ar    1  UNL1        0.1395
     13 S          -4.4832  -16.0700   23.6024 S.O2    1  UNL1        0.0133
     14 C          -3.3465  -16.2913   22.6490 C.3     1  UNL1        0.1817
     15 O          -4.3095  -17.4624   24.1326 O.2     1  UNL1       -0.1685
     16 O          -4.6570  -14.6777   23.0722 O.2     1  UNL1       -0.1685
     17 N          -9.3012  -18.4865   20.5885 N.3     1  UNL1       -0.2971
     18 H         -10.1131  -19.0030   20.2503 H       1  UNL1        0.1233
     19 C          -8.4171  -19.6251   19.0322 C.3     1  UNL1        0.0162
     20 C          -8.1259  -19.4133   20.4883 C.3     1  UNL1        0.0476
     21 C          -7.8347  -19.2015   21.9444 C.3     1  UNL1        0.0162
     22 C          -6.9507  -20.3400   20.3881 C.3     1  UNL1        0.0602
     23 C          -5.5622  -19.7820   20.2854 C.2     1  UNL1        0.0599
     24 C          -4.3785  -20.2070   21.1029 C.2     1  UNL1        0.0159
     25 C          -3.1982  -19.3887   20.6700 C.2     1  UNL1        0.0150
     26 C          -1.7686  -19.3709   21.1236 C.2     1  UNL1        0.0009
     27 C          -0.7932  -18.4222   20.4922 C.2     1  UNL1       -0.0041
     28 C          -1.2475  -17.4914   19.4071 C.2     1  UNL1       -0.0198
     29 C          -2.6771  -17.5093   18.9535 C.3     1  UNL1        0.0717
     30 C          -3.6525  -18.4579   19.5849 C.2     1  UNL1        0.0630
     31 N          -5.1135  -18.7010   19.3473 N.2     1  UNL1       -0.2536
@<TRIPOS>BOND
     1    19    20    1
     2    20    21    1
     3    20    22    1
     4    22    23    1
     5    23    24    2
     6    24    25    1
     7    25    26    2
     8    26    27    1
     9    27    28    2
    10    28    29    1
    11    29    30    1
    12    30    31    2
    13    20    17    1
    14    17     1    1
    15     1     2    1
    16     2     3    1
    17     2     5    1
    18     5     6    1
    19     6     7    1
    20     7     8   ar
    21     8     9   ar
    22     9    10   ar
    23    10    11   ar
    24    11    12   ar
    25    12    13    1
    26    13    14    1
    27    13    15    2
    28    13    16    2
    29    31    23    1
    30    12     7   ar
    31    30    25    1
    32    17    18    1
    33     3     4    1
@<TRIPOS>MOLECULE
*****
 31 33 0 0 0
SMALL
GASTEIGER

@<TRIPOS>ATOM
      1 C          -8.8427  -16.5274   24.4810 C.3     1  UNL1        0.1020
      2 C          -9.6698  -17.7227   24.8515 C.3     1  UNL1        0.1697
      3 O          -9.5591  -18.3146   26.2253 O.3     1  UNL1       -0.3793
      4 H          -8.9140  -17.8091   26.7442 H       1  UNL1        0.2106
      5 C         -10.6076  -18.3260   23.8482 C.3     1  UNL1        0.2358
      6 O         -10.2201  -19.5771   23.1171 O.3     1  UNL1       -0.4715
      7 C          -8.9739  -19.6027   22.2826 C.ar    1  UNL1        0.1556
      8 C          -7.7349  -20.2675   22.8052 C.ar    1  UNL1        0.0382
      9 C          -6.4887  -20.2931   21.9707 C.ar    1  UNL1        0.0032
     10 C          -6.4815  -19.6540   20.6138 C.ar    1  UNL1        0.0015
     11 C          -7.7205  -18.9892   20.0912 C.ar    1  UNL1        0.0214
     12 C          -8.9667  -18.9635   20.9257 C.ar    1  UNL1        0.1395
     13 S         -10.2056  -18.2988   20.4031 S.O2    1  UNL1        0.0133
     14 C         -11.4446  -17.6340   19.8806 C.3     1  UNL1        0.1817
     15 O         -10.7338  -19.6311   19.9605 O.2     1  UNL1       -0.1685
     16 O          -9.6774  -16.9664   20.8458 O.2     1  UNL1       -0.1685
     17 N          -7.7734  -16.0376   25.4119 N.3     1  UNL1       -0.2971
     18 H          -8.1669  -15.2473   25.9227 H       1  UNL1        0.1233
     19 C          -5.8691  -15.6161   26.2460 C.3     1  UNL1        0.0162
     20 C          -6.4522  -15.5847   24.8644 C.3     1  UNL1        0.0476
     21 C          -7.0354  -15.5533   23.4828 C.3     1  UNL1        0.0162
     22 C          -5.1312  -15.1318   24.3171 C.3     1  UNL1        0.0602
     23 C          -4.3236  -16.0515   23.4500 C.2     1  UNL1        0.0599
     24 C          -4.3712  -17.5506   23.4703 C.2     1  UNL1        0.0159
     25 C          -3.4036  -18.0592   22.4431 C.2     1  UNL1        0.0150
     26 C          -3.0271  -19.4480   22.0198 C.2     1  UNL1        0.0009
     27 C          -2.0049  -19.6521   20.9412 C.2     1  UNL1       -0.0041
     28 C          -1.3591  -18.4673   20.2860 C.2     1  UNL1       -0.0198
     29 C          -1.7357  -17.0784   20.7094 C.3     1  UNL1        0.0717
     30 C          -2.7579  -16.8744   21.7879 C.2     1  UNL1        0.0630
     31 N          -3.3265  -15.6336   22.4102 N.2     1  UNL1       -0.2536
@<TRIPOS>BOND
     1    19    20    1
     2    20    21    1
     3    20    22    1
     4    22    23    1
     5    23    24    2
     6    24    25    1
     7    25    26    2
     8    26    27    1
     9    27    28    2
    10    28    29    1
    11    29    30    1
    12    30    31    2
    13    20    17    1
    14    17     1    1
    15     1     2    1
    16     2     3    1
    17     2     5    1
    18     5     6    1
    19     6     7    1
    20     7     8   ar
    21     8     9   ar
    22     9    10   ar
    23    10    11   ar
    24    11    12   ar
    25    12    13    1
    26    13    14    1
    27    13    15    2
    28    13    16    2
    29    31    23    1
    30    12     7   ar
    31    30    25    1
    32    17    18    1
    33     3     4    1
@<TRIPOS>MOLECULE
*****
 31 33 0 0 0
SMALL
GASTEIGER

@<TRIPOS>ATOM
      1 C          -4.9716  -20.3221   20.4905 C.3     1  UNL1        0.1020
      2 C          -6.1182  -19.4325   20.1111 C.3     1  UNL1        0.1697
      3 O          -5.8640  -18.1640   19.3519 O.3     1  UNL1       -0.3793
      4 H          -4.9125  -18.0705   19.1880 H       1  UNL1        0.2106
      5 C          -7.5190  -19.8112   20.4910 C.3     1  UNL1        0.2358
      6 O          -8.5662  -18.7491   20.6496 O.3     1  UNL1       -0.4715
      7 C          -9.3883  -18.6876   21.9028 C.ar    1  UNL1        0.1556
      8 C          -9.0244  -19.5415   23.0811 C.ar    1  UNL1        0.0382
      9 C          -9.8465  -19.4799   24.3343 C.ar    1  UNL1        0.0032
     10 C         -11.0323  -18.5645   24.4091 C.ar    1  UNL1        0.0015
     11 C         -11.3962  -17.7106   23.2308 C.ar    1  UNL1        0.0214
     12 C         -10.5742  -17.7721   21.9776 C.ar    1  UNL1        0.1395
     13 S         -10.9381  -16.9183   20.7993 S.O2    1  UNL1        0.0133
     14 C         -11.3019  -16.0644   19.6209 C.3     1  UNL1        0.1817
     15 O         -12.0619  -17.8548   20.4676 O.2     1  UNL1       -0.1685
     16 O          -9.8143  -15.9817   21.1309 O.2     1  UNL1       -0.1685
     17 N          -3.6107  -19.7348   20.7201 N.3     1  UNL1       -0.2971
     18 H          -3.0049  -20.5012   21.0136 H       1  UNL1        0.1233
     19 C          -2.7373  -17.8020   20.6796 C.3     1  UNL1        0.0162
     20 C          -3.4288  -18.6318   21.7204 C.3     1  UNL1        0.0476
     21 C          -4.1204  -19.4615   22.7611 C.3     1  UNL1        0.0162
     22 C          -3.2470  -17.5288   22.7205 C.3     1  UNL1        0.0602
     23 C          -4.4267  -17.0107   23.4885 C.2     1  UNL1        0.0599
     24 C          -4.4083  -16.5139   24.9037 C.2     1  UNL1        0.0159
     25 C          -5.8022  -16.0947   25.2660 C.2     1  UNL1        0.0150
     26 C          -6.3839  -15.5272   26.5268 C.2     1  UNL1        0.0009
     27 C          -7.8455  -15.1974   26.5962 C.2     1  UNL1       -0.0041
     28 C          -8.7254  -15.4351   25.4049 C.2     1  UNL1       -0.0198
     29 C          -8.1437  -16.0026   24.1442 C.3     1  UNL1        0.0717
     30 C          -6.6821  -16.3324   24.0747 C.2     1  UNL1        0.0630
     31 N          -5.8320  -16.8985   22.9762 N.2     1  UNL1       -0.2536
@<TRIPOS>BOND
     1    19    20    1
     2    20    21    1
     3    20    22    1
     4    22    23    1
     5    23    24    2
     6    24    25    1
     7    25    26    2
     8    26    27    1
     9    27    28    2
    10    28    29    1
    11    29    30    1
    12    30    31    2
    13    20    17    1
    14    17     1    1
    15     1     2    1
    16     2     3    1
    17     2     5    1
    18     5     6    1
    19     6     7    1
    20     7     8   ar
    21     8     9   ar
    22     9    10   ar
    23    10    11   ar
    24    11    12   ar
    25    12    13    1
    26    13    14    1
    27    13    15    2
    28    13    16    2
    29    31    23    1
    30    12     7   ar
    31    30    25    1
    32    17    18    1
    33     3     4    1
@<TRIPOS>MOLECULE
*****
 31 33 0 0 0
SMALL
GASTEIGER

@<TRIPOS>ATOM
      1 C          -7.7132  -14.5859   23.8891 C.3     1  UNL1        0.1020
      2 C          -8.2197  -15.9451   23.5068 C.3     1  UNL1        0.1697
      3 O          -7.7133  -16.6114   22.2620 O.3     1  UNL1       -0.3793
      4 H          -7.0694  -16.0327   21.8246 H       1  UNL1        0.2106
      5 C          -9.2325  -16.6379   24.3695 C.3     1  UNL1        0.2358
      6 O         -10.5902  -16.9612   23.8198 O.3     1  UNL1       -0.4715
      7 C         -10.7300  -17.4611   22.4124 C.ar    1  UNL1        0.1556
      8 C         -11.2139  -16.5383   21.3334 C.ar    1  UNL1        0.0382
      9 C         -11.3538  -17.0381   19.9261 C.ar    1  UNL1        0.0032
     10 C         -11.0097  -18.4607   19.5978 C.ar    1  UNL1        0.0015
     11 C         -10.5258  -19.3835   20.6768 C.ar    1  UNL1        0.0214
     12 C         -10.3859  -18.8837   22.0841 C.ar    1  UNL1        0.1395
     13 S          -9.9020  -19.8064   23.1632 S.O2    1  UNL1        0.0133
     14 C          -9.4181  -20.7292   24.2422 C.3     1  UNL1        0.1817
     15 O         -11.3162  -20.0187   23.6159 O.2     1  UNL1       -0.1685
     16 O          -8.4878  -19.5942   22.7105 O.2     1  UNL1       -0.1685
     17 N          -6.5539  -14.4553   24.8318 N.3     1  UNL1       -0.2971
     18 H          -6.1403  -13.5380   24.6647 H       1  UNL1        0.1233
     19 C          -5.0429  -14.9473   23.4265 C.3     1  UNL1        0.0162
     20 C          -5.4329  -15.4509   24.7846 C.3     1  UNL1        0.0476
     21 C          -5.8228  -15.9545   26.1426 C.3     1  UNL1        0.0162
     22 C          -4.3119  -16.4464   24.7372 C.3     1  UNL1        0.0602
     23 C          -4.2346  -17.4360   23.6126 C.2     1  UNL1        0.0599
     24 C          -2.9773  -17.9739   22.9963 C.2     1  UNL1        0.0159
     25 C          -3.3667  -18.9318   21.9096 C.2     1  UNL1        0.0150
     26 C          -2.5508  -19.7617   20.9634 C.2     1  UNL1        0.0009
     27 C          -3.2329  -20.6457   19.9618 C.2     1  UNL1       -0.0041
     28 C          -4.7309  -20.6999   19.9065 C.2     1  UNL1       -0.0198
     29 C          -5.5468  -19.8699   20.8528 C.3     1  UNL1        0.0717
     30 C          -4.8647  -18.9859   21.8543 C.2     1  UNL1        0.0630
     31 N          -5.4011  -18.0615   22.9068 N.2     1  UNL1       -0.2536
@<TRIPOS>BOND
     1    19    20    1
     2    20    21    1
     3    20    22    1
     4    22    23    1
     5    23    24    2
     6    24    25    1
     7    25    26    2
     8    26    27    1
     9    27    28    2
    10    28    29    1
    11    29    30    1
    12    30    31    2
    13    20    17    1
    14    17     1    1
    15     1     2    1
    16     2     3    1
    17     2     5    1
    18     5     6    1
    19     6     7    1
    20     7     8   ar
    21     8     9   ar
    22     9    10   ar
    23    10    11   ar
    24    11    12   ar
    25    12    13    1
    26    13    14    1
    27    13    15    2
    28    13    16    2
    29    31    23    1
    30    12     7   ar
    31    30    25    1
    32    17    18    1
    33     3     4    1
@<TRIPOS>MOLECULE
*****
 31 33 0 0 0
SMALL
GASTEIGER

@<TRIPOS>ATOM
      1 C          -4.8015  -15.9330   25.0901 C.3     1  UNL1        0.1020
      2 C          -4.1097  -17.2639   25.0747 C.3     1  UNL1        0.1697
      3 O          -3.6498  -17.8850   26.3603 O.3     1  UNL1       -0.3793
      4 H          -3.8758  -17.3006   27.1008 H       1  UNL1        0.2106
      5 C          -3.8779  -17.9737   23.7738 C.3     1  UNL1        0.2358
      6 O          -3.9414  -17.2129   22.4827 O.3     1  UNL1       -0.4715
      7 C          -2.8619  -17.3868   21.4558 C.ar    1  UNL1        0.1556
      8 C          -1.6884  -16.4527   21.4357 C.ar    1  UNL1        0.0382
      9 C          -0.6089  -16.6266   20.4089 C.ar    1  UNL1        0.0032
     10 C          -0.7029  -17.7345   19.4021 C.ar    1  UNL1        0.0015
     11 C          -1.8764  -18.6685   19.4222 C.ar    1  UNL1        0.0214
     12 C          -2.9559  -18.4947   20.4490 C.ar    1  UNL1        0.1395
     13 S          -4.1294  -19.4287   20.4691 S.O2    1  UNL1        0.0133
     14 C          -5.3029  -20.3628   20.4892 C.3     1  UNL1        0.1817
     15 O          -4.9397  -18.4272   19.7007 O.2     1  UNL1       -0.1685
     16 O          -3.3191  -20.4303   21.2375 O.2     1  UNL1       -0.1685
     17 N          -5.8933  -15.6667   26.0836 N.3     1  UNL1       -0.2971
     18 H          -5.8626  -16.4249   26.7652 H       1  UNL1        0.1233
     19 C          -6.8422  -15.2180   24.2401 C.3     1  UNL1        0.0162
     20 C          -7.3164  -15.5563   25.6224 C.3     1  UNL1        0.0476
     21 C          -7.7907  -15.8947   27.0046 C.3     1  UNL1        0.0162
     22 C          -8.7395  -15.4460   25.1612 C.3     1  UNL1        0.0602
     23 C          -9.3059  -16.4714   24.2243 C.2     1  UNL1        0.0599
     24 C          -9.5692  -17.9120   24.5486 C.2     1  UNL1        0.0159
     25 C         -10.1345  -18.5672   23.3234 C.2     1  UNL1        0.0150
     26 C         -10.5820  -19.9731   23.0528 C.2     1  UNL1        0.0009
     27 C         -11.1156  -20.3432   21.7007 C.2     1  UNL1       -0.0041
     28 C         -11.2017  -19.3074   20.6192 C.2     1  UNL1       -0.0198
     29 C         -10.7543  -17.9015   20.8897 C.3     1  UNL1        0.0717
     30 C         -10.2207  -17.5314   22.2418 C.2     1  UNL1        0.0630
     31 N          -9.7085  -16.2362   22.7986 N.2     1  UNL1       -0.2536
@<TRIPOS>BOND
     1    19    20    1
     2    20    21    1
     3    20    22    1
     4    22    23    1
     5    23    24    2
     6    24    25    1
     7    25    26    2
     8    26    27    1
     9    27    28    2
    10    28    29    1
    11    29    30    1
    12    30    31    2
    13    20    17    1
    14    17     1    1
    15     1     2    1
    16     2     3    1
    17     2     5    1
    18     5     6    1
    19     6     7    1
    20     7     8   ar
    21     8     9   ar
    22     9    10   ar
    23    10    11   ar
    24    11    12   ar
    25    12    13    1
    26    13    14    1
    27    13    15    2
    28    13    16    2
    29    31    23    1
    30    12     7   ar
    31    30    25    1
    32    17    18    1
    33     3     4    1
@<TRIPOS>MOLECULE
*****
 31 33 0 0 0
SMALL
GASTEIGER

@<TRIPOS>ATOM
      1 C          -7.9438  -14.9758   24.9430 C.3     1  UNL1        0.1020
      2 C          -8.7401  -15.4912   23.7809 C.3     1  UNL1        0.1697
      3 O         -10.1374  -15.9937   23.9932 O.3     1  UNL1       -0.3793
      4 H         -10.3698  -15.9161   24.9317 H       1  UNL1        0.2106
      5 C          -8.1390  -15.5042   22.4067 C.3     1  UNL1        0.2358
      6 O          -8.2407  -16.7349   21.5552 O.3     1  UNL1       -0.4715
      7 C          -9.1035  -17.8810   21.9936 C.ar    1  UNL1        0.1556
      8 C          -8.5544  -18.9189   22.9271 C.ar    1  UNL1        0.0382
      9 C          -9.4170  -20.0650   23.3654 C.ar    1  UNL1        0.0032
     10 C         -10.8288  -20.1732   22.8703 C.ar    1  UNL1        0.0015
     11 C         -11.3779  -19.1354   21.9368 C.ar    1  UNL1        0.0214
     12 C         -10.5152  -17.9893   21.4985 C.ar    1  UNL1        0.1395
     13 S         -11.0643  -16.9514   20.5650 S.O2    1  UNL1        0.0133
     14 C         -11.6134  -15.9136   19.6315 C.3     1  UNL1        0.1817
     15 O         -10.4861  -17.6953   19.3978 O.2     1  UNL1       -0.1685
     16 O         -11.6425  -16.2075   21.7322 O.2     1  UNL1       -0.1685
     17 N          -6.5436  -14.4810   24.7322 N.3     1  UNL1       -0.2971
     18 H          -6.5405  -13.9743   23.8470 H       1  UNL1        0.1233
     19 C          -5.7765  -15.9670   26.0374 C.3     1  UNL1        0.0162
     20 C          -5.4041  -15.4551   24.6775 C.3     1  UNL1        0.0476
     21 C          -5.0317  -14.9432   23.3176 C.3     1  UNL1        0.0162
     22 C          -4.2648  -16.4292   24.6229 C.3     1  UNL1        0.0602
     23 C          -4.1951  -17.4407   23.5174 C.2     1  UNL1        0.0599
     24 C          -2.9421  -17.9910   22.9035 C.2     1  UNL1        0.0159
     25 C          -3.3388  -18.9699   21.8385 C.2     1  UNL1        0.0150
     26 C          -2.5294  -19.8185   20.9033 C.2     1  UNL1        0.0009
     27 C          -3.2182  -20.7219   19.9238 C.2     1  UNL1       -0.0041
     28 C          -4.7166  -20.7765   19.8795 C.2     1  UNL1       -0.0198
     29 C          -5.5261  -19.9279   20.8147 C.3     1  UNL1        0.0717
     30 C          -4.8372  -19.0246   21.7941 C.2     1  UNL1        0.0630
     31 N          -5.3664  -18.0795   22.8318 N.2     1  UNL1       -0.2536
@<TRIPOS>BOND
     1    19    20    1
     2    20    21    1
     3    20    22    1
     4    22    23    1
     5    23    24    2
     6    24    25    1
     7    25    26    2
     8    26    27    1
     9    27    28    2
    10    28    29    1
    11    29    30    1
    12    30    31    2
    13    20    17    1
    14    17     1    1
    15     1     2    1
    16     2     3    1
    17     2     5    1
    18     5     6    1
    19     6     7    1
    20     7     8   ar
    21     8     9   ar
    22     9    10   ar
    23    10    11   ar
    24    11    12   ar
    25    12    13    1
    26    13    14    1
    27    13    15    2
    28    13    16    2
    29    31    23    1
    30    12     7   ar
    31    30    25    1
    32    17    18    1
    33     3     4    1
