@<TRIPOS>MOLECULE
*****
 19 21 0 0 0
SMALL
GASTEIGER

@<TRIPOS>ATOM
      1 C          -7.2566  -17.8196   22.0208 C.ar    1  UNL1        0.2075
      2 C          -7.5567  -16.9404   23.1985 C.ar    1  UNL1        0.1851
      3 O          -6.6652  -16.2248   24.1697 O.2     1  UNL1       -0.4471
      4 C          -7.5371  -15.4913   25.1453 C.ar    1  UNL1        0.1799
      5 C          -8.9673  -15.7534   24.7770 C.ar    1  UNL1        0.0468
      6 C          -8.9794  -16.6490   23.5738 C.ar    1  UNL1        0.0750
      7 C         -10.1022  -17.2369   22.7714 C.ar    1  UNL1        0.1479
      8 C          -9.8022  -18.1161   21.5938 C.ar    1  UNL1        0.1106
      9 C         -10.9250  -18.7040   20.7914 C.ar    1  UNL1        0.2043
     10 O         -12.3477  -18.4127   21.1667 O.2     1  UNL1       -0.2863
     11 C         -10.6250  -19.5832   19.6137 C.ar    1  UNL1        0.0752
     12 C          -9.2022  -19.8746   19.2383 C.ar    1  UNL1        0.1265
     13 C          -8.9022  -20.7538   18.0606 C.3     1  UNL1        0.0726
     14 O          -8.0795  -19.2867   20.0407 O.2     1  UNL1       -0.4543
     15 C          -8.3795  -18.4074   21.2185 C.ar    1  UNL1        0.1875
     16 C          -5.0852  -19.2100   22.3394 C.3     1  UNL1        0.2528
     17 O          -5.8339  -18.1109   21.6454 O.3     1  UNL1       -0.4654
     18 O         -11.5250  -16.9456   23.1468 O.3     1  UNL1       -0.4711
     19 C         -12.1785  -15.6777   22.6827 C.3     1  UNL1        0.2525
@<TRIPOS>BOND
     1    16    17    1
     2    17     1    1
     3     1     2   ar
     4     2     3   ar
     5     3     4   ar
     6     4     5   ar
     7     5     6   ar
     8     6     7   ar
     9     7    18    1
    10    18    19    1
    11     7     8   ar
    12     8     9   ar
    13     9    10    2
    14     9    11   ar
    15    11    12   ar
    16    12    13    1
    17    12    14   ar
    18    14    15   ar
    19    15     1   ar
    20     6     2   ar
    21    15     8   ar
@<TRIPOS>MOLECULE
*****
 19 21 0 0 0
SMALL
GASTEIGER

@<TRIPOS>ATOM
      1 C          -6.9102  -18.4908   21.2413 C.ar    1  UNL1        0.2075
      2 C          -7.8897  -19.1767   20.3357 C.ar    1  UNL1        0.1851
      3 O          -7.7034  -20.1438   19.2043 O.2     1  UNL1       -0.4471
      4 C          -9.0588  -20.4922   18.6646 C.ar    1  UNL1        0.1799
      5 C         -10.0828  -19.7405   19.4624 C.ar    1  UNL1        0.0468
      6 C          -9.3602  -18.9275   20.4952 C.ar    1  UNL1        0.0750
      7 C          -9.8513  -17.9924   21.5603 C.ar    1  UNL1        0.1479
      8 C          -8.8718  -17.3065   22.4659 C.ar    1  UNL1        0.1106
      9 C          -9.3630  -16.3713   23.5310 C.ar    1  UNL1        0.2043
     10 O         -10.8334  -16.1222   23.6905 O.2     1  UNL1       -0.2863
     11 C          -8.3835  -15.6854   24.4366 C.ar    1  UNL1        0.0752
     12 C          -6.9129  -15.9346   24.2772 C.ar    1  UNL1        0.1265
     13 C          -5.9334  -15.2487   25.1828 C.3     1  UNL1        0.0726
     14 O          -6.4218  -16.8697   23.2121 O.2     1  UNL1       -0.4543
     15 C          -7.4014  -17.5556   22.3065 C.ar    1  UNL1        0.1875
     16 C          -4.7098  -19.5870   22.0818 C.3     1  UNL1        0.2528
     17 O          -5.4396  -18.7399   21.0819 O.3     1  UNL1       -0.4654
     18 O         -11.3218  -17.7431   21.7198 O.3     1  UNL1       -0.4711
     19 C         -12.0575  -16.9202   20.7042 C.3     1  UNL1        0.2525
@<TRIPOS>BOND
     1    16    17    1
     2    17     1    1
     3     1     2   ar
     4     2     3   ar
     5     3     4   ar
     6     4     5   ar
     7     5     6   ar
     8     6     7   ar
     9     7    18    1
    10    18    19    1
    11     7     8   ar
    12     8     9   ar
    13     9    10    2
    14     9    11   ar
    15    11    12   ar
    16    12    13    1
    17    12    14   ar
    18    14    15   ar
    19    15     1   ar
    20     6     2   ar
    21    15     8   ar
@<TRIPOS>MOLECULE
*****
 19 21 0 0 0
SMALL
GASTEIGER

@<TRIPOS>ATOM
      1 C         -10.2993  -17.9027   22.8792 C.ar    1  UNL1        0.2075
      2 C         -10.1252  -18.6291   21.5785 C.ar    1  UNL1        0.1851
      3 O         -11.1018  -19.3327   20.6833 O.2     1  UNL1       -0.4471
      4 C         -10.3445  -19.8773   19.5086 C.ar    1  UNL1        0.1799
      5 C          -8.9000  -19.5102   19.6777 C.ar    1  UNL1        0.0468
      6 C          -8.7644  -18.7388   20.9570 C.ar    1  UNL1        0.0750
      7 C          -7.5778  -18.1220   21.6362 C.ar    1  UNL1        0.1479
      8 C          -7.7518  -17.3956   22.9370 C.ar    1  UNL1        0.1106
      9 C          -6.5651  -16.7789   23.6162 C.ar    1  UNL1        0.2043
     10 O          -5.2044  -16.8886   22.9947 O.2     1  UNL1       -0.2863
     11 C          -6.7392  -16.0525   24.9170 C.ar    1  UNL1        0.0752
     12 C          -8.0999  -15.9427   25.5385 C.ar    1  UNL1        0.1265
     13 C          -8.2740  -15.2163   26.8393 C.3     1  UNL1        0.0726
     14 O          -9.2866  -16.5595   24.8593 O.2     1  UNL1       -0.4543
     15 C          -9.1125  -17.2859   23.5584 C.ar    1  UNL1        0.1875
     16 C         -12.7576  -17.0680   22.7798 C.3     1  UNL1        0.2528
     17 O         -11.6601  -17.7929   23.5008 O.3     1  UNL1       -0.4654
     18 O          -6.2170  -18.2317   21.0147 O.3     1  UNL1       -0.4711
     19 C          -5.5301  -19.5633   20.9435 C.3     1  UNL1        0.2525
@<TRIPOS>BOND
     1    16    17    1
     2    17     1    1
     3     1     2   ar
     4     2     3   ar
     5     3     4   ar
     6     4     5   ar
     7     5     6   ar
     8     6     7   ar
     9     7    18    1
    10    18    19    1
    11     7     8   ar
    12     8     9   ar
    13     9    10    2
    14     9    11   ar
    15    11    12   ar
    16    12    13    1
    17    12    14   ar
    18    14    15   ar
    19    15     1   ar
    20     6     2   ar
    21    15     8   ar
@<TRIPOS>MOLECULE
*****
 19 21 0 0 0
SMALL
GASTEIGER

@<TRIPOS>ATOM
      1 C          -7.7924  -18.6181   21.7372 C.ar    1  UNL1        0.2075
      2 C          -9.1255  -18.0366   22.1042 C.ar    1  UNL1        0.1851
      3 O         -10.5234  -18.3929   21.6933 O.2     1  UNL1       -0.4471
      4 C         -11.4643  -17.4536   22.3878 C.ar    1  UNL1        0.1799
      5 C         -10.6480  -16.5168   23.2280 C.ar    1  UNL1        0.0468
      6 C          -9.2025  -16.8771   23.0527 C.ar    1  UNL1        0.0750
      7 C          -7.9464  -16.2991   23.6342 C.ar    1  UNL1        0.1479
      8 C          -6.6133  -16.8807   23.2672 C.ar    1  UNL1        0.1106
      9 C          -5.3572  -16.3027   23.8488 C.ar    1  UNL1        0.2043
     10 O          -5.4342  -15.1433   24.7973 O.2     1  UNL1       -0.2863
     11 C          -4.0241  -16.8843   23.4818 C.ar    1  UNL1        0.0752
     12 C          -3.9470  -18.0438   22.5333 C.ar    1  UNL1        0.1265
     13 C          -2.6140  -18.6253   22.1663 C.3     1  UNL1        0.0726
     14 O          -5.2031  -18.6217   21.9518 O.2     1  UNL1       -0.4543
     15 C          -6.5363  -18.0401   22.3188 C.ar    1  UNL1        0.1875
     16 C          -8.2156  -19.6305   19.3822 C.3     1  UNL1        0.2528
     17 O          -7.7154  -19.7776   20.7887 O.3     1  UNL1       -0.4654
     18 O          -8.0233  -15.1397   24.5828 O.3     1  UNL1       -0.4711
     19 C          -8.5021  -15.3511   25.9885 C.3     1  UNL1        0.2525
@<TRIPOS>BOND
     1    16    17    1
     2    17     1    1
     3     1     2   ar
     4     2     3   ar
     5     3     4   ar
     6     4     5   ar
     7     5     6   ar
     8     6     7   ar
     9     7    18    1
    10    18    19    1
    11     7     8   ar
    12     8     9   ar
    13     9    10    2
    14     9    11   ar
    15    11    12   ar
    16    12    13    1
    17    12    14   ar
    18    14    15   ar
    19    15     1   ar
    20     6     2   ar
    21    15     8   ar
@<TRIPOS>MOLECULE
*****
 19 21 0 0 0
SMALL
GASTEIGER

@<TRIPOS>ATOM
      1 C          -8.3186  -16.4894   23.2111 C.ar    1  UNL1        0.2075
      2 C          -9.7190  -16.7583   22.7459 C.ar    1  UNL1        0.1851
      3 O         -11.0214  -16.0720   23.0338 O.2     1  UNL1       -0.4471
      4 C         -12.1008  -16.7917   22.2810 C.ar    1  UNL1        0.1799
      5 C         -11.4656  -17.9228   21.5279 C.ar    1  UNL1        0.0468
      6 C          -9.9936  -17.9022   21.8153 C.ar    1  UNL1        0.0750
      7 C          -8.8677  -18.7772   21.3497 C.ar    1  UNL1        0.1479
      8 C          -7.4672  -18.5083   21.8149 C.ar    1  UNL1        0.1106
      9 C          -6.3413  -19.3833   21.3493 C.ar    1  UNL1        0.2043
     10 O          -6.6159  -20.5271   20.4187 O.2     1  UNL1       -0.2863
     11 C          -4.9408  -19.1144   21.8145 C.ar    1  UNL1        0.0752
     12 C          -4.6662  -17.9705   22.7452 C.ar    1  UNL1        0.1265
     13 C          -3.2657  -17.7017   23.2103 C.3     1  UNL1        0.0726
     14 O          -5.7921  -17.0956   23.2107 O.2     1  UNL1       -0.4543
     15 C          -7.1926  -17.3645   22.7455 C.ar    1  UNL1        0.1875
     16 C          -8.3760  -15.4683   25.5994 C.3     1  UNL1        0.2528
     17 O          -8.0439  -15.3455   24.1418 O.3     1  UNL1       -0.4654
     18 O          -9.1422  -19.9210   20.4191 O.3     1  UNL1       -0.4711
     19 C          -9.6437  -19.6546   19.0307 C.3     1  UNL1        0.2525
@<TRIPOS>BOND
     1    16    17    1
     2    17     1    1
     3     1     2   ar
     4     2     3   ar
     5     3     4   ar
     6     4     5   ar
     7     5     6   ar
     8     6     7   ar
     9     7    18    1
    10    18    19    1
    11     7     8   ar
    12     8     9   ar
    13     9    10    2
    14     9    11   ar
    15    11    12   ar
    16    12    13    1
    17    12    14   ar
    18    14    15   ar
    19    15     1   ar
    20     6     2   ar
    21    15     8   ar
@<TRIPOS>MOLECULE
*****
 19 21 0 0 0
SMALL
GASTEIGER

@<TRIPOS>ATOM
      1 C          -6.7556  -18.9085   21.9750 C.ar    1  UNL1        0.2075
      2 C          -5.3235  -18.5578   22.2508 C.ar    1  UNL1        0.1851
      3 O          -4.0340  -19.1874   21.8140 O.2     1  UNL1       -0.4471
      4 C          -2.9070  -18.3940   22.4061 C.ar    1  UNL1        0.1799
      5 C          -3.4999  -17.2742   23.2088 C.ar    1  UNL1        0.0468
      6 C          -4.9934  -17.3754   23.1128 C.ar    1  UNL1        0.0750
      7 C          -6.0955  -16.5437   23.6990 C.ar    1  UNL1        0.1479
      8 C          -7.5276  -16.8944   23.4232 C.ar    1  UNL1        0.1106
      9 C          -8.6297  -16.0626   24.0095 C.ar    1  UNL1        0.2043
     10 O          -8.2997  -14.8803   24.8714 O.2     1  UNL1       -0.2863
     11 C         -10.0618  -16.4133   23.7337 C.ar    1  UNL1        0.0752
     12 C         -10.3919  -17.5957   22.8717 C.ar    1  UNL1        0.1265
     13 C         -11.8240  -17.9464   22.5959 C.3     1  UNL1        0.0726
     14 O          -9.2899  -18.4274   22.2855 O.2     1  UNL1       -0.4543
     15 C          -7.8577  -18.0767   22.5613 C.ar    1  UNL1        0.1875
     16 C          -7.5102  -19.8857   19.6891 C.3     1  UNL1        0.2528
     17 O          -7.0857  -20.0909   21.1131 O.3     1  UNL1       -0.4654
     18 O          -5.7655  -15.3613   24.5610 O.3     1  UNL1       -0.4711
     19 C          -5.2895  -15.5686   25.9683 C.3     1  UNL1        0.2525
@<TRIPOS>BOND
     1    16    17    1
     2    17     1    1
     3     1     2   ar
     4     2     3   ar
     5     3     4   ar
     6     4     5   ar
     7     5     6   ar
     8     6     7   ar
     9     7    18    1
    10    18    19    1
    11     7     8   ar
    12     8     9   ar
    13     9    10    2
    14     9    11   ar
    15    11    12   ar
    16    12    13    1
    17    12    14   ar
    18    14    15   ar
    19    15     1   ar
    20     6     2   ar
    21    15     8   ar
@<TRIPOS>MOLECULE
*****
 19 21 0 0 0
SMALL
GASTEIGER

@<TRIPOS>ATOM
      1 C          -7.7622  -17.1747   23.1024 C.ar    1  UNL1        0.2075
      2 C          -6.3183  -17.5655   22.9919 C.ar    1  UNL1        0.1851
      3 O          -5.1085  -17.1724   23.7868 O.2     1  UNL1       -0.4471
      4 C          -3.9227  -17.8877   23.2104 C.ar    1  UNL1        0.1799
      5 C          -4.3996  -18.7229   22.0593 C.ar    1  UNL1        0.0468
      6 C          -5.8802  -18.5238   21.9243 C.ar    1  UNL1        0.0750
      7 C          -6.8861  -19.0912   20.9671 C.ar    1  UNL1        0.1479
      8 C          -8.3300  -18.7004   21.0775 C.ar    1  UNL1        0.1106
      9 C          -9.3359  -19.2679   20.1203 C.ar    1  UNL1        0.2043
     10 O          -8.8978  -20.2261   19.0527 O.2     1  UNL1       -0.2863
     11 C         -10.7799  -18.8771   20.2307 C.ar    1  UNL1        0.0752
     12 C         -11.2180  -17.9188   21.2983 C.ar    1  UNL1        0.1265
     13 C         -12.6620  -17.5279   21.4088 C.3     1  UNL1        0.0726
     14 O         -10.2122  -17.3513   22.2555 O.2     1  UNL1       -0.4543
     15 C          -8.7681  -17.7422   22.1451 C.ar    1  UNL1        0.1875
     16 C          -7.5632  -14.8621   24.2696 C.3     1  UNL1        0.2528
     17 O          -8.2004  -16.2164   24.1700 O.3     1  UNL1       -0.4654
     18 O          -6.4480  -20.0495   19.8995 O.3     1  UNL1       -0.4711
     19 C          -5.8829  -21.3865   20.2777 C.3     1  UNL1        0.2525
@<TRIPOS>BOND
     1    16    17    1
     2    17     1    1
     3     1     2   ar
     4     2     3   ar
     5     3     4   ar
     6     4     5   ar
     7     5     6   ar
     8     6     7   ar
     9     7    18    1
    10    18    19    1
    11     7     8   ar
    12     8     9   ar
    13     9    10    2
    14     9    11   ar
    15    11    12   ar
    16    12    13    1
    17    12    14   ar
    18    14    15   ar
    19    15     1   ar
    20     6     2   ar
    21    15     8   ar
@<TRIPOS>MOLECULE
*****
 19 21 0 0 0
SMALL
GASTEIGER

@<TRIPOS>ATOM
      1 C          -8.1244  -16.7772   22.5932 C.ar    1  UNL1        0.2075
      2 C          -7.1827  -16.2077   23.6124 C.ar    1  UNL1        0.1851
      3 O          -7.3374  -15.1027   24.6149 O.2     1  UNL1       -0.4471
      4 C          -6.0476  -14.9788   25.3707 C.ar    1  UNL1        0.1799
      5 C          -5.0959  -16.0072   24.8353 C.ar    1  UNL1        0.0468
      6 C          -5.7975  -16.7667   23.7486 C.ar    1  UNL1        0.0750
      7 C          -5.3539  -17.8951   22.8655 C.ar    1  UNL1        0.1479
      8 C          -6.2956  -18.4646   21.8462 C.ar    1  UNL1        0.1106
      9 C          -5.8519  -19.5930   20.9631 C.ar    1  UNL1        0.2043
     10 O          -4.4667  -20.1520   21.0993 O.2     1  UNL1       -0.2863
     11 C          -6.7936  -20.1625   19.9438 C.ar    1  UNL1        0.0752
     12 C          -8.1789  -19.6035   19.8076 C.ar    1  UNL1        0.1265
     13 C          -9.1206  -20.1730   18.7883 C.3     1  UNL1        0.0726
     14 O          -8.6225  -18.4751   20.6907 O.2     1  UNL1       -0.4543
     15 C          -7.6808  -17.9056   21.7101 C.ar    1  UNL1        0.1875
     16 C         -10.6434  -16.8273   23.2276 C.3     1  UNL1        0.2528
     17 O          -9.5098  -16.2182   22.4569 O.3     1  UNL1       -0.4654
     18 O          -3.9686  -18.4541   23.0017 O.3     1  UNL1       -0.4711
     19 C          -2.7823  -17.6203   22.6178 C.3     1  UNL1        0.2525
@<TRIPOS>BOND
     1    16    17    1
     2    17     1    1
     3     1     2   ar
     4     2     3   ar
     5     3     4   ar
     6     4     5   ar
     7     5     6   ar
     8     6     7   ar
     9     7    18    1
    10    18    19    1
    11     7     8   ar
    12     8     9   ar
    13     9    10    2
    14     9    11   ar
    15    11    12   ar
    16    12    13    1
    17    12    14   ar
    18    14    15   ar
    19    15     1   ar
    20     6     2   ar
    21    15     8   ar
@<TRIPOS>MOLECULE
*****
 19 21 0 0 0
SMALL
GASTEIGER

@<TRIPOS>ATOM
      1 C          -8.6478  -15.7255   22.0405 C.ar    1  UNL1        0.2075
      2 C          -9.8532  -16.4662   21.5421 C.ar    1  UNL1        0.1851
      3 O         -10.5265  -16.5014   20.2022 O.2     1  UNL1       -0.4471
      4 C         -11.7006  -17.4301   20.2977 C.ar    1  UNL1        0.1799
      5 C         -11.7529  -17.9688   21.6967 C.ar    1  UNL1        0.0468
      6 C         -10.6111  -17.3731   22.4658 C.ar    1  UNL1        0.0750
      7 C         -10.1637  -17.5393   23.8878 C.ar    1  UNL1        0.1479
      8 C          -8.9583  -16.7986   24.3861 C.ar    1  UNL1        0.1106
      9 C          -8.5109  -16.9648   25.8082 C.ar    1  UNL1        0.2043
     10 O          -9.2688  -17.8716   26.7318 O.2     1  UNL1       -0.2863
     11 C          -7.3055  -16.2241   26.3066 C.ar    1  UNL1        0.0752
     12 C          -6.5475  -15.3172   25.3830 C.ar    1  UNL1        0.1265
     13 C          -5.3421  -14.5765   25.8814 C.3     1  UNL1        0.0726
     14 O          -6.9949  -15.1510   23.9610 O.2     1  UNL1       -0.4543
     15 C          -8.2004  -15.8918   23.4626 C.ar    1  UNL1        0.1875
     16 C          -8.6268  -13.8193   20.2754 C.3     1  UNL1        0.2528
     17 O          -7.8898  -14.8186   21.1169 O.3     1  UNL1       -0.4654
     18 O         -10.9216  -18.4462   24.8114 O.3     1  UNL1       -0.4711
     19 C         -10.7841  -19.9341   24.6813 C.3     1  UNL1        0.2525
@<TRIPOS>BOND
     1    16    17    1
     2    17     1    1
     3     1     2   ar
     4     2     3   ar
     5     3     4   ar
     6     4     5   ar
     7     5     6   ar
     8     6     7   ar
     9     7    18    1
    10    18    19    1
    11     7     8   ar
    12     8     9   ar
    13     9    10    2
    14     9    11   ar
    15    11    12   ar
    16    12    13    1
    17    12    14   ar
    18    14    15   ar
    19    15     1   ar
    20     6     2   ar
    21    15     8   ar
