@<TRIPOS>MOLECULE
*****
 20 22 0 0 0
SMALL
GASTEIGER

@<TRIPOS>ATOM
      1 C          -9.5486  -19.2762   20.2284 C.2     1  UNL1        0.1818
      2 O          -9.8102  -20.0429   18.9661 O.2     1  UNL1       -0.2903
      3 C          -8.1487  -19.1488   20.7521 C.2     1  UNL1        0.0183
      4 C          -7.8666  -18.2659   21.9314 C.2     1  UNL1        0.0005
      5 C          -6.4667  -18.1385   22.4551 C.2     1  UNL1        0.0186
      6 C          -5.3491  -18.8939   21.7994 C.2     1  UNL1        0.0777
      7 N          -3.8795  -18.9659   22.0913 N.2     1  UNL1       -0.2442
      8 C          -3.2534  -19.8933   21.0924 C.2     1  UNL1        0.0985
      9 C          -4.3360  -20.3945   20.1830 C.2     1  UNL1        0.0182
     10 C          -5.6312  -19.7768   20.6200 C.2     1  UNL1        0.0015
     11 C          -7.0310  -19.9042   20.0964 C.3     1  UNL1        0.0571
     12 C         -10.6868  -18.6370   20.9673 C.3     1  UNL1        0.0977
     13 C         -11.8342  -18.2701   21.8612 C.3     1  UNL1        0.0233
     14 C         -12.2616  -16.8741   21.5173 C.3     1  UNL1        0.0189
     15 C         -11.3786  -16.3782   20.4109 C.3     1  UNL1        0.0689
     16 N         -10.4053  -17.4677   20.0709 N.3     1  UNL1       -0.2938
     17 H          -9.4514  -17.1387   20.2203 H       1  UNL1        0.1235
     18 C         -10.7304  -19.9400   21.7092 C.3     1  UNL1        0.0219
     19 C          -9.7295  -20.4258   24.0570 C.3     1  UNL1        0.0001
     20 C         -10.8665  -19.9483   23.2030 C.3     1  UNL1        0.0018
@<TRIPOS>BOND
     1    19    20    1
     2    20    18    1
     3    18    12    1
     4    12     1    1
     5     1     2    2
     6     1     3    1
     7     3     4    2
     8     4     5    1
     9     5     6    2
    10     6     7    1
    11     7     8    2
    12     8     9    1
    13     9    10    2
    14    10    11    1
    15    12    13    1
    16    13    14    1
    17    14    15    1
    18    15    16    1
    19    16    12    1
    20    11     3    1
    21    10     6    1
    22    16    17    1
@<TRIPOS>MOLECULE
*****
 20 22 0 0 0
SMALL
GASTEIGER

@<TRIPOS>ATOM
      1 C         -10.6449  -16.8095   22.5749 C.2     1  UNL1        0.1818
      2 O         -11.7581  -15.8140   22.4356 O.2     1  UNL1       -0.2903
      3 C          -9.4146  -16.4546   23.3564 C.2     1  UNL1        0.0183
      4 C          -8.0902  -16.3447   22.6610 C.2     1  UNL1        0.0005
      5 C          -6.8599  -15.9897   23.4425 C.2     1  UNL1        0.0186
      6 C          -6.9544  -15.7447   24.9193 C.2     1  UNL1        0.0777
      7 N          -5.9214  -15.3813   25.9444 N.2     1  UNL1       -0.2442
      8 C          -6.6075  -15.2666   27.2734 C.2     1  UNL1        0.0985
      9 C          -8.0646  -15.5591   27.0696 C.2     1  UNL1        0.0182
     10 C          -8.2789  -15.8546   25.6147 C.2     1  UNL1        0.0015
     11 C          -9.5091  -16.2095   24.8332 C.3     1  UNL1        0.0571
     12 C         -10.7617  -18.1601   21.9328 C.3     1  UNL1        0.0977
     13 C         -10.9778  -19.6006   21.5742 C.3     1  UNL1        0.0233
     14 C         -10.6124  -19.7786   20.1304 C.3     1  UNL1        0.0189
     15 C         -10.1705  -18.4483   19.5966 C.3     1  UNL1        0.0689
     16 N         -10.2628  -17.4480   20.7105 N.3     1  UNL1       -0.2938
     17 H         -10.9116  -16.7037   20.4545 H       1  UNL1        0.1235
     18 C         -11.2362  -18.5899   23.2893 C.3     1  UNL1        0.0219
     19 C          -9.9079  -19.9315   25.0742 C.3     1  UNL1        0.0001
     20 C         -10.7877  -19.9027   23.8596 C.3     1  UNL1        0.0018
@<TRIPOS>BOND
     1    19    20    1
     2    20    18    1
     3    18    12    1
     4    12     1    1
     5     1     2    2
     6     1     3    1
     7     3     4    2
     8     4     5    1
     9     5     6    2
    10     6     7    1
    11     7     8    2
    12     8     9    1
    13     9    10    2
    14    10    11    1
    15    12    13    1
    16    13    14    1
    17    14    15    1
    18    15    16    1
    19    16    12    1
    20    11     3    1
    21    10     6    1
    22    16    17    1
@<TRIPOS>MOLECULE
*****
 20 22 0 0 0
SMALL
GASTEIGER

@<TRIPOS>ATOM
      1 C         -10.5780  -18.9334   21.4826 C.2     1  UNL1        0.1818
      2 O         -10.7475  -19.9275   20.3723 O.2     1  UNL1       -0.2903
      3 C          -9.2043  -18.4835   21.8834 C.2     1  UNL1        0.0183
      4 C          -8.9996  -17.1078   22.4448 C.2     1  UNL1        0.0005
      5 C          -7.6259  -16.6579   22.8456 C.2     1  UNL1        0.0186
      6 C          -6.4569  -17.5839   22.6850 C.2     1  UNL1        0.0777
      7 N          -4.9974  -17.4203   22.9903 N.2     1  UNL1       -0.2442
      8 C          -4.3002  -18.6950   22.6176 C.2     1  UNL1        0.0985
      9 C          -5.3286  -19.6464   22.0819 C.2     1  UNL1        0.0182
     10 C          -6.6616  -18.9598   22.1235 C.2     1  UNL1        0.0015
     11 C          -8.0353  -19.4096   21.7228 C.3     1  UNL1        0.0571
     12 C         -11.7822  -18.3890   22.1922 C.3     1  UNL1        0.0977
     13 C         -13.0568  -17.7243   22.6209 C.3     1  UNL1        0.0233
     14 C         -13.2562  -18.0027   24.0813 C.3     1  UNL1        0.0189
     15 C         -12.1049  -18.8394   24.5551 C.3     1  UNL1        0.0689
     16 N         -11.1939  -19.0781   23.3876 N.3     1  UNL1       -0.2938
     17 H         -11.1174  -20.0791   23.2073 H       1  UNL1        0.1235
     18 C         -12.1187  -17.8137   20.8484 C.3     1  UNL1        0.0219
     19 C         -11.4847  -15.7174   19.4506 C.3     1  UNL1        0.0001
     20 C         -12.1417  -16.3265   20.6536 C.3     1  UNL1        0.0018
@<TRIPOS>BOND
     1    19    20    1
     2    20    18    1
     3    18    12    1
     4    12     1    1
     5     1     2    2
     6     1     3    1
     7     3     4    2
     8     4     5    1
     9     5     6    2
    10     6     7    1
    11     7     8    2
    12     8     9    1
    13     9    10    2
    14    10    11    1
    15    12    13    1
    16    13    14    1
    17    14    15    1
    18    15    16    1
    19    16    12    1
    20    11     3    1
    21    10     6    1
    22    16    17    1
@<TRIPOS>MOLECULE
*****
 20 22 0 0 0
SMALL
GASTEIGER

@<TRIPOS>ATOM
      1 C          -9.7505  -16.2764   22.0838 C.2     1  UNL1        0.1818
      2 O          -9.6771  -15.5584   20.7690 O.2     1  UNL1       -0.2903
      3 C          -8.7193  -16.0129   23.1409 C.2     1  UNL1        0.0183
      4 C          -7.2853  -15.8040   22.7543 C.2     1  UNL1        0.0005
      5 C          -6.2541  -15.5404   23.8114 C.2     1  UNL1        0.0186
      6 C          -6.6572  -15.4859   25.2552 C.2     1  UNL1        0.0777
      7 N          -5.8692  -15.2467   26.5089 N.2     1  UNL1       -0.2442
      8 C          -6.8164  -15.3078   27.6704 C.2     1  UNL1        0.0985
      9 C          -8.1898  -15.5848   27.1345 C.2     1  UNL1        0.0182
     10 C          -8.0914  -15.6949   25.6418 C.2     1  UNL1        0.0015
     11 C          -9.1224  -15.9584   24.5847 C.3     1  UNL1        0.0571
     12 C         -10.8550  -17.2580   22.3417 C.3     1  UNL1        0.0977
     13 C         -11.7405  -18.4537   22.5326 C.3     1  UNL1        0.0233
     14 C         -13.1047  -17.9634   22.9175 C.3     1  UNL1        0.0189
     15 C         -13.0625  -16.4648   22.9646 C.3     1  UNL1        0.0689
     16 N         -11.6721  -16.0288   22.6088 N.3     1  UNL1       -0.2938
     17 H         -11.2651  -15.5040   23.3830 H       1  UNL1        0.1235
     18 C          -9.8069  -18.2821   22.0208 C.3     1  UNL1        0.0219
     19 C          -9.4386  -19.3619   19.6866 C.3     1  UNL1        0.0001
     20 C         -10.1007  -19.3716   21.0325 C.3     1  UNL1        0.0018
@<TRIPOS>BOND
     1    19    20    1
     2    20    18    1
     3    18    12    1
     4    12     1    1
     5     1     2    2
     6     1     3    1
     7     3     4    2
     8     4     5    1
     9     5     6    2
    10     6     7    1
    11     7     8    2
    12     8     9    1
    13     9    10    2
    14    10    11    1
    15    12    13    1
    16    13    14    1
    17    14    15    1
    18    15    16    1
    19    16    12    1
    20    11     3    1
    21    10     6    1
    22    16    17    1
@<TRIPOS>MOLECULE
*****
 20 22 0 0 0
SMALL
GASTEIGER

@<TRIPOS>ATOM
      1 C          -7.8841  -18.7871   21.1019 C.2     1  UNL1        0.1818
      2 O          -8.7502  -19.0309   19.9019 O.2     1  UNL1       -0.2903
      3 C          -6.4309  -19.1573   21.0659 C.2     1  UNL1        0.0183
      4 C          -5.9710  -20.3086   20.2216 C.2     1  UNL1        0.0005
      5 C          -4.5178  -20.6788   20.1855 C.2     1  UNL1        0.0186
      6 C          -3.5246  -19.8977   20.9939 C.2     1  UNL1        0.0777
      7 N          -2.0392  -20.0279   21.1570 N.2     1  UNL1       -0.2442
      8 C          -1.5811  -18.9570   22.1022 C.2     1  UNL1        0.0985
      9 C          -2.7834  -18.1650   22.5232 C.2     1  UNL1        0.0182
     10 C          -3.9846  -18.7464   21.8382 C.2     1  UNL1        0.0015
     11 C          -5.4377  -18.3762   21.8742 C.3     1  UNL1        0.0571
     12 C          -8.4711  -18.1730   22.3382 C.3     1  UNL1        0.0977
     13 C          -9.1164  -17.8563   23.6548 C.3     1  UNL1        0.0233
     14 C          -9.1134  -16.3662   23.8259 C.3     1  UNL1        0.0189
     15 C          -8.4663  -15.7619   22.6152 C.3     1  UNL1        0.0689
     16 N          -8.0693  -16.8785   21.6957 N.3     1  UNL1       -0.2938
     17 H          -7.0600  -16.8636   21.5487 H       1  UNL1        0.1235
     18 C          -8.7502  -19.5959   22.7223 C.3     1  UNL1        0.0219
     19 C         -11.1592  -20.2416   21.9944 C.3     1  UNL1        0.0001
     20 C         -10.1454  -20.0171   23.0770 C.3     1  UNL1        0.0018
@<TRIPOS>BOND
     1    19    20    1
     2    20    18    1
     3    18    12    1
     4    12     1    1
     5     1     2    2
     6     1     3    1
     7     3     4    2
     8     4     5    1
     9     5     6    2
    10     6     7    1
    11     7     8    2
    12     8     9    1
    13     9    10    2
    14    10    11    1
    15    12    13    1
    16    13    14    1
    17    14    15    1
    18    15    16    1
    19    16    12    1
    20    11     3    1
    21    10     6    1
    22    16    17    1
@<TRIPOS>MOLECULE
*****
 20 22 0 0 0
SMALL
GASTEIGER

@<TRIPOS>ATOM
      1 C          -9.5218  -19.1808   20.3910 C.2     1  UNL1        0.1818
      2 O          -9.6062  -19.9664   19.1160 O.2     1  UNL1       -0.2903
      3 C          -8.1891  -18.9373   21.0351 C.2     1  UNL1        0.0183
      4 C          -7.0395  -19.8578   20.7511 C.2     1  UNL1        0.0005
      5 C          -5.7068  -19.6143   21.3953 C.2     1  UNL1        0.0186
      6 C          -5.5240  -18.4502   22.3234 C.2     1  UNL1        0.0777
      7 N          -4.3366  -17.9618   23.0990 N.2     1  UNL1       -0.2442
      8 C          -4.7525  -16.7393   23.8623 C.2     1  UNL1        0.0985
      9 C          -6.1970  -16.4723   23.5585 C.2     1  UNL1        0.0182
     10 C          -6.6738  -17.5296   22.6074 C.2     1  UNL1        0.0015
     11 C          -8.0063  -17.7732   21.9632 C.3     1  UNL1        0.0571
     12 C         -10.7699  -18.6386   21.0219 C.3     1  UNL1        0.0977
     13 C         -12.0036  -18.3564   21.8274 C.3     1  UNL1        0.0233
     14 C         -12.5748  -17.0513   21.3584 C.3     1  UNL1        0.0189
     15 C         -11.6944  -16.5267   20.2631 C.3     1  UNL1        0.0689
     16 N         -10.5789  -17.5077   20.0551 N.3     1  UNL1       -0.2938
     17 H          -9.6819  -17.0534   20.2267 H       1  UNL1        0.1235
     18 C         -10.7001  -19.8828   21.8568 C.3     1  UNL1        0.0219
     19 C          -9.6663  -20.3625   24.1916 C.3     1  UNL1        0.0001
     20 C         -10.7685  -19.7875   23.3522 C.3     1  UNL1        0.0018
@<TRIPOS>BOND
     1    19    20    1
     2    20    18    1
     3    18    12    1
     4    12     1    1
     5     1     2    2
     6     1     3    1
     7     3     4    2
     8     4     5    1
     9     5     6    2
    10     6     7    1
    11     7     8    2
    12     8     9    1
    13     9    10    2
    14    10    11    1
    15    12    13    1
    16    13    14    1
    17    14    15    1
    18    15    16    1
    19    16    12    1
    20    11     3    1
    21    10     6    1
    22    16    17    1
@<TRIPOS>MOLECULE
*****
 20 22 0 0 0
SMALL
GASTEIGER

@<TRIPOS>ATOM
      1 C          -9.7056  -16.3980   21.6720 C.2     1  UNL1        0.1818
      2 O          -9.5925  -15.1228   20.8904 O.2     1  UNL1       -0.2903
      3 C          -9.2403  -16.4479   23.0972 C.2     1  UNL1        0.0183
      4 C          -9.9549  -17.3165   24.0895 C.2     1  UNL1        0.0005
      5 C          -9.4897  -17.3664   25.5147 C.2     1  UNL1        0.0186
      6 C          -8.3097  -16.5477   25.9475 C.2     1  UNL1        0.0777
      7 N          -7.6271  -16.3940   27.2743 N.2     1  UNL1       -0.2442
      8 C          -6.4906  -15.4304   27.1020 C.2     1  UNL1        0.0985
      9 C          -6.4707  -14.9885   25.6686 C.2     1  UNL1        0.0182
     10 C          -7.5950  -15.6791   24.9551 C.2     1  UNL1        0.0015
     11 C          -8.0603  -15.6292   23.5300 C.3     1  UNL1        0.0571
     12 C         -10.2839  -17.6233   21.0286 C.3     1  UNL1        0.0977
     13 C         -11.1370  -18.7092   20.4427 C.3     1  UNL1        0.0233
     14 C         -10.2287  -19.7915   19.9394 C.3     1  UNL1        0.0189
     15 C          -8.8143  -19.3746   20.2141 C.3     1  UNL1        0.0689
     16 N          -8.8483  -18.0346   20.8872 N.3     1  UNL1       -0.2938
     17 H          -8.3462  -17.3503   20.3216 H       1  UNL1        0.1235
     18 C         -11.5986  -16.9558   21.3044 C.3     1  UNL1        0.0219
     19 C         -13.2822  -17.6819   23.1451 C.3     1  UNL1        0.0001
     20 C         -12.7795  -17.7743   21.7349 C.3     1  UNL1        0.0018
@<TRIPOS>BOND
     1    19    20    1
     2    20    18    1
     3    18    12    1
     4    12     1    1
     5     1     2    2
     6     1     3    1
     7     3     4    2
     8     4     5    1
     9     5     6    2
    10     6     7    1
    11     7     8    2
    12     8     9    1
    13     9    10    2
    14    10    11    1
    15    12    13    1
    16    13    14    1
    17    14    15    1
    18    15    16    1
    19    16    12    1
    20    11     3    1
    21    10     6    1
    22    16    17    1
@<TRIPOS>MOLECULE
*****
 20 22 0 0 0
SMALL
GASTEIGER

@<TRIPOS>ATOM
      1 C          -8.7262  -17.2752   22.4179 C.2     1  UNL1        0.1818
      2 O          -8.4556  -15.9964   23.1535 O.2     1  UNL1       -0.2903
      3 C          -7.5854  -18.0843   21.8753 C.2     1  UNL1        0.0183
      4 C          -7.7951  -18.9720   20.6846 C.2     1  UNL1        0.0005
      5 C          -6.6543  -19.7810   20.1421 C.2     1  UNL1        0.0186
      6 C          -5.3040  -19.7022   20.7903 C.2     1  UNL1        0.0777
      7 N          -4.0009  -20.3775   20.4804 N.2     1  UNL1       -0.2442
      8 C          -2.9860  -19.9071   21.4797 C.2     1  UNL1        0.0985
      9 C          -3.6617  -18.9411   22.4072 C.2     1  UNL1        0.0182
     10 C          -5.0943  -18.8145   21.9811 C.2     1  UNL1        0.0015
     11 C          -6.2351  -18.0055   22.5236 C.3     1  UNL1        0.0571
     12 C         -10.1375  -17.7452   22.2247 C.3     1  UNL1        0.0977
     13 C         -11.4908  -18.3893   22.2858 C.3     1  UNL1        0.0233
     14 C         -12.3097  -17.8560   21.1478 C.3     1  UNL1        0.0189
     15 C         -11.4625  -16.8824   20.3835 C.3     1  UNL1        0.0689
     16 N         -10.1200  -16.8138   21.0490 N.3     1  UNL1       -0.2938
     17 H          -9.9384  -15.8611   21.3648 H       1  UNL1        0.1235
     18 C          -9.8599  -18.5783   23.4408 C.3     1  UNL1        0.0219
     19 C          -9.5419  -20.9536   24.4443 C.3     1  UNL1        0.0001
     20 C         -10.1761  -20.0446   23.4336 C.3     1  UNL1        0.0018
@<TRIPOS>BOND
     1    19    20    1
     2    20    18    1
     3    18    12    1
     4    12     1    1
     5     1     2    2
     6     1     3    1
     7     3     4    2
     8     4     5    1
     9     5     6    2
    10     6     7    1
    11     7     8    2
    12     8     9    1
    13     9    10    2
    14    10    11    1
    15    12    13    1
    16    13    14    1
    17    14    15    1
    18    15    16    1
    19    16    12    1
    20    11     3    1
    21    10     6    1
    22    16    17    1
@<TRIPOS>MOLECULE
*****
 20 22 0 0 0
SMALL
GASTEIGER

@<TRIPOS>ATOM
      1 C          -8.3020  -18.1825   22.0449 C.2     1  UNL1        0.1818
      2 O          -8.9789  -17.8738   20.7425 O.2     1  UNL1       -0.2903
      3 C          -6.8080  -18.3043   22.1034 C.2     1  UNL1        0.0183
      4 C          -6.0327  -17.5371   23.1331 C.2     1  UNL1        0.0005
      5 C          -4.5388  -17.6588   23.1916 C.2     1  UNL1        0.0186
      6 C          -3.8202  -18.5478   22.2204 C.2     1  UNL1        0.0777
      7 N          -2.3658  -18.8658   22.0374 N.2     1  UNL1       -0.2442
      8 C          -2.2422  -19.8295   20.8946 C.2     1  UNL1        0.0985
      9 C          -3.6202  -20.1072   20.3713 C.2     1  UNL1        0.0182
     10 C          -4.5955  -19.3151   21.1907 C.2     1  UNL1        0.0015
     11 C          -6.0894  -19.1933   21.1322 C.3     1  UNL1        0.0571
     12 C          -9.1189  -18.3695   23.2889 C.3     1  UNL1        0.0977
     13 C          -9.9632  -18.2443   24.5225 C.3     1  UNL1        0.0233
     14 C         -10.1834  -19.6212   25.0751 C.3     1  UNL1        0.0189
     15 C          -9.4752  -20.5974   24.1833 C.3     1  UNL1        0.0689
     16 N          -8.8173  -19.8238   23.0793 N.3     1  UNL1       -0.2938
     17 H          -9.1848  -20.1271   22.1775 H       1  UNL1        0.1235
     18 C          -9.2497  -16.8760   23.2385 C.3     1  UNL1        0.0219
     19 C          -8.0764  -15.1275   24.7604 C.3     1  UNL1        0.0001
     20 C          -9.2102  -16.0764   24.5070 C.3     1  UNL1        0.0018
@<TRIPOS>BOND
     1    19    20    1
     2    20    18    1
     3    18    12    1
     4    12     1    1
     5     1     2    2
     6     1     3    1
     7     3     4    2
     8     4     5    1
     9     5     6    2
    10     6     7    1
    11     7     8    2
    12     8     9    1
    13     9    10    2
    14    10    11    1
    15    12    13    1
    16    13    14    1
    17    14    15    1
    18    15    16    1
    19    16    12    1
    20    11     3    1
    21    10     6    1
    22    16    17    1
