@<TRIPOS>MOLECULE
*****
 59 64 0 0 0
SMALL
GASTEIGER

@<TRIPOS>ATOM
      1 N           4.0455   -1.7427   23.2000 N.3     1  UNL1       -0.2650
      2 C           3.6353   -1.5084   21.7764 C.3     1  UNL1        0.0900
      3 C           2.6307   -0.4431   21.4509 C.3     1  UNL1        0.0901
      4 N           2.0362    0.3878   22.5491 N.3     1  UNL1       -0.2621
      5 C           2.4464    0.1536   23.9728 C.3     1  UNL1        0.1510
      6 C           3.4510   -0.9117   24.2983 C.3     1  UNL1        0.0980
      7 C           1.8519    0.9845   25.0710 C.2     1  UNL1        0.2386
      8 O           2.5956    2.1768   25.5958 O.2     1  UNL1       -0.2736
      9 N           0.5137    0.6233   25.6444 N.am    1  UNL1       -0.2961
     10 H           0.0255   -0.1592   25.2999 H       1  UNL1        0.1497
     11 C          -0.0808    1.4543   26.7425 C.3     1  UNL1        0.1939
     12 C          -0.7970    2.7305   26.4135 C.3     1  UNL1        0.4154
     13 F          -1.5132    4.0068   26.0845 F       1  UNL1       -0.1682
     14 F          -0.2578    3.3559   27.6657 F       1  UNL1       -0.1682
     15 F          -1.3362    2.1051   25.1613 F       1  UNL1       -0.1682
     16 C           4.6056   -3.5932   22.3272 C.3     1  UNL1        0.0255
     17 C           5.0501   -2.8080   23.5255 C.3     1  UNL1        0.1147
     18 C           5.4945   -2.0228   24.7238 C.3     1  UNL1        0.0255
     19 C           6.0547   -3.8733   23.8510 C.ar    1  UNL1        0.2185
     20 N           6.9873   -4.5324   22.8784 N.ar    1  UNL1       -0.2094
     21 C           7.8121   -5.5330   23.6325 C.ar    1  UNL1        0.1392
     22 C           7.3892   -5.4922   25.0711 C.ar    1  UNL1        0.1683
     23 O           6.3031   -4.4665   25.2062 O.2     1  UNL1       -0.4370
     24 C           7.9534   -6.3301   26.1800 C.ar    1  UNL1        0.0659
     25 C           7.6389   -7.7952   26.2476 C.ar    1  UNL1        0.1028
     26 N           8.2030   -8.6331   27.3565 N.ar    1  UNL1       -0.2422
     27 C           9.0817   -8.0058   28.3978 C.ar    1  UNL1        0.0998
     28 C           9.3962   -6.5407   28.3303 C.ar    1  UNL1        0.0322
     29 C           8.8321   -5.7029   27.2214 C.ar    1  UNL1        0.0637
     30 CL          9.1466   -4.2377   27.1538 Cl      1  UNL1       -0.0820
     31 C           1.0316    1.4531   22.2236 C.3     1  UNL1        0.1021
     32 C           1.4869    2.8575   21.9585 C.3     1  UNL1        0.1269
     33 O           0.9708    3.9851   22.8025 O.3     1  UNL1       -0.3830
     34 H           0.3574    3.6363   23.4680 H       1  UNL1        0.2104
     35 C           2.4583    3.1344   20.8496 C.3     1  UNL1        0.0401
     36 C           2.1009    2.7859   19.4351 C.3     1  UNL1        0.0833
     37 C           0.6606    2.6990   19.0250 C.2     1  UNL1        0.2226
     38 O           0.0775    1.3810   18.6091 O.2     1  UNL1       -0.2751
     39 N          -0.1965    3.9300   19.0309 N.am    1  UNL1       -0.2999
     40 H           0.1863    4.7950   19.3039 H       1  UNL1        0.1498
     41 C          -1.6367    3.8431   18.6209 C.3     1  UNL1        0.1278
     42 C          -2.7066    3.7090   19.6636 C.ar    1  UNL1        0.0320
     43 C          -2.3363    3.6618   21.1165 C.ar    1  UNL1        0.0004
     44 C          -3.4062    3.5278   22.1592 C.ar    1  UNL1       -0.0001
     45 C          -4.8464    3.4409   21.7491 C.ar    1  UNL1        0.0031
     46 C          -5.2168    3.4880   20.2964 C.ar    1  UNL1        0.0366
     47 C          -4.1468    3.6221   19.2535 C.ar    1  UNL1        0.1362
     48 O          -4.5172    3.6692   17.8008 O.3     1  UNL1       -0.4730
     49 C          -3.4473    3.8033   16.7581 C.3     1  UNL1        0.2364
     50 C          -2.0070    3.8902   17.1681 C.3     1  UNL1        0.1762
     51 O          -0.9371    4.0243   16.1253 O.3     1  UNL1       -0.3788
     52 H          -1.3438    4.0392   15.2448 H       1  UNL1        0.2106
     53 C           3.1838    2.5244   18.4306 C.3     1  UNL1        0.0355
     54 C           3.8979    1.2053   18.4239 C.ar    1  UNL1       -0.0217
     55 C           3.2758    0.0191   17.7485 C.ar    1  UNL1       -0.0043
     56 C           3.9899   -1.3000   17.7419 C.ar    1  UNL1       -0.0003
     57 C           5.3260   -1.4329   18.4105 C.ar    1  UNL1       -0.0000
     58 C           5.9481   -0.2468   19.0858 C.ar    1  UNL1       -0.0003
     59 C           5.2340    1.0723   19.0925 C.ar    1  UNL1       -0.0043
@<TRIPOS>BOND
     1    16    17    1
     2    17    18    1
     3    17    19    1
     4    19    20   ar
     5    20    21   ar
     6    21    22   ar
     7    22    24    1
     8    24    25   ar
     9    25    26   ar
    10    26    27   ar
    11    27    28   ar
    12    28    29   ar
    13    29    30    1
    14    22    23   ar
    15    17     1    1
    16     1     2    1
    17     2     3    1
    18     3     4    1
    19     4    31    1
    20    31    32    1
    21    32    33    1
    22    32    35    1
    23    36    35    1
    24    36    53    1
    25    53    54    1
    26    54    55   ar
    27    55    56   ar
    28    56    57   ar
    29    57    58   ar
    30    58    59   ar
    31    36    37    1
    32    37    38    2
    33    37    39   am
    34    41    39    1
    35    41    42    1
    36    42    43   ar
    37    43    44   ar
    38    44    45   ar
    39    45    46   ar
    40    46    47   ar
    41    47    48    1
    42    48    49    1
    43    49    50    1
    44    50    51    1
    45     4     5    1
    46     5     7    1
    47     7     8    2
    48     7     9   am
    49     9    11    1
    50    11    12    1
    51    12    13    1
    52    12    14    1
    53    12    15    1
    54     5     6    1
    55    23    19   ar
    56     6     1    1
    57    29    24   ar
    58    59    54   ar
    59    50    41    1
    60    47    42   ar
    61    33    34    1
    62    39    40    1
    63    51    52    1
    64     9    10    1
@<TRIPOS>MOLECULE
*****
 59 64 0 0 0
SMALL
GASTEIGER

@<TRIPOS>ATOM
      1 N           7.8679   -5.4963   25.2869 N.3     1  UNL1       -0.2650
      2 C           8.2138   -4.2640   26.0691 C.3     1  UNL1        0.0900
      3 C           8.2842   -2.9335   25.3801 C.3     1  UNL1        0.0901
      4 N           8.0088   -2.8351   23.9089 N.3     1  UNL1       -0.2621
      5 C           7.6629   -4.0674   23.1266 C.3     1  UNL1        0.1510
      6 C           7.5925   -5.3980   23.8156 C.3     1  UNL1        0.0980
      7 C           7.3874   -3.9691   21.6555 C.2     1  UNL1        0.2386
      8 O           8.5264   -3.8802   20.6835 O.2     1  UNL1       -0.2736
      9 N           5.9729   -3.9597   21.1562 N.am    1  UNL1       -0.2961
     10 H           5.2254   -4.0181   21.7941 H       1  UNL1        0.1497
     11 C           5.6975   -3.8614   19.6850 C.3     1  UNL1        0.1939
     12 C           4.3150   -4.1166   19.1622 C.3     1  UNL1        0.4154
     13 F           2.9323   -4.3718   18.6394 F       1  UNL1       -0.1682
     14 F           3.9644   -4.8270   20.4359 F       1  UNL1       -0.1682
     15 F           4.6655   -3.4061   17.8885 F       1  UNL1       -0.1682
     16 C           6.8261   -6.2611   26.9690 C.3     1  UNL1        0.0255
     17 C           7.7975   -6.8268   25.9758 C.3     1  UNL1        0.1147
     18 C           8.7689   -7.3925   24.9827 C.3     1  UNL1        0.0255
     19 C           7.7271   -8.1574   26.6648 C.ar    1  UNL1        0.2185
     20 N           8.8574   -8.8455   27.3711 N.ar    1  UNL1       -0.2094
     21 C           8.3429  -10.1468   27.9112 C.ar    1  UNL1        0.1392
     22 C           6.8945  -10.2630   27.5387 C.ar    1  UNL1        0.1683
     23 O           6.5138   -9.0335   26.7684 O.2     1  UNL1       -0.4370
     24 C           5.9862  -11.4077   27.8772 C.ar    1  UNL1        0.0659
     25 C           6.4967  -12.5518   28.7021 C.ar    1  UNL1        0.1028
     26 N           5.5884  -13.6965   29.0405 N.ar    1  UNL1       -0.2422
     27 C           4.1695  -13.6972   28.5540 C.ar    1  UNL1        0.0998
     28 C           3.6590  -12.5531   27.7291 C.ar    1  UNL1        0.0322
     29 C           4.5673  -11.4084   27.3906 C.ar    1  UNL1        0.0637
     30 CL          4.0567  -10.2644   26.5657 Cl      1  UNL1       -0.0820
     31 C           8.0792   -1.5046   23.2200 C.3     1  UNL1        0.1021
     32 C           6.9427   -0.5338   23.3458 C.3     1  UNL1        0.1269
     33 O           6.9373    0.4747   24.4561 O.3     1  UNL1       -0.3830
     34 H           7.7343    0.3636   24.9977 H       1  UNL1        0.2104
     35 C           5.8117   -0.5715   22.3612 C.3     1  UNL1        0.0401
     36 C           4.4389   -0.9754   22.8111 C.3     1  UNL1        0.0833
     37 C           3.9926   -0.6827   24.2129 C.2     1  UNL1        0.2226
     38 O           3.9177   -1.7895   25.2226 O.2     1  UNL1       -0.2751
     39 N           3.6214    0.7166   24.6051 N.am    1  UNL1       -0.2999
     40 H           3.6706    1.4430   23.9424 H       1  UNL1        0.1498
     41 C           3.1751    1.0093   26.0069 C.3     1  UNL1        0.1278
     42 C           1.7564    1.4176   26.2725 C.ar    1  UNL1        0.0320
     43 C           0.7839    1.5333   25.1363 C.ar    1  UNL1        0.0004
     44 C          -0.6348    1.9416   25.4019 C.ar    1  UNL1       -0.0001
     45 C          -1.0811    2.2342   26.8037 C.ar    1  UNL1        0.0031
     46 C          -0.1087    2.1186   27.9400 C.ar    1  UNL1        0.0366
     47 C           1.3101    1.7103   27.6744 C.ar    1  UNL1        0.1362
     48 O           2.2825    1.5946   28.8106 O.3     1  UNL1       -0.4730
     49 C           3.7012    1.1863   28.5450 C.3     1  UNL1        0.2364
     50 C           4.1474    0.8937   27.1431 C.3     1  UNL1        0.1762
     51 O           5.5662    0.4854   26.8776 O.3     1  UNL1       -0.3788
     52 H           6.0572    0.4597   27.7137 H       1  UNL1        0.2106
     53 C           3.5124   -1.6720   21.8590 C.3     1  UNL1        0.0355
     54 C           2.8740   -0.9063   20.7383 C.ar    1  UNL1       -0.0217
     55 C           1.4533   -0.4409   20.8617 C.ar    1  UNL1       -0.0043
     56 C           0.8149    0.3249   19.7410 C.ar    1  UNL1       -0.0003
     57 C           1.5971    0.6252   18.4968 C.ar    1  UNL1       -0.0000
     58 C           3.0177    0.1598   18.3734 C.ar    1  UNL1       -0.0003
     59 C           3.6562   -0.6060   19.4941 C.ar    1  UNL1       -0.0043
@<TRIPOS>BOND
     1    16    17    1
     2    17    18    1
     3    17    19    1
     4    19    20   ar
     5    20    21   ar
     6    21    22   ar
     7    22    24    1
     8    24    25   ar
     9    25    26   ar
    10    26    27   ar
    11    27    28   ar
    12    28    29   ar
    13    29    30    1
    14    22    23   ar
    15    17     1    1
    16     1     2    1
    17     2     3    1
    18     3     4    1
    19     4    31    1
    20    31    32    1
    21    32    33    1
    22    32    35    1
    23    36    35    1
    24    36    53    1
    25    53    54    1
    26    54    55   ar
    27    55    56   ar
    28    56    57   ar
    29    57    58   ar
    30    58    59   ar
    31    36    37    1
    32    37    38    2
    33    37    39   am
    34    41    39    1
    35    41    42    1
    36    42    43   ar
    37    43    44   ar
    38    44    45   ar
    39    45    46   ar
    40    46    47   ar
    41    47    48    1
    42    48    49    1
    43    49    50    1
    44    50    51    1
    45     4     5    1
    46     5     7    1
    47     7     8    2
    48     7     9   am
    49     9    11    1
    50    11    12    1
    51    12    13    1
    52    12    14    1
    53    12    15    1
    54     5     6    1
    55    23    19   ar
    56     6     1    1
    57    29    24   ar
    58    59    54   ar
    59    50    41    1
    60    47    42   ar
    61    33    34    1
    62    39    40    1
    63    51    52    1
    64     9    10    1
@<TRIPOS>MOLECULE
*****
 59 64 0 0 0
SMALL
GASTEIGER

@<TRIPOS>ATOM
      1 N           7.7776   -5.4728   25.3594 N.3     1  UNL1       -0.2650
      2 C           8.1030   -4.2462   26.1590 C.3     1  UNL1        0.0900
      3 C           8.1584   -2.9060   25.4876 C.3     1  UNL1        0.0901
      4 N           7.8885   -2.7924   24.0165 N.3     1  UNL1       -0.2621
      5 C           7.5630   -4.0191   23.2168 C.3     1  UNL1        0.1510
      6 C           7.5076   -5.3593   23.8882 C.3     1  UNL1        0.0980
      7 C           7.2931   -3.9055   21.7457 C.2     1  UNL1        0.2386
      8 O           8.4359   -3.8261   20.7773 O.2     1  UNL1       -0.2736
      9 N           5.8802   -3.8713   21.2428 N.am    1  UNL1       -0.2961
     10 H           5.1301   -3.9235   21.8784 H       1  UNL1        0.1497
     11 C           5.6102   -3.7578   19.7717 C.3     1  UNL1        0.1939
     12 C           4.2012   -3.8183   19.2610 C.3     1  UNL1        0.4154
     13 F           2.7921   -3.8789   18.7502 F       1  UNL1       -0.1682
     14 F           4.5429   -2.8152   18.1995 F       1  UNL1       -0.1682
     15 F           3.8595   -4.8215   20.3225 F       1  UNL1       -0.1682
     16 C           6.9794   -6.2049   27.1833 C.3     1  UNL1        0.0255
     17 C           7.7222   -6.8130   26.0308 C.3     1  UNL1        0.1147
     18 C           8.4650   -7.4212   24.8782 C.3     1  UNL1        0.0255
     19 C           7.6668   -8.1532   26.7022 C.ar    1  UNL1        0.2185
     20 N           8.8042   -8.8366   27.4018 N.ar    1  UNL1       -0.2094
     21 C           8.3046  -10.1511   27.9239 C.ar    1  UNL1        0.1392
     22 C           6.8585  -10.2801   27.5470 C.ar    1  UNL1        0.1683
     23 O           6.4642   -9.0454   26.7920 O.2     1  UNL1       -0.4370
     24 C           5.9636  -11.4401   27.8687 C.ar    1  UNL1        0.0659
     25 C           6.4872  -12.5895   28.6779 C.ar    1  UNL1        0.1028
     26 N           5.5924  -13.7496   28.9995 N.ar    1  UNL1       -0.2422
     27 C           4.1739  -13.7602   28.5120 C.ar    1  UNL1        0.0998
     28 C           3.6502  -12.6109   27.7028 C.ar    1  UNL1        0.0322
     29 C           4.5451  -11.4508   27.3812 C.ar    1  UNL1        0.0637
     30 CL          4.0214  -10.3014   26.5720 Cl      1  UNL1       -0.0820
     31 C           7.9439   -1.4523   23.3451 C.3     1  UNL1        0.1021
     32 C           6.7125   -0.5989   23.2712 C.3     1  UNL1        0.1269
     33 O           6.7232    0.6649   22.4634 O.3     1  UNL1       -0.3830
     34 H           7.5962    0.7814   22.0569 H       1  UNL1        0.2104
     35 C           5.4704   -1.0094   24.0051 C.3     1  UNL1        0.0401
     36 C           4.1215   -0.7272   23.4129 C.3     1  UNL1        0.0833
     37 C           3.2537    0.3457   24.0010 C.2     1  UNL1        0.2226
     38 O           3.8322    1.6963   24.3035 O.2     1  UNL1       -0.2751
     39 N           1.8076    0.0681   24.2865 N.am    1  UNL1       -0.2999
     40 H           1.4280   -0.8183   24.0880 H       1  UNL1        0.1498
     41 C           0.9398    1.1410   24.8746 C.3     1  UNL1        0.1278
     42 C           0.1691    2.0600   23.9738 C.ar    1  UNL1        0.0320
     43 C           0.2662    1.9061   22.4848 C.ar    1  UNL1        0.0004
     44 C          -0.5045    2.8250   21.5840 C.ar    1  UNL1       -0.0001
     45 C          -1.3723    3.8979   22.1721 C.ar    1  UNL1        0.0031
     46 C          -1.4693    4.0519   23.6609 C.ar    1  UNL1        0.0366
     47 C          -0.6986    3.1329   24.5618 C.ar    1  UNL1        0.1362
     48 O          -0.7957    3.2869   26.0507 O.3     1  UNL1       -0.4730
     49 C          -0.0250    2.3680   26.9515 C.3     1  UNL1        0.2364
     50 C           0.8428    1.2950   26.3635 C.3     1  UNL1        0.1762
     51 O           1.6135    0.3760   27.2644 O.3     1  UNL1       -0.3788
     52 H           1.4400    0.6098   28.1897 H       1  UNL1        0.2106
     53 C           3.6403   -1.5180   22.2325 C.3     1  UNL1        0.0355
     54 C           3.1991   -0.8108   20.9855 C.ar    1  UNL1       -0.0217
     55 C           4.2084   -0.1161   20.1202 C.ar    1  UNL1       -0.0043
     56 C           3.7672    0.5911   18.8731 C.ar    1  UNL1       -0.0003
     57 C           2.3167    0.6037   18.4913 C.ar    1  UNL1       -0.0000
     58 C           1.3074   -0.0909   19.3566 C.ar    1  UNL1       -0.0003
     59 C           1.7485   -0.7982   20.6037 C.ar    1  UNL1       -0.0043
@<TRIPOS>BOND
     1    16    17    1
     2    17    18    1
     3    17    19    1
     4    19    20   ar
     5    20    21   ar
     6    21    22   ar
     7    22    24    1
     8    24    25   ar
     9    25    26   ar
    10    26    27   ar
    11    27    28   ar
    12    28    29   ar
    13    29    30    1
    14    22    23   ar
    15    17     1    1
    16     1     2    1
    17     2     3    1
    18     3     4    1
    19     4    31    1
    20    31    32    1
    21    32    33    1
    22    32    35    1
    23    36    35    1
    24    36    53    1
    25    53    54    1
    26    54    55   ar
    27    55    56   ar
    28    56    57   ar
    29    57    58   ar
    30    58    59   ar
    31    36    37    1
    32    37    38    2
    33    37    39   am
    34    41    39    1
    35    41    42    1
    36    42    43   ar
    37    43    44   ar
    38    44    45   ar
    39    45    46   ar
    40    46    47   ar
    41    47    48    1
    42    48    49    1
    43    49    50    1
    44    50    51    1
    45     4     5    1
    46     5     7    1
    47     7     8    2
    48     7     9   am
    49     9    11    1
    50    11    12    1
    51    12    13    1
    52    12    14    1
    53    12    15    1
    54     5     6    1
    55    23    19   ar
    56     6     1    1
    57    29    24   ar
    58    59    54   ar
    59    50    41    1
    60    47    42   ar
    61    33    34    1
    62    39    40    1
    63    51    52    1
    64     9    10    1
@<TRIPOS>MOLECULE
*****
 59 64 0 0 0
SMALL
GASTEIGER

@<TRIPOS>ATOM
      1 N           5.1823   -1.0950   31.0232 N.3     1  UNL1       -0.2650
      2 C           4.2807   -0.4277   30.0274 C.3     1  UNL1        0.0900
      3 C           4.3369   -0.8235   28.5816 C.3     1  UNL1        0.0901
      4 N           5.2948   -1.8865   28.1317 N.3     1  UNL1       -0.2621
      5 C           6.1965   -2.5538   29.1276 C.3     1  UNL1        0.1510
      6 C           6.1403   -2.1581   30.5733 C.3     1  UNL1        0.0980
      7 C           7.1543   -3.6168   28.6777 C.2     1  UNL1        0.2386
      8 O           8.5569   -3.2488   28.2937 O.2     1  UNL1       -0.2736
      9 N           6.7097   -5.0479   28.6117 N.am    1  UNL1       -0.2961
     10 H           5.7891   -5.2895   28.8637 H       1  UNL1        0.1497
     11 C           7.6675   -6.1109   28.1618 C.3     1  UNL1        0.1939
     12 C           7.3123   -7.0008   27.0077 C.3     1  UNL1        0.4154
     13 F           6.9571   -7.8907   25.8536 F       1  UNL1       -0.1682
     14 F           7.9648   -8.1600   27.7007 F       1  UNL1       -0.1682
     15 F           6.6598   -5.8415   26.3147 F       1  UNL1       -0.1682
     16 C           4.4739   -2.0084   32.8020 C.3     1  UNL1        0.0255
     17 C           5.1261   -0.6992   32.4690 C.3     1  UNL1        0.1147
     18 C           5.7782    0.6099   32.1360 C.3     1  UNL1        0.0255
     19 C           5.0699   -0.3035   33.9147 C.ar    1  UNL1        0.2185
     20 N           6.1028   -0.6183   34.9559 N.ar    1  UNL1       -0.2094
     21 C           5.6422   -0.0328   36.2578 C.ar    1  UNL1        0.1392
     22 C           4.3245    0.6438   36.0214 C.ar    1  UNL1        0.1683
     23 O           3.9707    0.4766   34.5733 O.2     1  UNL1       -0.4370
     24 C           3.5045    1.3617   37.0520 C.ar    1  UNL1        0.0659
     25 C           3.2214    0.7094   38.3728 C.ar    1  UNL1        0.1028
     26 N           2.4014    1.4273   39.4034 N.ar    1  UNL1       -0.2422
     27 C           1.8644    2.7975   39.1132 C.ar    1  UNL1        0.0998
     28 C           2.1475    3.4498   37.7925 C.ar    1  UNL1        0.0322
     29 C           2.9675    2.7319   36.7618 C.ar    1  UNL1        0.0637
     30 CL          3.2505    3.3842   35.4411 Cl      1  UNL1       -0.0820
     31 C           5.3510   -2.2822   26.6859 C.3     1  UNL1        0.1021
     32 C           6.3963   -1.6917   25.7868 C.3     1  UNL1        0.1269
     33 O           6.9522   -0.3290   26.0769 O.3     1  UNL1       -0.3830
     34 H           6.5317    0.0286   26.8746 H       1  UNL1        0.2104
     35 C           6.8858   -2.4637   24.5976 C.3     1  UNL1        0.0401
     36 C           6.3708   -2.1367   23.2273 C.3     1  UNL1        0.0833
     37 C           5.2820   -1.1189   23.0585 C.2     1  UNL1        0.2226
     38 O           5.6309    0.3154   22.7914 O.2     1  UNL1       -0.2751
     39 N           3.8443   -1.5352   23.1566 N.am    1  UNL1       -0.2999
     40 H           3.6153   -2.4765   23.3319 H       1  UNL1        0.1498
     41 C           2.7555   -0.5173   22.9878 C.3     1  UNL1        0.1278
     42 C           2.2401   -0.1906   21.6175 C.ar    1  UNL1        0.0320
     43 C           2.8135   -0.8818   20.4160 C.ar    1  UNL1        0.0004
     44 C           2.2982   -0.5551   19.0458 C.ar    1  UNL1       -0.0001
     45 C           1.2094    0.4627   18.8770 C.ar    1  UNL1        0.0031
     46 C           0.6360    1.1539   20.0784 C.ar    1  UNL1        0.0366
     47 C           1.1513    0.8272   21.4487 C.ar    1  UNL1        0.1362
     48 O           0.5779    1.5184   22.6501 O.3     1  UNL1       -0.4730
     49 C           1.0933    1.1917   24.0204 C.3     1  UNL1        0.2364
     50 C           2.1821    0.1738   24.1892 C.3     1  UNL1        0.1762
     51 O           2.6974   -0.1529   25.5595 O.3     1  UNL1       -0.3788
     52 H           2.2234    0.3783   26.2184 H       1  UNL1        0.2106
     53 C           6.9445   -2.8276   22.0257 C.3     1  UNL1        0.0355
     54 C           6.0584   -3.1762   20.8668 C.ar    1  UNL1       -0.0217
     55 C           4.8913   -4.0974   21.0654 C.ar    1  UNL1       -0.0043
     56 C           4.0052   -4.4460   19.9064 C.ar    1  UNL1       -0.0003
     57 C           4.2862   -3.8734   18.5488 C.ar    1  UNL1       -0.0000
     58 C           5.4532   -2.9523   18.3501 C.ar    1  UNL1       -0.0003
     59 C           6.3393   -2.6036   19.5091 C.ar    1  UNL1       -0.0043
@<TRIPOS>BOND
     1    16    17    1
     2    17    18    1
     3    17    19    1
     4    19    20   ar
     5    20    21   ar
     6    21    22   ar
     7    22    24    1
     8    24    25   ar
     9    25    26   ar
    10    26    27   ar
    11    27    28   ar
    12    28    29   ar
    13    29    30    1
    14    22    23   ar
    15    17     1    1
    16     1     2    1
    17     2     3    1
    18     3     4    1
    19     4    31    1
    20    31    32    1
    21    32    33    1
    22    32    35    1
    23    36    35    1
    24    36    53    1
    25    53    54    1
    26    54    55   ar
    27    55    56   ar
    28    56    57   ar
    29    57    58   ar
    30    58    59   ar
    31    36    37    1
    32    37    38    2
    33    37    39   am
    34    41    39    1
    35    41    42    1
    36    42    43   ar
    37    43    44   ar
    38    44    45   ar
    39    45    46   ar
    40    46    47   ar
    41    47    48    1
    42    48    49    1
    43    49    50    1
    44    50    51    1
    45     4     5    1
    46     5     7    1
    47     7     8    2
    48     7     9   am
    49     9    11    1
    50    11    12    1
    51    12    13    1
    52    12    14    1
    53    12    15    1
    54     5     6    1
    55    23    19   ar
    56     6     1    1
    57    29    24   ar
    58    59    54   ar
    59    50    41    1
    60    47    42   ar
    61    33    34    1
    62    39    40    1
    63    51    52    1
    64     9    10    1
@<TRIPOS>MOLECULE
*****
 59 64 0 0 0
SMALL
GASTEIGER

@<TRIPOS>ATOM
      1 N           0.7508    2.3706   26.0162 N.3     1  UNL1       -0.2650
      2 C           1.8659    2.9690   25.2109 C.3     1  UNL1        0.0900
      3 C           3.2809    2.5317   25.4484 C.3     1  UNL1        0.0901
      4 N           3.5809    1.4961   26.4912 N.3     1  UNL1       -0.2621
      5 C           2.4658    0.8976   27.2965 C.3     1  UNL1        0.1510
      6 C           1.0508    1.3349   27.0590 C.3     1  UNL1        0.0980
      7 C           2.7658   -0.1380   28.3393 C.2     1  UNL1        0.2386
      8 O           3.1524   -1.5274   27.9270 O.2     1  UNL1       -0.2736
      9 N           2.6793    0.2158   29.7945 N.am    1  UNL1       -0.2961
     10 H           2.4256    1.1277   30.0651 H       1  UNL1        0.1497
     11 C           2.9793   -0.8198   30.8373 C.3     1  UNL1        0.1939
     12 C           3.5780   -0.4106   32.1502 C.3     1  UNL1        0.4154
     13 F           4.1767   -0.0013   33.4633 F       1  UNL1       -0.1682
     14 F           3.8390   -1.8504   32.4800 F       1  UNL1       -0.1682
     15 F           3.3170    1.0292   31.8204 F       1  UNL1       -0.1682
     16 C          -0.2749    3.3352   24.4295 C.3     1  UNL1        0.0255
     17 C          -0.6643    2.8078   25.7787 C.3     1  UNL1        0.1147
     18 C          -1.0537    2.2805   27.1279 C.3     1  UNL1        0.0255
     19 C          -2.0793    3.2450   25.5412 C.ar    1  UNL1        0.2185
     20 N          -3.1057    3.5230   26.5992 N.ar    1  UNL1       -0.2094
     21 C          -4.3772    3.9308   25.9159 C.ar    1  UNL1        0.1392
     22 C          -4.1367    3.9050   24.4355 C.ar    1  UNL1        0.1683
     23 O          -2.7166    3.4811   24.2039 O.2     1  UNL1       -0.4370
     24 C          -5.1401    4.2435   23.3732 C.ar    1  UNL1        0.0659
     25 C          -6.5651    4.5229   23.7492 C.ar    1  UNL1        0.1028
     26 N          -7.5686    4.8614   22.6869 N.ar    1  UNL1       -0.2422
     27 C          -7.1470    4.9206   21.2486 C.ar    1  UNL1        0.0998
     28 C          -5.7220    4.6412   20.8726 C.ar    1  UNL1        0.0322
     29 C          -4.7186    4.3026   21.9349 C.ar    1  UNL1        0.0637
     30 CL         -3.2936    4.0232   21.5589 Cl      1  UNL1       -0.0820
     31 C           4.9960    1.0589   26.7287 C.3     1  UNL1        0.1021
     32 C           5.9800    1.0554   25.5966 C.3     1  UNL1        0.1269
     33 O           6.7706    2.2918   25.2864 O.3     1  UNL1       -0.3830
     34 H           6.5266    2.9959   25.9073 H       1  UNL1        0.2104
     35 C           6.1733   -0.1844   24.7747 C.3     1  UNL1        0.0401
     36 C           5.5942   -1.4886   25.2370 C.3     1  UNL1        0.0833
     37 C           6.3158   -2.3067   26.2665 C.2     1  UNL1        0.2226
     38 O           7.7963   -2.5192   26.1527 O.2     1  UNL1       -0.2751
     39 N           5.5569   -2.9122   27.4099 N.am    1  UNL1       -0.2999
     40 H           4.5852   -2.7727   27.4847 H       1  UNL1        0.1498
     41 C           6.2785   -3.7303   28.4395 C.3     1  UNL1        0.1278
     42 C           6.7344   -3.0934   29.7187 C.ar    1  UNL1        0.0320
     43 C           6.4688   -1.6383   29.9684 C.ar    1  UNL1        0.0004
     44 C           6.9248   -1.0014   31.2476 C.ar    1  UNL1       -0.0001
     45 C           7.6463   -1.8196   32.2772 C.ar    1  UNL1        0.0031
     46 C           7.9120   -3.2746   32.0276 C.ar    1  UNL1        0.0366
     47 C           7.4560   -3.9115   30.7483 C.ar    1  UNL1        0.1362
     48 O           7.7216   -5.3665   30.4986 O.3     1  UNL1       -0.4730
     49 C           7.2657   -6.0034   29.2194 C.3     1  UNL1        0.2364
     50 C           6.5441   -5.1853   28.1899 C.3     1  UNL1        0.1762
     51 O           6.0881   -5.8223   26.9106 O.3     1  UNL1       -0.3788
     52 H           6.3373   -6.7597   26.9094 H       1  UNL1        0.2106
     53 C           4.2934   -1.9747   24.6697 C.3     1  UNL1        0.0355
     54 C           4.1689   -2.2389   23.1984 C.ar    1  UNL1       -0.0217
     55 C           3.4816   -1.2421   22.3129 C.ar    1  UNL1       -0.0043
     56 C           3.3571   -1.5063   20.8416 C.ar    1  UNL1       -0.0003
     57 C           3.9199   -2.7673   20.2558 C.ar    1  UNL1       -0.0000
     58 C           4.6072   -3.7640   21.1412 C.ar    1  UNL1       -0.0003
     59 C           4.7317   -3.4998   22.6126 C.ar    1  UNL1       -0.0043
@<TRIPOS>BOND
     1    16    17    1
     2    17    18    1
     3    17    19    1
     4    19    20   ar
     5    20    21   ar
     6    21    22   ar
     7    22    24    1
     8    24    25   ar
     9    25    26   ar
    10    26    27   ar
    11    27    28   ar
    12    28    29   ar
    13    29    30    1
    14    22    23   ar
    15    17     1    1
    16     1     2    1
    17     2     3    1
    18     3     4    1
    19     4    31    1
    20    31    32    1
    21    32    33    1
    22    32    35    1
    23    36    35    1
    24    36    53    1
    25    53    54    1
    26    54    55   ar
    27    55    56   ar
    28    56    57   ar
    29    57    58   ar
    30    58    59   ar
    31    36    37    1
    32    37    38    2
    33    37    39   am
    34    41    39    1
    35    41    42    1
    36    42    43   ar
    37    43    44   ar
    38    44    45   ar
    39    45    46   ar
    40    46    47   ar
    41    47    48    1
    42    48    49    1
    43    49    50    1
    44    50    51    1
    45     4     5    1
    46     5     7    1
    47     7     8    2
    48     7     9   am
    49     9    11    1
    50    11    12    1
    51    12    13    1
    52    12    14    1
    53    12    15    1
    54     5     6    1
    55    23    19   ar
    56     6     1    1
    57    29    24   ar
    58    59    54   ar
    59    50    41    1
    60    47    42   ar
    61    33    34    1
    62    39    40    1
    63    51    52    1
    64     9    10    1
@<TRIPOS>MOLECULE
*****
 59 64 0 0 0
SMALL
GASTEIGER

@<TRIPOS>ATOM
      1 N           7.9094   -5.5108   25.3797 N.3     1  UNL1       -0.2650
      2 C           8.2621   -4.2904   26.1773 C.3     1  UNL1        0.0900
      3 C           8.3440   -2.9524   25.5043 C.3     1  UNL1        0.0901
      4 N           8.0733   -2.8348   24.0336 N.3     1  UNL1       -0.2621
      5 C           7.7206   -4.0552   23.2359 C.3     1  UNL1        0.1510
      6 C           7.6387   -5.3932   23.9090 C.3     1  UNL1        0.0980
      7 C           7.4500   -3.9376   21.7653 C.2     1  UNL1        0.2386
      8 O           8.5489   -4.1952   20.7774 O.2     1  UNL1       -0.2736
      9 N           6.0802   -3.5623   21.2824 N.am    1  UNL1       -0.2961
     10 H           5.3589   -3.3932   21.9308 H       1  UNL1        0.1497
     11 C           5.8095   -3.4447   19.8118 C.3     1  UNL1        0.1939
     12 C           4.4829   -3.8713   19.2569 C.3     1  UNL1        0.4154
     13 F           3.1561   -4.2979   18.7020 F       1  UNL1       -0.1682
     14 F           4.8697   -3.3272   17.9137 F       1  UNL1       -0.1682
     15 F           4.0961   -4.4154   20.6002 F       1  UNL1       -0.1682
     16 C           7.5845   -6.1718   27.3690 C.3     1  UNL1        0.0255
     17 C           7.8275   -6.8488   26.0527 C.3     1  UNL1        0.1147
     18 C           8.0705   -7.5258   24.7364 C.3     1  UNL1        0.0255
     19 C           7.7455   -8.1869   26.7258 C.ar    1  UNL1        0.2185
     20 N           8.8678   -8.8895   27.4306 N.ar    1  UNL1       -0.2094
     21 C           8.3428  -10.1941   27.9526 C.ar    1  UNL1        0.1392
     22 C           6.8960  -10.2977   27.5704 C.ar    1  UNL1        0.1683
     23 O           6.5268   -9.0572   26.8122 O.2     1  UNL1       -0.4370
     24 C           5.9793  -11.4411   27.8902 C.ar    1  UNL1        0.0659
     25 C           6.4714  -12.5861   28.7249 C.ar    1  UNL1        0.1028
     26 N           5.5547  -13.7295   29.0447 N.ar    1  UNL1       -0.2422
     27 C           4.1458  -13.7278   28.5299 C.ar    1  UNL1        0.0998
     28 C           3.6537  -12.5828   27.6952 C.ar    1  UNL1        0.0322
     29 C           4.5704  -11.4394   27.3753 C.ar    1  UNL1        0.0637
     30 CL          4.0783  -10.2944   26.5406 Cl      1  UNL1       -0.0820
     31 C           8.1553   -1.4967   23.3606 C.3     1  UNL1        0.1021
     32 C           7.3225   -0.3536   23.8602 C.3     1  UNL1        0.1269
     33 O           7.8386    0.5253   24.9607 O.3     1  UNL1       -0.3830
     34 H           8.7177    0.2194   25.2335 H       1  UNL1        0.2104
     35 C           5.9737   -0.0894   23.2594 C.3     1  UNL1        0.0401
     36 C           4.7369   -0.5941   23.9417 C.3     1  UNL1        0.0833
     37 C           4.4809   -0.2522   25.3796 C.2     1  UNL1        0.2226
     38 O           5.0632    0.9986   25.9682 O.2     1  UNL1       -0.2751
     39 N           3.6427   -1.1611   26.2288 N.am    1  UNL1       -0.2999
     40 H           3.2606   -1.9821   25.8425 H       1  UNL1        0.1498
     41 C           3.3868   -0.8192   27.6667 C.3     1  UNL1        0.1278
     42 C           4.3737   -1.2243   28.7211 C.ar    1  UNL1        0.0320
     43 C           5.6167   -1.9714   28.3377 C.ar    1  UNL1        0.0004
     44 C           6.6036   -2.3764   29.3921 C.ar    1  UNL1       -0.0001
     45 C           6.3477   -2.0346   30.8300 C.ar    1  UNL1        0.0031
     46 C           5.1047   -1.2876   31.2135 C.ar    1  UNL1        0.0366
     47 C           4.1177   -0.8824   30.1591 C.ar    1  UNL1        0.1362
     48 O           2.8748   -0.1355   30.5426 O.3     1  UNL1       -0.4730
     49 C           1.8879    0.2696   29.4882 C.3     1  UNL1        0.2364
     50 C           2.1438   -0.0723   28.0503 C.3     1  UNL1        0.1762
     51 O           1.1568    0.3329   26.9958 O.3     1  UNL1       -0.3788
     52 H           0.4165    0.8035   27.4097 H       1  UNL1        0.2106
     53 C           3.7560   -1.4408   23.1859 C.3     1  UNL1        0.0355
     54 C           2.7632   -0.7967   22.2643 C.ar    1  UNL1       -0.0217
     55 C           1.9248    0.3494   22.7476 C.ar    1  UNL1       -0.0043
     56 C           0.9320    0.9935   21.8259 C.ar    1  UNL1       -0.0003
     57 C           0.7777    0.4915   20.4209 C.ar    1  UNL1       -0.0000
     58 C           1.6160   -0.6545   19.9375 C.ar    1  UNL1       -0.0003
     59 C           2.6088   -1.2987   20.8592 C.ar    1  UNL1       -0.0043
@<TRIPOS>BOND
     1    16    17    1
     2    17    18    1
     3    17    19    1
     4    19    20   ar
     5    20    21   ar
     6    21    22   ar
     7    22    24    1
     8    24    25   ar
     9    25    26   ar
    10    26    27   ar
    11    27    28   ar
    12    28    29   ar
    13    29    30    1
    14    22    23   ar
    15    17     1    1
    16     1     2    1
    17     2     3    1
    18     3     4    1
    19     4    31    1
    20    31    32    1
    21    32    33    1
    22    32    35    1
    23    36    35    1
    24    36    53    1
    25    53    54    1
    26    54    55   ar
    27    55    56   ar
    28    56    57   ar
    29    57    58   ar
    30    58    59   ar
    31    36    37    1
    32    37    38    2
    33    37    39   am
    34    41    39    1
    35    41    42    1
    36    42    43   ar
    37    43    44   ar
    38    44    45   ar
    39    45    46   ar
    40    46    47   ar
    41    47    48    1
    42    48    49    1
    43    49    50    1
    44    50    51    1
    45     4     5    1
    46     5     7    1
    47     7     8    2
    48     7     9   am
    49     9    11    1
    50    11    12    1
    51    12    13    1
    52    12    14    1
    53    12    15    1
    54     5     6    1
    55    23    19   ar
    56     6     1    1
    57    29    24   ar
    58    59    54   ar
    59    50    41    1
    60    47    42   ar
    61    33    34    1
    62    39    40    1
    63    51    52    1
    64     9    10    1
@<TRIPOS>MOLECULE
*****
 59 64 0 0 0
SMALL
GASTEIGER

@<TRIPOS>ATOM
      1 N           1.2413    1.0757   22.4071 N.3     1  UNL1       -0.2650
      2 C           1.4428    0.8355   23.8739 C.3     1  UNL1        0.0900
      3 C           2.4806   -0.1430   24.3381 C.3     1  UNL1        0.0901
      4 N           3.3171   -0.8812   23.3354 N.3     1  UNL1       -0.2621
      5 C           3.1156   -0.6410   21.8685 C.3     1  UNL1        0.1510
      6 C           2.0778    0.3375   21.4043 C.3     1  UNL1        0.0980
      7 C           3.9521   -1.3792   20.8658 C.2     1  UNL1        0.2386
      8 O           5.4090   -1.0538   20.7196 O.2     1  UNL1       -0.2736
      9 N           3.3315   -2.4429   20.0093 N.am    1  UNL1       -0.2961
     10 H           2.3753   -2.6565   20.1052 H       1  UNL1        0.1497
     11 C           4.1679   -3.1811   19.0066 C.3     1  UNL1        0.1939
     12 C           4.2348   -4.6791   19.0434 C.3     1  UNL1        0.4154
     13 F           4.3016   -6.1772   19.0801 F       1  UNL1       -0.1682
     14 F           2.7702   -4.7522   18.7279 F       1  UNL1       -0.1682
     15 F           5.6994   -4.6060   19.3588 F       1  UNL1       -0.1682
     16 C           0.2018    2.6956   23.2989 C.3     1  UNL1        0.0255
     17 C           0.2035    2.0542   21.9429 C.3     1  UNL1        0.1147
     18 C           0.2052    1.4127   20.5870 C.3     1  UNL1        0.0255
     19 C          -0.8344    3.0326   21.4788 C.ar    1  UNL1        0.2185
     20 N          -0.6912    4.5256   21.4565 N.ar    1  UNL1       -0.2094
     21 C          -1.9660    5.1056   20.9194 C.ar    1  UNL1        0.1392
     22 C          -2.8971    3.9711   20.6096 C.ar    1  UNL1        0.1683
     23 O          -2.1978    2.6899   20.9554 O.2     1  UNL1       -0.4370
     24 C          -4.2840    4.0958   20.0521 C.ar    1  UNL1        0.0659
     25 C          -5.4551    4.2359   20.9788 C.ar    1  UNL1        0.1028
     26 N          -6.8421    4.3606   20.4212 N.ar    1  UNL1       -0.2422
     27 C          -7.0578    4.3452   18.9369 C.ar    1  UNL1        0.0998
     28 C          -5.8867    4.2050   18.0102 C.ar    1  UNL1        0.0322
     29 C          -4.4998    4.0803   18.5678 C.ar    1  UNL1        0.0637
     30 CL         -3.3286    3.9402   17.6410 Cl      1  UNL1       -0.0820
     31 C           4.3549   -1.8597   23.7996 C.3     1  UNL1        0.1021
     32 C           5.7292   -1.3799   24.1618 C.3     1  UNL1        0.1269
     33 O           6.8940   -1.7008   23.2730 O.3     1  UNL1       -0.3830
     34 H           6.5877   -2.2207   22.5136 H       1  UNL1        0.2104
     35 C           5.9385   -0.5793   25.4129 C.3     1  UNL1        0.0401
     36 C           6.0971   -1.2762   26.7316 C.3     1  UNL1        0.0833
     37 C           6.9009   -2.5396   26.8204 C.2     1  UNL1        0.2226
     38 O           8.3926   -2.4710   26.9632 O.2     1  UNL1       -0.2751
     39 N           6.2131   -3.8715   26.7663 N.am    1  UNL1       -0.2999
     40 H           5.2341   -3.9165   26.6725 H       1  UNL1        0.1498
     41 C           7.0169   -5.1348   26.8550 C.3     1  UNL1        0.1278
     42 C           7.6389   -5.7163   25.6202 C.ar    1  UNL1        0.0320
     43 C           7.4571   -5.0345   24.2964 C.ar    1  UNL1        0.0004
     44 C           8.0790   -5.6160   23.0616 C.ar    1  UNL1       -0.0001
     45 C           8.8828   -6.8793   23.1503 C.ar    1  UNL1        0.0031
     46 C           9.0646   -7.5612   24.4739 C.ar    1  UNL1        0.0366
     47 C           8.4426   -6.9797   25.7089 C.ar    1  UNL1        0.1362
     48 O           8.6244   -7.6615   27.0325 O.3     1  UNL1       -0.4730
     49 C           8.0025   -7.0800   28.2674 C.3     1  UNL1        0.2364
     50 C           7.1987   -5.8167   28.1786 C.3     1  UNL1        0.1762
     51 O           6.5767   -5.2352   29.4136 O.3     1  UNL1       -0.3788
     52 H           6.7896   -5.7945   30.1769 H       1  UNL1        0.2106
     53 C           5.4519   -0.7098   27.9617 C.3     1  UNL1        0.0355
     54 C           4.1780    0.0737   27.8473 C.ar    1  UNL1       -0.0217
     55 C           2.8596   -0.5982   28.0932 C.ar    1  UNL1       -0.0043
     56 C           1.5857    0.1854   27.9789 C.ar    1  UNL1       -0.0003
     57 C           1.6301    1.6408   27.6186 C.ar    1  UNL1       -0.0000
     58 C           2.9484    2.3127   27.3727 C.ar    1  UNL1       -0.0003
     59 C           4.2224    1.5291   27.4870 C.ar    1  UNL1       -0.0043
@<TRIPOS>BOND
     1    16    17    1
     2    17    18    1
     3    17    19    1
     4    19    20   ar
     5    20    21   ar
     6    21    22   ar
     7    22    24    1
     8    24    25   ar
     9    25    26   ar
    10    26    27   ar
    11    27    28   ar
    12    28    29   ar
    13    29    30    1
    14    22    23   ar
    15    17     1    1
    16     1     2    1
    17     2     3    1
    18     3     4    1
    19     4    31    1
    20    31    32    1
    21    32    33    1
    22    32    35    1
    23    36    35    1
    24    36    53    1
    25    53    54    1
    26    54    55   ar
    27    55    56   ar
    28    56    57   ar
    29    57    58   ar
    30    58    59   ar
    31    36    37    1
    32    37    38    2
    33    37    39   am
    34    41    39    1
    35    41    42    1
    36    42    43   ar
    37    43    44   ar
    38    44    45   ar
    39    45    46   ar
    40    46    47   ar
    41    47    48    1
    42    48    49    1
    43    49    50    1
    44    50    51    1
    45     4     5    1
    46     5     7    1
    47     7     8    2
    48     7     9   am
    49     9    11    1
    50    11    12    1
    51    12    13    1
    52    12    14    1
    53    12    15    1
    54     5     6    1
    55    23    19   ar
    56     6     1    1
    57    29    24   ar
    58    59    54   ar
    59    50    41    1
    60    47    42   ar
    61    33    34    1
    62    39    40    1
    63    51    52    1
    64     9    10    1
@<TRIPOS>MOLECULE
*****
 59 64 0 0 0
SMALL
GASTEIGER

@<TRIPOS>ATOM
      1 N           1.4605    1.5415   22.5990 N.3     1  UNL1       -0.2650
      2 C           2.0961    1.5897   23.9567 C.3     1  UNL1        0.0900
      3 C           3.3241    0.7760   24.2393 C.3     1  UNL1        0.0901
      4 N           3.9165   -0.0860   23.1641 N.3     1  UNL1       -0.2621
      5 C           3.2808   -0.1342   21.8062 C.3     1  UNL1        0.1510
      6 C           2.0528    0.6795   21.5237 C.3     1  UNL1        0.0980
      7 C           3.8732   -0.9962   20.7310 C.2     1  UNL1        0.2386
      8 O           5.2292   -0.6762   20.1752 O.2     1  UNL1       -0.2736
      9 N           3.1096   -2.1782   20.2116 N.am    1  UNL1       -0.2961
     10 H           2.2196   -2.3883   20.5764 H       1  UNL1        0.1497
     11 C           3.7019   -3.0402   19.1364 C.3     1  UNL1        0.1939
     12 C           3.7840   -4.5258   19.3264 C.3     1  UNL1        0.4154
     13 F           3.8662   -6.0115   19.5164 F       1  UNL1       -0.1682
     14 F           5.1358   -4.3704   19.9576 F       1  UNL1       -0.1682
     15 F           2.4322   -4.6812   18.6953 F       1  UNL1       -0.1682
     16 C           0.0234    2.5509   23.7888 C.3     1  UNL1        0.0255
     17 C           0.2325    2.3552   22.3164 C.3     1  UNL1        0.1147
     18 C           0.4416    2.1595   20.8440 C.3     1  UNL1        0.0255
     19 C          -0.9955    3.1689   22.0338 C.ar    1  UNL1        0.2185
     20 N          -1.3863    4.4434   22.7216 N.ar    1  UNL1       -0.2094
     21 C          -2.6807    4.9132   22.1267 C.ar    1  UNL1        0.1392
     22 C          -3.0899    3.9291   21.0712 C.ar    1  UNL1        0.1683
     23 O          -2.0484    2.8511   21.0137 O.2     1  UNL1       -0.4370
     24 C          -4.3239    4.0090   20.2222 C.ar    1  UNL1        0.0659
     25 C          -5.6771    4.0526   20.8679 C.ar    1  UNL1        0.1028
     26 N          -6.9111    4.1325   20.0189 N.ar    1  UNL1       -0.2422
     27 C          -6.7918    4.1687   18.5241 C.ar    1  UNL1        0.0998
     28 C          -5.4386    4.1251   17.8783 C.ar    1  UNL1        0.0322
     29 C          -4.2047    4.0453   18.7274 C.ar    1  UNL1        0.0637
     30 CL         -2.8515    4.0017   18.0816 Cl      1  UNL1       -0.0820
     31 C           5.1445   -0.8997   23.4467 C.3     1  UNL1        0.1021
     32 C           5.0172   -2.2571   24.0721 C.3     1  UNL1        0.1269
     33 O           4.5093   -2.3908   25.4771 O.3     1  UNL1       -0.3830
     34 H           4.3107   -1.5111   25.8342 H       1  UNL1        0.2104
     35 C           5.3979   -3.4808   23.2926 C.3     1  UNL1        0.0401
     36 C           6.7926   -4.0250   23.3847 C.3     1  UNL1        0.0833
     37 C           7.3443   -4.4535   24.7121 C.2     1  UNL1        0.2226
     38 O           8.8111   -4.3157   24.9945 O.2     1  UNL1       -0.2751
     39 N           6.4293   -5.0199   25.7571 N.am    1  UNL1       -0.2999
     40 H           5.4667   -5.1103   25.5717 H       1  UNL1        0.1498
     41 C           6.9811   -5.4484   27.0845 C.3     1  UNL1        0.1278
     42 C           6.8742   -4.5367   28.2708 C.ar    1  UNL1        0.0320
     43 C           6.2155   -3.1964   28.1297 C.ar    1  UNL1        0.0004
     44 C           6.1086   -2.2847   29.3160 C.ar    1  UNL1       -0.0001
     45 C           6.6603   -2.7132   30.6434 C.ar    1  UNL1        0.0031
     46 C           7.3189   -4.0535   30.7845 C.ar    1  UNL1        0.0366
     47 C           7.4259   -4.9653   29.5981 C.ar    1  UNL1        0.1362
     48 O           8.0845   -6.3055   29.7392 O.3     1  UNL1       -0.4730
     49 C           8.1914   -7.2172   28.5529 C.3     1  UNL1        0.2364
     50 C           7.6397   -6.7886   27.2256 C.3     1  UNL1        0.1762
     51 O           7.7466   -7.7004   26.0392 O.3     1  UNL1       -0.3788
     52 H           8.1957   -8.5196   26.3004 H       1  UNL1        0.2106
     53 C           7.6357   -4.1407   22.1494 C.3     1  UNL1        0.0355
     54 C           8.0585   -2.9051   21.4115 C.ar    1  UNL1       -0.0217
     55 C           8.0547   -2.8890   19.9116 C.ar    1  UNL1       -0.0043
     56 C           8.4776   -1.6534   19.1737 C.ar    1  UNL1       -0.0003
     57 C           8.9043   -0.4339   19.9358 C.ar    1  UNL1       -0.0000
     58 C           8.9082   -0.4500   21.4356 C.ar    1  UNL1       -0.0003
     59 C           8.4853   -1.6856   22.1736 C.ar    1  UNL1       -0.0043
@<TRIPOS>BOND
     1    16    17    1
     2    17    18    1
     3    17    19    1
     4    19    20   ar
     5    20    21   ar
     6    21    22   ar
     7    22    24    1
     8    24    25   ar
     9    25    26   ar
    10    26    27   ar
    11    27    28   ar
    12    28    29   ar
    13    29    30    1
    14    22    23   ar
    15    17     1    1
    16     1     2    1
    17     2     3    1
    18     3     4    1
    19     4    31    1
    20    31    32    1
    21    32    33    1
    22    32    35    1
    23    36    35    1
    24    36    53    1
    25    53    54    1
    26    54    55   ar
    27    55    56   ar
    28    56    57   ar
    29    57    58   ar
    30    58    59   ar
    31    36    37    1
    32    37    38    2
    33    37    39   am
    34    41    39    1
    35    41    42    1
    36    42    43   ar
    37    43    44   ar
    38    44    45   ar
    39    45    46   ar
    40    46    47   ar
    41    47    48    1
    42    48    49    1
    43    49    50    1
    44    50    51    1
    45     4     5    1
    46     5     7    1
    47     7     8    2
    48     7     9   am
    49     9    11    1
    50    11    12    1
    51    12    13    1
    52    12    14    1
    53    12    15    1
    54     5     6    1
    55    23    19   ar
    56     6     1    1
    57    29    24   ar
    58    59    54   ar
    59    50    41    1
    60    47    42   ar
    61    33    34    1
    62    39    40    1
    63    51    52    1
    64     9    10    1
@<TRIPOS>MOLECULE
*****
 59 64 0 0 0
SMALL
GASTEIGER

@<TRIPOS>ATOM
      1 N           1.4429    1.3973   23.9056 N.3     1  UNL1       -0.2650
      2 C           2.1900    0.3455   23.1405 C.3     1  UNL1        0.0900
      3 C           3.2313   -0.4857   23.8297 C.3     1  UNL1        0.0901
      4 N           3.5254   -0.2651   25.2839 N.3     1  UNL1       -0.2621
      5 C           2.7783    0.7868   26.0490 C.3     1  UNL1        0.1510
      6 C           1.7370    1.6180   25.3599 C.3     1  UNL1        0.0980
      7 C           3.0724    1.0075   27.5032 C.2     1  UNL1        0.2386
      8 O           4.3469    1.6818   27.9167 O.2     1  UNL1       -0.2736
      9 N           2.0920    0.5538   28.5440 N.am    1  UNL1       -0.2961
     10 H           1.2555    0.1113   28.2726 H       1  UNL1        0.1497
     11 C           2.3862    0.7745   29.9982 C.3     1  UNL1        0.1939
     12 C           2.7851   -0.3817   30.8665 C.3     1  UNL1        0.4154
     13 F           3.1840   -1.5380   31.7348 F       1  UNL1       -0.1682
     14 F           2.8561   -1.2657   29.6568 F       1  UNL1       -0.1682
     15 F           2.7141    0.5023   32.0762 F       1  UNL1       -0.1682
     16 C           0.5326    1.3755   21.9896 C.3     1  UNL1        0.0255
     17 C           0.4016    2.2285   23.2165 C.3     1  UNL1        0.1147
     18 C           0.2705    3.0815   24.4434 C.3     1  UNL1        0.0255
     19 C          -0.6397    3.0597   22.5274 C.ar    1  UNL1        0.2185
     20 N          -0.9539    4.4975   22.8172 N.ar    1  UNL1       -0.2094
     21 C          -2.0580    4.9254   21.8964 C.ar    1  UNL1        0.1392
     22 C          -2.4261    3.7521   21.0374 C.ar    1  UNL1        0.1683
     23 O          -1.5496    2.5989   21.4274 O.2     1  UNL1       -0.4370
     24 C          -3.4849    3.7348   19.9751 C.ar    1  UNL1        0.0659
     25 C          -3.1140    3.9799   18.5424 C.ar    1  UNL1        0.1028
     26 N          -4.1728    3.9626   17.4801 N.ar    1  UNL1       -0.2422
     27 C          -5.6025    3.7003   17.8503 C.ar    1  UNL1        0.0998
     28 C          -5.9734    3.4553   19.2829 C.ar    1  UNL1        0.0322
     29 C          -4.9146    3.4725   20.3453 C.ar    1  UNL1        0.0637
     30 CL         -5.2855    3.2275   21.7779 Cl      1  UNL1       -0.0820
     31 C           4.5667   -1.0963   25.9730 C.3     1  UNL1        0.1021
     32 C           6.0211   -0.7764   25.7935 C.3     1  UNL1        0.1269
     33 O           6.6078    0.4396   26.4470 O.3     1  UNL1       -0.3830
     34 H           5.9168    0.9046   26.9442 H       1  UNL1        0.2104
     35 C           6.8889   -1.6726   24.9606 C.3     1  UNL1        0.0401
     36 C           7.1221   -3.0933   25.3815 C.3     1  UNL1        0.0833
     37 C           7.3940   -3.4140   26.8214 C.2     1  UNL1        0.2226
     38 O           8.8048   -3.4391   27.3307 O.2     1  UNL1       -0.2751
     39 N           6.2554   -3.7095   27.7520 N.am    1  UNL1       -0.2999
     40 H           5.3295   -3.6930   27.4177 H       1  UNL1        0.1498
     41 C           6.5273   -4.0301   29.1919 C.3     1  UNL1        0.1278
     42 C           6.5008   -2.9393   30.2211 C.ar    1  UNL1        0.0320
     43 C           6.2023   -1.5278   29.8105 C.ar    1  UNL1        0.0004
     44 C           6.1758   -0.4370   30.8397 C.ar    1  UNL1       -0.0001
     45 C           6.4478   -0.7576   32.2796 C.ar    1  UNL1        0.0031
     46 C           6.7463   -2.1691   32.6902 C.ar    1  UNL1        0.0366
     47 C           6.7728   -3.2600   31.6610 C.ar    1  UNL1        0.1362
     48 O           7.0712   -4.6714   32.0716 O.3     1  UNL1       -0.4730
     49 C           7.0977   -5.7622   31.0424 C.3     1  UNL1        0.2364
     50 C           6.8258   -5.4416   29.6025 C.3     1  UNL1        0.1762
     51 O           6.8523   -6.5325   28.5732 O.3     1  UNL1       -0.3788
     52 H           7.0588   -7.3773   29.0028 H       1  UNL1        0.2106
     53 C           7.0833   -4.1935   24.3625 C.3     1  UNL1        0.0355
     54 C           6.4586   -3.9511   23.0206 C.ar    1  UNL1       -0.0217
     55 C           4.9913   -3.6568   22.9184 C.ar    1  UNL1       -0.0043
     56 C           4.3666   -3.4144   21.5765 C.ar    1  UNL1       -0.0003
     57 C           5.2091   -3.4663   20.3366 C.ar    1  UNL1       -0.0000
     58 C           6.6764   -3.7606   20.4386 C.ar    1  UNL1       -0.0003
     59 C           7.3012   -4.0030   21.7807 C.ar    1  UNL1       -0.0043
@<TRIPOS>BOND
     1    16    17    1
     2    17    18    1
     3    17    19    1
     4    19    20   ar
     5    20    21   ar
     6    21    22   ar
     7    22    24    1
     8    24    25   ar
     9    25    26   ar
    10    26    27   ar
    11    27    28   ar
    12    28    29   ar
    13    29    30    1
    14    22    23   ar
    15    17     1    1
    16     1     2    1
    17     2     3    1
    18     3     4    1
    19     4    31    1
    20    31    32    1
    21    32    33    1
    22    32    35    1
    23    36    35    1
    24    36    53    1
    25    53    54    1
    26    54    55   ar
    27    55    56   ar
    28    56    57   ar
    29    57    58   ar
    30    58    59   ar
    31    36    37    1
    32    37    38    2
    33    37    39   am
    34    41    39    1
    35    41    42    1
    36    42    43   ar
    37    43    44   ar
    38    44    45   ar
    39    45    46   ar
    40    46    47   ar
    41    47    48    1
    42    48    49    1
    43    49    50    1
    44    50    51    1
    45     4     5    1
    46     5     7    1
    47     7     8    2
    48     7     9   am
    49     9    11    1
    50    11    12    1
    51    12    13    1
    52    12    14    1
    53    12    15    1
    54     5     6    1
    55    23    19   ar
    56     6     1    1
    57    29    24   ar
    58    59    54   ar
    59    50    41    1
    60    47    42   ar
    61    33    34    1
    62    39    40    1
    63    51    52    1
    64     9    10    1
