@<TRIPOS>MOLECULE
*****
 27 30 0 0 0
SMALL
GASTEIGER

@<TRIPOS>ATOM
      1 C           1.6091    0.8313   21.3227 C.ar    1  UNL1        0.1512
      2 C           1.3817    1.5852   20.0460 C.ar    1  UNL1        0.1338
      3 N           2.0251    1.1177   18.7741 N.ar    1  UNL1       -0.2291
      4 C           2.8960   -0.1036   18.7790 C.ar    1  UNL1        0.1669
      5 C           3.1233   -0.8575   20.0558 C.ar    1  UNL1        0.1131
      6 N           2.4799   -0.3900   21.3276 N.ar    1  UNL1       -0.2268
      7 C          -0.9646    2.7009   26.4100 C.2     1  UNL1        0.2252
      8 O          -1.9277    3.8506   26.3848 O.2     1  UNL1       -0.2749
      9 N          -0.3211    2.2335   25.1382 N.am    1  UNL1       -0.2777
     10 C           0.6420    1.0838   25.1634 C.3     1  UNL1        0.1148
     11 C           1.2853    0.6165   23.8916 C.3     1  UNL1        0.1137
     12 N           0.9656    1.2987   22.5945 N.pl3   1  UNL1       -0.2886
     13 C           0.0025    2.4484   22.5693 C.3     1  UNL1        0.1120
     14 C          -0.6409    2.9158   23.8411 C.3     1  UNL1        0.0952
     15 C          -1.6040    4.0655   23.8160 C.3     1  UNL1        0.0233
     16 C          -1.4547   -0.4589   28.9731 C.3     1  UNL1        0.0005
     17 C          -0.8243    0.8621   28.6452 C.3     1  UNL1        0.0091
     18 C           0.0883    1.9935   29.0154 C.3     1  UNL1        0.0095
     19 C          -0.6449    2.0187   27.7071 C.3     1  UNL1        0.0767
     20 C           3.9942   -2.0788   20.0607 C.ar    1  UNL1        0.0595
     21 C           3.5910   -3.4510   19.6085 C.ar    1  UNL1        0.1232
     22 N           4.7687   -4.3626   19.7870 N.ar    1  UNL1       -0.1675
     23 N           5.8999   -3.5538   20.3495 N.ar    1  UNL1       -0.2473
     24 C           7.2693   -4.0665   20.6841 C.3     1  UNL1        0.1538
     25 C           5.4212   -2.1424   20.5186 C.ar    1  UNL1        0.0983
     26 C           3.5394   -0.5710   17.5073 C.1     1  UNL1        0.1213
     27 N           4.1828   -1.0385   16.2355 N.1     1  UNL1       -0.1892
@<TRIPOS>BOND
     1    17    16    1
     2    17    18    1
     3    18    19    1
     4    19     7    1
     5     7     8    2
     6     7     9   am
     7     9    10    1
     8    10    11    1
     9    11    12    1
    10    12     1    1
    11     1     2   ar
    12     2     3   ar
    13     3     4   ar
    14     4    26    1
    15    26    27    3
    16     4     5   ar
    17     5    20    1
    18    20    21   ar
    19    21    22   ar
    20    22    23   ar
    21    23    24    1
    22    23    25   ar
    23     5     6   ar
    24    12    13    1
    25    13    14    1
    26    14    15    1
    27    19    17    1
    28    14     9    1
    29     6     1   ar
    30    25    20   ar
@<TRIPOS>MOLECULE
*****
 27 30 0 0 0
SMALL
GASTEIGER

@<TRIPOS>ATOM
      1 C          -0.2329    2.5431   19.3642 C.ar    1  UNL1        0.1512
      2 C          -0.4025    3.5603   18.2749 C.ar    1  UNL1        0.1338
      3 N          -1.5380    4.5388   18.3326 N.ar    1  UNL1       -0.2291
      4 C          -2.5039    4.5000   19.4796 C.ar    1  UNL1        0.1669
      5 C          -2.3343    3.4828   20.5689 C.ar    1  UNL1        0.1131
      6 N          -1.1988    2.5043   20.5112 N.ar    1  UNL1       -0.2268
      7 C           4.3090   -1.3708   19.1336 C.2     1  UNL1        0.2252
      8 O           5.5980   -0.9856   18.4702 O.2     1  UNL1       -0.2749
      9 N           3.1735   -0.3923   19.1913 N.am    1  UNL1       -0.2777
     10 C           1.8845   -0.7775   19.8547 C.3     1  UNL1        0.1148
     11 C           0.7491    0.2010   19.9123 C.3     1  UNL1        0.1137
     12 N           0.9026    1.5646   19.3066 N.pl3   1  UNL1       -0.2886
     13 C           2.1916    1.9498   18.6432 C.3     1  UNL1        0.1120
     14 C           3.3270    0.9713   18.5855 C.3     1  UNL1        0.0952
     15 C           4.6161    1.3565   17.9221 C.3     1  UNL1        0.0233
     16 C           4.6406   -3.8805   22.3562 C.3     1  UNL1        0.0005
     17 C           4.2768   -3.6530   20.9189 C.3     1  UNL1        0.0091
     18 C           3.7681   -4.1776   19.6090 C.3     1  UNL1        0.0095
     19 C           4.1554   -2.7344   19.7394 C.3     1  UNL1        0.0767
     20 C          -3.3002    3.4440   21.7158 C.ar    1  UNL1        0.0595
     21 C          -4.7339    3.0087   21.6468 C.ar    1  UNL1        0.1232
     22 N          -5.3218    3.1294   23.0215 N.ar    1  UNL1       -0.1675
     23 N          -4.2513    3.6393   23.9402 N.ar    1  UNL1       -0.2473
     24 C          -4.4035    3.9077   25.4082 C.3     1  UNL1        0.1538
     25 C          -3.0019    3.8338   23.1333 C.ar    1  UNL1        0.0983
     26 C          -3.6394    5.4784   19.5373 C.1     1  UNL1        0.1213
     27 N          -4.7748    6.4568   19.5950 N.1     1  UNL1       -0.1892
@<TRIPOS>BOND
     1    17    16    1
     2    17    18    1
     3    18    19    1
     4    19     7    1
     5     7     8    2
     6     7     9   am
     7     9    10    1
     8    10    11    1
     9    11    12    1
    10    12     1    1
    11     1     2   ar
    12     2     3   ar
    13     3     4   ar
    14     4    26    1
    15    26    27    3
    16     4     5   ar
    17     5    20    1
    18    20    21   ar
    19    21    22   ar
    20    22    23   ar
    21    23    24    1
    22    23    25   ar
    23     5     6   ar
    24    12    13    1
    25    13    14    1
    26    14    15    1
    27    19    17    1
    28    14     9    1
    29     6     1   ar
    30    25    20   ar
@<TRIPOS>MOLECULE
*****
 27 30 0 0 0
SMALL
GASTEIGER

@<TRIPOS>ATOM
      1 C          -0.2816    2.2756   19.9622 C.ar    1  UNL1        0.1512
      2 C          -0.2006    3.2140   18.7948 C.ar    1  UNL1        0.1338
      3 N          -1.2577    4.2602   18.5988 N.ar    1  UNL1       -0.2291
      4 C          -2.3956    4.3678   19.5702 C.ar    1  UNL1        0.1669
      5 C          -2.4765    3.4292   20.7376 C.ar    1  UNL1        0.1131
      6 N          -1.4195    2.3832   20.9335 N.ar    1  UNL1       -0.2268
      7 C           3.9466   -1.9088   20.7461 C.2     1  UNL1        0.2252
      8 O           4.4446   -2.2225   22.1258 O.2     1  UNL1       -0.2749
      9 N           2.8895   -0.8627   20.5501 N.am    1  UNL1       -0.2777
     10 C           2.3915   -0.5490   19.1704 C.3     1  UNL1        0.1148
     11 C           1.3345    0.4971   18.9745 C.3     1  UNL1        0.1137
     12 N           0.7755    1.2295   20.1582 N.pl3   1  UNL1       -0.2886
     13 C           1.2735    0.9158   21.5379 C.3     1  UNL1        0.1120
     14 C           2.3305   -0.1303   21.7338 C.3     1  UNL1        0.0952
     15 C           2.8286   -0.4440   23.1135 C.3     1  UNL1        0.0233
     16 C           4.5416   -5.4052   18.6931 C.3     1  UNL1        0.0005
     17 C           4.7233   -3.9210   18.8110 C.3     1  UNL1        0.0091
     18 C           5.2558   -2.6299   18.2636 C.3     1  UNL1        0.0095
     19 C           4.5055   -2.6412   19.5624 C.3     1  UNL1        0.0767
     20 C          -3.6144    3.5368   21.7090 C.ar    1  UNL1        0.0595
     21 C          -5.0623    3.2940   21.4013 C.ar    1  UNL1        0.1232
     22 N          -5.8470    3.5132   22.6607 N.ar    1  UNL1       -0.1675
     23 N          -4.8841    3.8916   23.7468 N.ar    1  UNL1       -0.2473
     24 C          -5.2386    4.2010   25.1711 C.3     1  UNL1        0.1538
     25 C          -3.5043    3.9062   23.1586 C.ar    1  UNL1        0.0983
     26 C          -3.4526    5.4138   19.3742 C.1     1  UNL1        0.1213
     27 N          -4.5097    6.4598   19.1783 N.1     1  UNL1       -0.1892
@<TRIPOS>BOND
     1    17    16    1
     2    17    18    1
     3    18    19    1
     4    19     7    1
     5     7     8    2
     6     7     9   am
     7     9    10    1
     8    10    11    1
     9    11    12    1
    10    12     1    1
    11     1     2   ar
    12     2     3   ar
    13     3     4   ar
    14     4    26    1
    15    26    27    3
    16     4     5   ar
    17     5    20    1
    18    20    21   ar
    19    21    22   ar
    20    22    23   ar
    21    23    24    1
    22    23    25   ar
    23     5     6   ar
    24    12    13    1
    25    13    14    1
    26    14    15    1
    27    19    17    1
    28    14     9    1
    29     6     1   ar
    30    25    20   ar
@<TRIPOS>MOLECULE
*****
 27 30 0 0 0
SMALL
GASTEIGER

@<TRIPOS>ATOM
      1 C           7.1994   -4.2005   22.9082 C.ar    1  UNL1        0.1512
      2 C           8.1460   -4.5906   21.8120 C.ar    1  UNL1        0.1338
      3 N           7.9876   -4.0044   20.4403 N.ar    1  UNL1       -0.2291
      4 C           6.8827   -3.0280   20.1650 C.ar    1  UNL1        0.1669
      5 C           5.9361   -2.6379   21.2614 C.ar    1  UNL1        0.1131
      6 N           6.0945   -3.2241   22.6329 N.ar    1  UNL1       -0.2268
      7 C           7.8328   -6.5453   28.3947 C.2     1  UNL1        0.2252
      8 O           8.4691   -7.8928   28.5655 O.2     1  UNL1       -0.2749
      9 N           7.6745   -5.9590   27.0230 N.am    1  UNL1       -0.2777
     10 C           7.0382   -4.6115   26.8522 C.3     1  UNL1        0.1148
     11 C           6.8798   -4.0253   25.4806 C.3     1  UNL1        0.1137
     12 N           7.3578   -4.7867   24.2799 N.pl3   1  UNL1       -0.2886
     13 C           7.9941   -6.1343   24.4507 C.3     1  UNL1        0.1120
     14 C           8.1524   -6.7204   25.8222 C.3     1  UNL1        0.0952
     15 C           8.7887   -8.0680   25.9931 C.3     1  UNL1        0.0233
     16 C           6.5790   -3.0390   30.1057 C.3     1  UNL1        0.0005
     17 C           6.8959   -4.5005   30.2217 C.3     1  UNL1        0.0091
     18 C           6.9860   -5.7486   31.0489 C.3     1  UNL1        0.0095
     19 C           7.3549   -5.7839   29.5954 C.3     1  UNL1        0.0767
     20 C           4.8312   -1.6615   20.9861 C.ar    1  UNL1        0.0595
     21 C           4.9238   -0.1690   21.1036 C.ar    1  UNL1        0.1232
     22 N           3.5895    0.4088   20.7350 N.ar    1  UNL1       -0.1675
     23 N           2.6721   -0.7267   20.3898 N.ar    1  UNL1       -0.2473
     24 C           1.2390   -0.6042   19.9641 C.3     1  UNL1        0.1538
     25 C           3.4395   -2.0062   20.5449 C.ar    1  UNL1        0.0983
     26 C           6.7243   -2.4418   18.7935 C.1     1  UNL1        0.1213
     27 N           6.5659   -1.8555   17.4219 N.1     1  UNL1       -0.1892
@<TRIPOS>BOND
     1    17    16    1
     2    17    18    1
     3    18    19    1
     4    19     7    1
     5     7     8    2
     6     7     9   am
     7     9    10    1
     8    10    11    1
     9    11    12    1
    10    12     1    1
    11     1     2   ar
    12     2     3   ar
    13     3     4   ar
    14     4    26    1
    15    26    27    3
    16     4     5   ar
    17     5    20    1
    18    20    21   ar
    19    21    22   ar
    20    22    23   ar
    21    23    24    1
    22    23    25   ar
    23     5     6   ar
    24    12    13    1
    25    13    14    1
    26    14    15    1
    27    19    17    1
    28    14     9    1
    29     6     1   ar
    30    25    20   ar
@<TRIPOS>MOLECULE
*****
 27 30 0 0 0
SMALL
GASTEIGER

@<TRIPOS>ATOM
      1 C           4.0136   -1.1367   25.8923 C.ar    1  UNL1        0.1512
      2 C           5.2128   -1.7338   26.5671 C.ar    1  UNL1        0.1338
      3 N           5.3575   -1.6432   28.0574 N.ar    1  UNL1       -0.2291
      4 C           4.3029   -0.9556   28.8728 C.ar    1  UNL1        0.1669
      5 C           3.1036   -0.3585   28.1980 C.ar    1  UNL1        0.1131
      6 N           2.9590   -0.4491   26.7077 N.ar    1  UNL1       -0.2268
      7 C           3.4351   -1.4991   19.9312 C.2     1  UNL1        0.2252
      8 O           2.4163   -0.6556   19.2239 O.2     1  UNL1       -0.2749
      9 N           3.5798   -1.4086   21.4215 N.am    1  UNL1       -0.2777
     10 C           4.5986   -2.2521   22.1288 C.3     1  UNL1        0.1148
     11 C           4.7432   -2.1615   23.6190 C.3     1  UNL1        0.1137
     12 N           3.8690   -1.2273   24.4020 N.pl3   1  UNL1       -0.2886
     13 C           2.8502   -0.3837   23.6947 C.3     1  UNL1        0.1120
     14 C           2.7056   -0.4744   22.2045 C.3     1  UNL1        0.0952
     15 C           1.6867    0.3693   21.4971 C.3     1  UNL1        0.0233
     16 C           4.5053   -5.3116   18.8757 C.3     1  UNL1        0.0005
     17 C           4.7011   -3.8288   18.7620 C.3     1  UNL1        0.0091
     18 C           5.4318   -2.6559   18.1785 C.3     1  UNL1        0.0095
     19 C           4.3094   -2.4333   19.1483 C.3     1  UNL1        0.0767
     20 C           2.0490    0.3292   29.0134 C.ar    1  UNL1        0.0595
     21 C           0.6229   -0.1112   29.1621 C.ar    1  UNL1        0.1232
     22 N          -0.0722    0.8654   30.0639 N.ar    1  UNL1       -0.1675
     23 N           0.9244    1.9093   30.4726 N.ar    1  UNL1       -0.2473
     24 C           0.6571    3.0793   31.3724 C.3     1  UNL1        0.1538
     25 C           2.2354    1.5779   29.8233 C.ar    1  UNL1        0.0983
     26 C           4.4475   -0.8650   30.3631 C.1     1  UNL1        0.1213
     27 N           4.5921   -0.7744   31.8533 N.1     1  UNL1       -0.1892
@<TRIPOS>BOND
     1    17    16    1
     2    17    18    1
     3    18    19    1
     4    19     7    1
     5     7     8    2
     6     7     9   am
     7     9    10    1
     8    10    11    1
     9    11    12    1
    10    12     1    1
    11     1     2   ar
    12     2     3   ar
    13     3     4   ar
    14     4    26    1
    15    26    27    3
    16     4     5   ar
    17     5    20    1
    18    20    21   ar
    19    21    22   ar
    20    22    23   ar
    21    23    24    1
    22    23    25   ar
    23     5     6   ar
    24    12    13    1
    25    13    14    1
    26    14    15    1
    27    19    17    1
    28    14     9    1
    29     6     1   ar
    30    25    20   ar
@<TRIPOS>MOLECULE
*****
 27 30 0 0 0
SMALL
GASTEIGER

@<TRIPOS>ATOM
      1 C           1.7053    1.7239   23.5585 C.ar    1  UNL1        0.1512
      2 C           1.3164    3.1713   23.4959 C.ar    1  UNL1        0.1338
      3 N           0.8664    3.8814   24.7382 N.ar    1  UNL1       -0.2291
      4 C           0.8053    3.1441   26.0430 C.ar    1  UNL1        0.1669
      5 C           1.1942    1.6967   26.1056 C.ar    1  UNL1        0.1131
      6 N           1.6442    0.9867   24.8633 N.ar    1  UNL1       -0.2268
      7 C           3.5055   -1.1166   18.5894 C.2     1  UNL1        0.2252
      8 O           3.2810   -0.4908   17.2448 O.2     1  UNL1       -0.2749
      9 N           3.0555   -0.4064   19.8317 N.am    1  UNL1       -0.2777
     10 C           3.2800   -1.0322   21.1763 C.3     1  UNL1        0.1148
     11 C           2.8299   -0.3220   22.4185 C.3     1  UNL1        0.1137
     12 N           2.1554    1.0138   22.3161 N.pl3   1  UNL1       -0.2886
     13 C           1.9309    1.6395   20.9715 C.3     1  UNL1        0.1120
     14 C           2.3809    0.9294   19.7293 C.3     1  UNL1        0.0952
     15 C           2.1564    1.5551   18.3846 C.3     1  UNL1        0.0233
     16 C           3.3929   -5.0788   19.6295 C.3     1  UNL1        0.0005
     17 C           4.1389   -3.9027   19.0725 C.3     1  UNL1        0.0091
     18 C           5.3896   -3.3158   18.4884 C.3     1  UNL1        0.0095
     19 C           4.1801   -2.4524   18.6918 C.3     1  UNL1        0.0767
     20 C           1.1331    0.9594   27.4105 C.ar    1  UNL1        0.0595
     21 C          -0.1122    0.4751   28.0921 C.ar    1  UNL1        0.1232
     22 N           0.2916   -0.2066   29.3657 N.ar    1  UNL1       -0.1675
     23 N           1.7866   -0.1437   29.4713 N.ar    1  UNL1       -0.2473
     24 C           2.6159   -0.7031   30.5890 C.3     1  UNL1        0.1538
     25 C           2.3066    0.5770   28.2629 C.ar    1  UNL1        0.0983
     26 C           0.3553    3.8541   27.2853 C.1     1  UNL1        0.1213
     27 N          -0.0948    4.5642   28.5276 N.1     1  UNL1       -0.1892
@<TRIPOS>BOND
     1    17    16    1
     2    17    18    1
     3    18    19    1
     4    19     7    1
     5     7     8    2
     6     7     9   am
     7     9    10    1
     8    10    11    1
     9    11    12    1
    10    12     1    1
    11     1     2   ar
    12     2     3   ar
    13     3     4   ar
    14     4    26    1
    15    26    27    3
    16     4     5   ar
    17     5    20    1
    18    20    21   ar
    19    21    22   ar
    20    22    23   ar
    21    23    24    1
    22    23    25   ar
    23     5     6   ar
    24    12    13    1
    25    13    14    1
    26    14    15    1
    27    19    17    1
    28    14     9    1
    29     6     1   ar
    30    25    20   ar
@<TRIPOS>MOLECULE
*****
 27 30 0 0 0
SMALL
GASTEIGER

@<TRIPOS>ATOM
      1 C           4.2237   -1.2309   26.1768 C.ar    1  UNL1        0.1512
      2 C           3.4228   -0.3605   27.0992 C.ar    1  UNL1        0.1338
      3 N           3.7253   -0.3467   28.5684 N.ar    1  UNL1       -0.2291
      4 C           4.8286   -1.2033   29.1151 C.ar    1  UNL1        0.1669
      5 C           5.6295   -2.0738   28.1925 C.ar    1  UNL1        0.1131
      6 N           5.3270   -2.0876   26.7235 N.ar    1  UNL1       -0.2268
      7 C           3.0141   -1.2863   20.3002 C.2     1  UNL1        0.2252
      8 O           1.9887   -0.3477   19.7367 O.2     1  UNL1       -0.2749
      9 N           3.3165   -1.2725   21.7694 N.am    1  UNL1       -0.2777
     10 C           4.3419   -2.2111   22.3329 C.3     1  UNL1        0.1148
     11 C           4.6442   -2.1972   23.8020 C.3     1  UNL1        0.1137
     12 N           3.9213   -1.2447   24.7076 N.pl3   1  UNL1       -0.2886
     13 C           2.8959   -0.3061   24.1441 C.3     1  UNL1        0.1120
     14 C           2.5935   -0.3200   22.6750 C.3     1  UNL1        0.0952
     15 C           1.5681    0.6187   22.1114 C.3     1  UNL1        0.0233
     16 C           3.9110   -5.1228   19.1729 C.3     1  UNL1        0.0005
     17 C           4.0653   -3.6430   18.9820 C.3     1  UNL1        0.0091
     18 C           4.6609   -2.4842   18.2387 C.3     1  UNL1        0.0095
     19 C           3.7370   -2.2388   19.3946 C.3     1  UNL1        0.0767
     20 C           6.7328   -2.9304   28.7392 C.ar    1  UNL1        0.0595
     21 C           8.1683   -2.5248   28.8970 C.ar    1  UNL1        0.1232
     22 N           8.9170   -3.6867   29.4794 N.ar    1  UNL1       -0.1675
     23 N           7.9443   -4.8105   29.6816 N.ar    1  UNL1       -0.2473
     24 C           8.2651   -6.1641   30.2427 C.3     1  UNL1        0.1538
     25 C           6.5944   -4.3431   29.2241 C.ar    1  UNL1        0.0983
     26 C           5.1310   -1.1895   30.5842 C.1     1  UNL1        0.1213
     27 N           5.4335   -1.1757   32.0532 N.1     1  UNL1       -0.1892
@<TRIPOS>BOND
     1    17    16    1
     2    17    18    1
     3    18    19    1
     4    19     7    1
     5     7     8    2
     6     7     9   am
     7     9    10    1
     8    10    11    1
     9    11    12    1
    10    12     1    1
    11     1     2   ar
    12     2     3   ar
    13     3     4   ar
    14     4    26    1
    15    26    27    3
    16     4     5   ar
    17     5    20    1
    18    20    21   ar
    19    21    22   ar
    20    22    23   ar
    21    23    24    1
    22    23    25   ar
    23     5     6   ar
    24    12    13    1
    25    13    14    1
    26    14    15    1
    27    19    17    1
    28    14     9    1
    29     6     1   ar
    30    25    20   ar
@<TRIPOS>MOLECULE
*****
 27 30 0 0 0
SMALL
GASTEIGER

@<TRIPOS>ATOM
      1 C          -0.4653    2.3922   21.9021 C.ar    1  UNL1        0.1512
      2 C          -0.4690    3.3269   23.0753 C.ar    1  UNL1        0.1338
      3 N          -1.5055    4.4071   23.1704 N.ar    1  UNL1       -0.2291
      4 C          -2.5382    4.5525   22.0922 C.ar    1  UNL1        0.1669
      5 C          -2.5344    3.6178   20.9190 C.ar    1  UNL1        0.1131
      6 N          -1.4980    2.5377   20.8240 N.ar    1  UNL1       -0.2268
      7 C           3.6805   -1.9284   21.5217 C.2     1  UNL1        0.2252
      8 O           4.5536   -2.2361   22.7020 O.2     1  UNL1       -0.2749
      9 N           2.6440   -0.8482   21.6168 N.am    1  UNL1       -0.2777
     10 C           1.7710   -0.5406   20.4366 C.3     1  UNL1        0.1148
     11 C           0.7346    0.5395   20.5317 C.3     1  UNL1        0.1137
     12 N           0.5712    1.3120   21.8071 N.pl3   1  UNL1       -0.2886
     13 C           1.4443    1.0044   22.9873 C.3     1  UNL1        0.1120
     14 C           2.4807   -0.0757   22.8922 C.3     1  UNL1        0.0952
     15 C           3.3538   -0.3834   24.0725 C.3     1  UNL1        0.0233
     16 C           5.8102   -2.7507   18.1185 C.3     1  UNL1        0.0005
     17 C           4.6234   -3.0019   19.0007 C.3     1  UNL1        0.0091
     18 C           3.3473   -3.7379   19.2831 C.3     1  UNL1        0.0095
     19 C           3.8439   -2.7009   20.2464 C.3     1  UNL1        0.0767
     20 C          -3.5672    3.7632   19.8409 C.ar    1  UNL1        0.0595
     21 C          -4.9893    3.2918   19.9129 C.ar    1  UNL1        0.1232
     22 N          -5.6602    3.6428   18.6180 N.ar    1  UNL1       -0.1675
     23 N          -4.6526    4.3312   17.7457 N.ar    1  UNL1       -0.2473
     24 C          -4.8958    4.8535   16.3608 C.3     1  UNL1        0.1538
     25 C          -3.3591    4.4056   18.5015 C.ar    1  UNL1        0.0983
     26 C          -3.5747    5.6326   22.1873 C.1     1  UNL1        0.1213
     27 N          -4.6111    6.7128   22.2823 N.1     1  UNL1       -0.1892
@<TRIPOS>BOND
     1    17    16    1
     2    17    18    1
     3    18    19    1
     4    19     7    1
     5     7     8    2
     6     7     9   am
     7     9    10    1
     8    10    11    1
     9    11    12    1
    10    12     1    1
    11     1     2   ar
    12     2     3   ar
    13     3     4   ar
    14     4    26    1
    15    26    27    3
    16     4     5   ar
    17     5    20    1
    18    20    21   ar
    19    21    22   ar
    20    22    23   ar
    21    23    24    1
    22    23    25   ar
    23     5     6   ar
    24    12    13    1
    25    13    14    1
    26    14    15    1
    27    19    17    1
    28    14     9    1
    29     6     1   ar
    30    25    20   ar
@<TRIPOS>MOLECULE
*****
 27 30 0 0 0
SMALL
GASTEIGER

@<TRIPOS>ATOM
      1 C           1.2640    1.0341   23.6651 C.ar    1  UNL1        0.1512
      2 C           0.4184    2.0538   22.9616 C.ar    1  UNL1        0.1338
      3 N          -0.5744    2.8685   23.7367 N.ar    1  UNL1       -0.2291
      4 C          -0.7216    2.6634   25.2153 C.ar    1  UNL1        0.1669
      5 C           0.1241    1.6436   25.9188 C.ar    1  UNL1        0.1131
      6 N           1.1168    0.8289   25.1437 N.ar    1  UNL1       -0.2268
      7 C           5.2351   -2.2245   20.5648 C.2     1  UNL1        0.2252
      8 O           6.0167   -3.3056   21.2507 O.2     1  UNL1       -0.2749
      9 N           4.2423   -1.4098   21.3399 N.am    1  UNL1       -0.2777
     10 C           3.4607   -0.3288   20.6540 C.3     1  UNL1        0.1148
     11 C           2.4680    0.4858   21.4291 C.3     1  UNL1        0.1137
     12 N           2.2568    0.2194   22.8901 N.pl3   1  UNL1       -0.2886
     13 C           3.0384   -0.8616   23.5760 C.3     1  UNL1        0.1120
     14 C           4.0311   -1.6762   22.8009 C.3     1  UNL1        0.0952
     15 C           4.8128   -2.7573   23.4868 C.3     1  UNL1        0.0233
     16 C           3.8317   -0.8477   16.9692 C.3     1  UNL1        0.0005
     17 C           4.9326   -1.4542   17.7878 C.3     1  UNL1        0.0091
     18 C           6.3258   -2.0007   17.8895 C.3     1  UNL1        0.0095
     19 C           5.4463   -1.9581   19.1039 C.3     1  UNL1        0.0767
     20 C          -0.0231    1.4384   27.3974 C.ar    1  UNL1        0.0595
     21 C          -0.8771    0.4003   28.0629 C.ar    1  UNL1        0.1232
     22 N          -0.7239    0.5556   29.5469 N.ar    1  UNL1       -0.1675
     23 N           0.2249    1.6898   29.7987 N.ar    1  UNL1       -0.2473
     24 C           0.6636    2.1906   31.1429 C.3     1  UNL1        0.1538
     25 C           0.6580    2.2354   28.4702 C.ar    1  UNL1        0.0983
     26 C          -1.7143    3.4780   25.9904 C.1     1  UNL1        0.1213
     27 N          -2.7071    4.2926   26.7655 N.1     1  UNL1       -0.1892
@<TRIPOS>BOND
     1    17    16    1
     2    17    18    1
     3    18    19    1
     4    19     7    1
     5     7     8    2
     6     7     9   am
     7     9    10    1
     8    10    11    1
     9    11    12    1
    10    12     1    1
    11     1     2   ar
    12     2     3   ar
    13     3     4   ar
    14     4    26    1
    15    26    27    3
    16     4     5   ar
    17     5    20    1
    18    20    21   ar
    19    21    22   ar
    20    22    23   ar
    21    23    24    1
    22    23    25   ar
    23     5     6   ar
    24    12    13    1
    25    13    14    1
    26    14    15    1
    27    19    17    1
    28    14     9    1
    29     6     1   ar
    30    25    20   ar
