@<TRIPOS>MOLECULE
*****
 24 26 0 0 0
SMALL
GASTEIGER

@<TRIPOS>ATOM
      1 C         -10.6010  -17.1741   23.0391 C.3     1  UNL1        0.0291
      2 C          -9.2768  -17.7212   22.5948 C.3     1  UNL1        0.1083
      3 C          -7.8080  -18.0249   22.5876 C.3     1  UNL1        0.0425
      4 C          -7.2159  -18.8395   21.4760 C.3     1  UNL1        0.0819
      5 S          -8.0928  -19.3505   20.3714 S.3     1  UNL1       -0.0770
      6 C          -9.5617  -19.0468   20.3786 C.2     1  UNL1        0.1484
      7 N         -10.4386  -19.5578   19.2740 N.pl3   1  UNL1       -0.3380
      8 N         -10.1538  -18.2322   21.4902 N.2     1  UNL1       -0.2508
      9 H         -10.0501  -20.0925   18.5444 H       1  UNL1        0.1442
     10 H         -11.4027  -19.3585   19.2787 H       1  UNL1        0.1442
     11 C          -8.8598  -17.0202   23.8537 C.ar    1  UNL1        0.0255
     12 C          -8.1163  -15.7197   23.7769 C.ar    1  UNL1        0.0021
     13 C          -7.6993  -15.0188   25.0357 C.ar    1  UNL1        0.0295
     14 C          -8.0258  -15.6183   26.3714 C.ar    1  UNL1        0.1424
     15 F          -7.6088  -14.9173   27.6303 F       1  UNL1       -0.2041
     16 C          -8.7694  -16.9187   26.4482 C.ar    1  UNL1        0.0590
     17 C          -9.1864  -17.6197   25.1893 C.ar    1  UNL1        0.1401
     18 F          -9.9300  -18.9202   25.2661 F       1  UNL1       -0.2044
     19 C          -5.7469  -19.1432   21.4688 C.ar    1  UNL1        0.0263
     20 C          -5.1709  -20.0368   20.4109 C.ar    1  UNL1        0.0987
     21 N          -3.7020  -20.3405   20.4038 N.ar    1  UNL1       -0.2227
     22 C          -2.8091  -19.7504   21.4547 C.ar    1  UNL1        0.1989
     23 N          -3.3851  -18.8567   22.5128 N.ar    1  UNL1       -0.2227
     24 C          -4.8541  -18.5530   22.5199 C.ar    1  UNL1        0.0987
@<TRIPOS>BOND
     1     2     1    1
     2     2    11    1
     3    11    12   ar
     4    12    13   ar
     5    13    14   ar
     6    14    15    1
     7    14    16   ar
     8    16    17   ar
     9    17    18    1
    10     2     3    1
    11     3     4    1
    12     4    19    1
    13    19    20   ar
    14    20    21   ar
    15    21    22   ar
    16    22    23   ar
    17    23    24   ar
    18     4     5    1
    19     5     6    1
    20     6     7    1
    21     6     8    2
    22     8     2    1
    23    17    11   ar
    24    24    19   ar
    25     7     9    1
    26     7    10    1
@<TRIPOS>MOLECULE
*****
 24 26 0 0 0
SMALL
GASTEIGER

@<TRIPOS>ATOM
      1 C          -9.3286  -16.1289   24.3804 C.3     1  UNL1        0.0291
      2 C          -7.9918  -16.6346   23.9250 C.3     1  UNL1        0.1083
      3 C          -6.9681  -17.4327   23.1734 C.3     1  UNL1        0.0425
      4 C          -5.5072  -17.2132   23.4332 C.3     1  UNL1        0.0819
      5 S          -5.0700  -16.1955   24.4447 S.3     1  UNL1       -0.0770
      6 C          -6.0936  -15.3974   25.1964 C.2     1  UNL1        0.1484
      7 N          -5.6564  -14.3797   26.2080 N.pl3   1  UNL1       -0.3380
      8 N          -7.5545  -15.6169   24.9366 N.2     1  UNL1       -0.2508
      9 H          -4.6975  -14.2356   26.3785 H       1  UNL1        0.1442
     10 H          -6.3283  -13.8559   26.7013 H       1  UNL1        0.1442
     11 C          -8.8933  -17.4767   23.0716 C.ar    1  UNL1        0.0255
     12 C          -9.2094  -18.8857   23.4775 C.ar    1  UNL1        0.0021
     13 C         -10.1109  -19.7276   22.6241 C.ar    1  UNL1        0.0295
     14 C         -10.6963  -19.1606   21.3648 C.ar    1  UNL1        0.1424
     15 F         -11.5978  -20.0027   20.5114 F       1  UNL1       -0.2041
     16 C         -10.3802  -17.7516   20.9589 C.ar    1  UNL1        0.0590
     17 C          -9.4787  -16.9096   21.8123 C.ar    1  UNL1        0.1401
     18 F          -9.1626  -15.5006   21.4065 F       1  UNL1       -0.2044
     19 C          -4.4835  -18.0114   22.6814 C.ar    1  UNL1        0.0263
     20 C          -3.0240  -17.7125   22.8550 C.ar    1  UNL1        0.0987
     21 N          -2.0003  -18.5107   22.1033 N.ar    1  UNL1       -0.2227
     22 C          -2.4363  -19.6078   21.1780 C.ar    1  UNL1        0.1989
     23 N          -3.8959  -19.9067   21.0043 N.ar    1  UNL1       -0.2227
     24 C          -4.9196  -19.1085   21.7561 C.ar    1  UNL1        0.0987
@<TRIPOS>BOND
     1     2     1    1
     2     2    11    1
     3    11    12   ar
     4    12    13   ar
     5    13    14   ar
     6    14    15    1
     7    14    16   ar
     8    16    17   ar
     9    17    18    1
    10     2     3    1
    11     3     4    1
    12     4    19    1
    13    19    20   ar
    14    20    21   ar
    15    21    22   ar
    16    22    23   ar
    17    23    24   ar
    18     4     5    1
    19     5     6    1
    20     6     7    1
    21     6     8    2
    22     8     2    1
    23    17    11   ar
    24    24    19   ar
    25     7     9    1
    26     7    10    1
@<TRIPOS>MOLECULE
*****
 24 26 0 0 0
SMALL
GASTEIGER

@<TRIPOS>ATOM
      1 C         -10.3520  -19.2781   20.8126 C.3     1  UNL1        0.0291
      2 C          -9.4751  -18.5007   21.7488 C.3     1  UNL1        0.1083
      3 C          -9.0550  -17.6791   22.9314 C.3     1  UNL1        0.0425
      4 C          -7.6239  -17.2548   23.0796 C.3     1  UNL1        0.0819
      5 S          -6.6129  -17.6523   22.0452 S.3     1  UNL1       -0.0770
      6 C          -7.0329  -18.4739   20.8627 C.2     1  UNL1        0.1484
      7 N          -6.0219  -18.8713   19.8283 N.pl3   1  UNL1       -0.3380
      8 N          -8.4640  -18.8981   20.7145 N.2     1  UNL1       -0.2508
      9 H          -5.0826  -18.5929   19.9256 H       1  UNL1        0.1442
     10 H          -6.2976  -19.4106   19.0522 H       1  UNL1        0.1442
     11 C         -10.7907  -18.3733   22.4580 C.ar    1  UNL1        0.0255
     12 C         -11.0002  -19.0540   23.7781 C.ar    1  UNL1        0.0021
     13 C         -12.3158  -18.9265   24.4873 C.ar    1  UNL1        0.0295
     14 C         -13.4219  -18.1184   23.8763 C.ar    1  UNL1        0.1424
     15 F         -14.7376  -17.9910   24.5854 F       1  UNL1       -0.2041
     16 C         -13.2125  -17.4377   22.5561 C.ar    1  UNL1        0.0590
     17 C         -11.8969  -17.5651   21.8470 C.ar    1  UNL1        0.1401
     18 F         -11.6874  -16.8844   20.5268 F       1  UNL1       -0.2044
     19 C          -7.2039  -16.4331   24.2622 C.ar    1  UNL1        0.0263
     20 C          -5.8388  -15.8126   24.2975 C.ar    1  UNL1        0.0987
     21 N          -5.4188  -14.9909   25.4801 N.ar    1  UNL1       -0.2227
     22 C          -6.3640  -14.7898   26.6273 C.ar    1  UNL1        0.1989
     23 N          -7.7291  -15.4104   26.5920 N.ar    1  UNL1       -0.2227
     24 C          -8.1492  -16.2321   25.4095 C.ar    1  UNL1        0.0987
@<TRIPOS>BOND
     1     2     1    1
     2     2    11    1
     3    11    12   ar
     4    12    13   ar
     5    13    14   ar
     6    14    15    1
     7    14    16   ar
     8    16    17   ar
     9    17    18    1
    10     2     3    1
    11     3     4    1
    12     4    19    1
    13    19    20   ar
    14    20    21   ar
    15    21    22   ar
    16    22    23   ar
    17    23    24   ar
    18     4     5    1
    19     5     6    1
    20     6     7    1
    21     6     8    2
    22     8     2    1
    23    17    11   ar
    24    24    19   ar
    25     7     9    1
    26     7    10    1
@<TRIPOS>MOLECULE
*****
 24 26 0 0 0
SMALL
GASTEIGER

@<TRIPOS>ATOM
      1 C          -9.5384  -19.2665   20.4926 C.3     1  UNL1        0.0291
      2 C          -9.1009  -18.4003   21.6364 C.3     1  UNL1        0.1083
      3 C          -8.2116  -17.7663   22.6646 C.3     1  UNL1        0.0425
      4 C          -8.7751  -16.7647   23.6286 C.3     1  UNL1        0.0819
      5 S         -10.2280  -16.3972   23.5643 S.3     1  UNL1       -0.0770
      6 C         -11.1173  -17.0312   22.5362 C.2     1  UNL1        0.1484
      7 N         -12.5702  -16.6636   22.4720 N.pl3   1  UNL1       -0.3380
      8 N         -10.5538  -18.0328   21.5722 N.2     1  UNL1       -0.2508
      9 H         -12.9401  -16.0063   23.1047 H       1  UNL1        0.1442
     10 H         -13.1539  -17.0798   21.7972 H       1  UNL1        0.1442
     11 C          -7.7999  -19.0687   21.3034 C.ar    1  UNL1        0.0255
     12 C          -6.9823  -18.5825   20.1436 C.ar    1  UNL1        0.0021
     13 C          -5.6814  -19.2509   19.8106 C.ar    1  UNL1        0.0295
     14 C          -5.1982  -20.4054   20.6373 C.ar    1  UNL1        0.1424
     15 F          -3.8972  -21.0738   20.3042 F       1  UNL1       -0.2041
     16 C          -6.0158  -20.8916   21.7970 C.ar    1  UNL1        0.0590
     17 C          -7.3167  -20.2233   22.1301 C.ar    1  UNL1        0.1401
     18 F          -8.1344  -20.7095   23.2898 F       1  UNL1       -0.2044
     19 C          -7.8858  -16.1307   24.6567 C.ar    1  UNL1        0.0263
     20 C          -6.5621  -15.5541   24.2504 C.ar    1  UNL1        0.0987
     21 N          -5.6727  -14.9200   25.2786 N.ar    1  UNL1       -0.2227
     22 C          -6.1072  -14.8627   26.7131 C.ar    1  UNL1        0.1989
     23 N          -7.4310  -15.4393   27.1195 N.ar    1  UNL1       -0.2227
     24 C          -8.3203  -16.0733   26.0913 C.ar    1  UNL1        0.0987
@<TRIPOS>BOND
     1     2     1    1
     2     2    11    1
     3    11    12   ar
     4    12    13   ar
     5    13    14   ar
     6    14    15    1
     7    14    16   ar
     8    16    17   ar
     9    17    18    1
    10     2     3    1
    11     3     4    1
    12     4    19    1
    13    19    20   ar
    14    20    21   ar
    15    21    22   ar
    16    22    23   ar
    17    23    24   ar
    18     4     5    1
    19     5     6    1
    20     6     7    1
    21     6     8    2
    22     8     2    1
    23    17    11   ar
    24    24    19   ar
    25     7     9    1
    26     7    10    1
@<TRIPOS>MOLECULE
*****
 24 26 0 0 0
SMALL
GASTEIGER

@<TRIPOS>ATOM
      1 C         -17.9034   -5.6545   19.4292 C.3     1  UNL1        0.0291
      2 C         -16.4075   -5.5715   19.3565 C.3     1  UNL1        0.1083
      3 C         -14.9789   -5.9958   19.1863 C.3     1  UNL1        0.0425
      4 C         -13.8760   -4.9883   19.3224 C.3     1  UNL1        0.0819
      5 S         -14.2017   -3.5565   19.6288 S.3     1  UNL1       -0.0770
      6 C         -15.6303   -3.1322   19.7990 C.2     1  UNL1        0.1484
      7 N         -15.9561   -1.7004   20.1054 N.pl3   1  UNL1       -0.3380
      8 N         -16.7332   -4.1397   19.6629 N.2     1  UNL1       -0.2508
      9 H         -15.2322   -1.0391   20.1947 H       1  UNL1        0.1442
     10 H         -16.8937   -1.4219   20.2171 H       1  UNL1        0.1442
     11 C         -16.6013   -7.0322   19.0754 C.ar    1  UNL1        0.0255
     12 C         -16.6301   -8.0164   20.2069 C.ar    1  UNL1        0.0021
     13 C         -16.8239   -9.4770   19.9258 C.ar    1  UNL1        0.0295
     14 C         -16.9889   -9.9533   18.5130 C.ar    1  UNL1        0.1424
     15 F         -17.1828  -11.4140   18.2319 F       1  UNL1       -0.2041
     16 C         -16.9602   -8.9691   17.3815 C.ar    1  UNL1        0.0590
     17 C         -16.7663   -7.5086   17.6627 C.ar    1  UNL1        0.1401
     18 F         -16.7376   -6.5243   16.5311 F       1  UNL1       -0.2044
     19 C         -12.4473   -5.4126   19.1521 C.ar    1  UNL1        0.0263
     20 C         -11.3546   -4.3851   19.1521 C.ar    1  UNL1        0.0987
     21 N          -9.9260   -4.8095   18.9818 N.ar    1  UNL1       -0.2227
     22 C          -9.5901   -6.2614   18.8116 C.ar    1  UNL1        0.1989
     23 N         -10.6828   -7.2890   18.8116 N.ar    1  UNL1       -0.2227
     24 C         -12.1115   -6.8647   18.9819 C.ar    1  UNL1        0.0987
@<TRIPOS>BOND
     1     2     1    1
     2     2    11    1
     3    11    12   ar
     4    12    13   ar
     5    13    14   ar
     6    14    15    1
     7    14    16   ar
     8    16    17   ar
     9    17    18    1
    10     2     3    1
    11     3     4    1
    12     4    19    1
    13    19    20   ar
    14    20    21   ar
    15    21    22   ar
    16    22    23   ar
    17    23    24   ar
    18     4     5    1
    19     5     6    1
    20     6     7    1
    21     6     8    2
    22     8     2    1
    23    17    11   ar
    24    24    19   ar
    25     7     9    1
    26     7    10    1
@<TRIPOS>MOLECULE
*****
 24 26 0 0 0
SMALL
GASTEIGER

@<TRIPOS>ATOM
      1 C          -3.6762  -17.6131   23.8511 C.3     1  UNL1        0.0291
      2 C          -5.1021  -17.2727   23.5332 C.3     1  UNL1        0.1083
      3 C          -6.4287  -17.2722   22.8332 C.3     1  UNL1        0.0425
      4 C          -7.5458  -16.4112   23.3438 C.3     1  UNL1        0.0819
      5 S          -7.3363  -15.5507   24.5544 S.3     1  UNL1       -0.0770
      6 C          -6.0097  -15.5511   25.2544 C.2     1  UNL1        0.1484
      7 N          -5.8002  -14.6906   26.4651 N.pl3   1  UNL1       -0.3380
      8 N          -4.8926  -16.4121   24.7439 N.2     1  UNL1       -0.2508
      9 H          -6.5334  -14.1255   26.8002 H       1  UNL1        0.1442
     10 H          -4.9295  -14.6909   26.9245 H       1  UNL1        0.1442
     11 C          -4.8164  -18.2515   22.4330 C.ar    1  UNL1        0.0255
     12 C          -5.7339  -19.4167   22.2088 C.ar    1  UNL1        0.0021
     13 C          -5.4481  -20.3954   21.1086 C.ar    1  UNL1        0.0295
     14 C          -4.2449  -20.2089   20.2326 C.ar    1  UNL1        0.1424
     15 F          -3.9592  -21.1876   19.1324 F       1  UNL1       -0.2041
     16 C          -3.3274  -19.0436   20.4568 C.ar    1  UNL1        0.0590
     17 C          -3.6131  -18.0649   21.5570 C.ar    1  UNL1        0.1401
     18 F          -2.6956  -16.8996   21.7812 F       1  UNL1       -0.2044
     19 C          -8.8725  -16.4108   22.6437 C.ar    1  UNL1        0.0263
     20 C          -9.0635  -15.5956   21.3992 C.ar    1  UNL1        0.0987
     21 N         -10.3902  -15.5952   20.6991 N.ar    1  UNL1       -0.2227
     22 C         -11.5257  -16.4099   21.2437 C.ar    1  UNL1        0.1989
     23 N         -11.3347  -17.2251   22.4882 N.ar    1  UNL1       -0.2227
     24 C         -10.0081  -17.2256   23.1883 C.ar    1  UNL1        0.0987
@<TRIPOS>BOND
     1     2     1    1
     2     2    11    1
     3    11    12   ar
     4    12    13   ar
     5    13    14   ar
     6    14    15    1
     7    14    16   ar
     8    16    17   ar
     9    17    18    1
    10     2     3    1
    11     3     4    1
    12     4    19    1
    13    19    20   ar
    14    20    21   ar
    15    21    22   ar
    16    22    23   ar
    17    23    24   ar
    18     4     5    1
    19     5     6    1
    20     6     7    1
    21     6     8    2
    22     8     2    1
    23    17    11   ar
    24    24    19   ar
    25     7     9    1
    26     7    10    1
@<TRIPOS>MOLECULE
*****
 24 26 0 0 0
SMALL
GASTEIGER

@<TRIPOS>ATOM
      1 C          -4.5143  -15.9128   25.3712 C.3     1  UNL1        0.0291
      2 C          -5.6917  -16.2388   24.5009 C.3     1  UNL1        0.1083
      3 C          -6.4811  -16.7230   23.3210 C.3     1  UNL1        0.0425
      4 C          -7.9787  -16.6384   23.3347 C.3     1  UNL1        0.0819
      5 S          -8.6867  -16.0696   24.5285 S.3     1  UNL1       -0.0770
      6 C          -7.8973  -15.5854   25.7085 C.2     1  UNL1        0.1484
      7 N          -8.6054  -15.0166   26.9022 N.pl3   1  UNL1       -0.3380
      8 N          -6.3998  -15.6700   25.6947 N.2     1  UNL1       -0.2508
      9 H          -9.5883  -14.9610   26.9113 H       1  UNL1        0.1442
     10 H          -8.0872  -14.6988   27.6767 H       1  UNL1        0.1442
     11 C          -4.5746  -16.6945   23.6094 C.ar    1  UNL1        0.0255
     12 C          -4.1942  -18.1447   23.5653 C.ar    1  UNL1        0.0021
     13 C          -3.0772  -18.6003   22.6738 C.ar    1  UNL1        0.0295
     14 C          -2.3407  -17.6056   21.8264 C.ar    1  UNL1        0.1424
     15 F          -1.2236  -18.0612   20.9349 F       1  UNL1       -0.2041
     16 C          -2.7211  -16.1553   21.8705 C.ar    1  UNL1        0.0590
     17 C          -3.8381  -15.6998   22.7619 C.ar    1  UNL1        0.1401
     18 F          -4.2186  -14.2495   22.8060 F       1  UNL1       -0.2044
     19 C          -8.7681  -17.1227   22.1547 C.ar    1  UNL1        0.0263
     20 C          -9.9773  -16.3618   21.6980 C.ar    1  UNL1        0.0987
     21 N         -10.7668  -16.8460   20.5180 N.ar    1  UNL1       -0.2227
     22 C         -10.3468  -18.0913   19.7948 C.ar    1  UNL1        0.1989
     23 N          -9.1376  -18.8523   20.2515 N.ar    1  UNL1       -0.2227
     24 C          -8.3482  -18.3680   21.4315 C.ar    1  UNL1        0.0987
@<TRIPOS>BOND
     1     2     1    1
     2     2    11    1
     3    11    12   ar
     4    12    13   ar
     5    13    14   ar
     6    14    15    1
     7    14    16   ar
     8    16    17   ar
     9    17    18    1
    10     2     3    1
    11     3     4    1
    12     4    19    1
    13    19    20   ar
    14    20    21   ar
    15    21    22   ar
    16    22    23   ar
    17    23    24   ar
    18     4     5    1
    19     5     6    1
    20     6     7    1
    21     6     8    2
    22     8     2    1
    23    17    11   ar
    24    24    19   ar
    25     7     9    1
    26     7    10    1
@<TRIPOS>MOLECULE
*****
 24 26 0 0 0
SMALL
GASTEIGER

@<TRIPOS>ATOM
      1 C         -17.6995   -5.4853   19.7066 C.3     1  UNL1        0.0291
      2 C         -16.2762   -5.8165   19.3680 C.3     1  UNL1        0.1083
      3 C         -15.0974   -6.5355   18.7820 C.3     1  UNL1        0.0425
      4 C         -13.7091   -6.0226   19.0257 C.3     1  UNL1        0.0819
      5 S         -13.4996   -4.7906   19.8554 S.3     1  UNL1       -0.0770
      6 C         -14.6783   -4.0716   20.4414 C.2     1  UNL1        0.1484
      7 N         -14.4688   -2.8396   21.2711 N.pl3   1  UNL1       -0.3380
      8 N         -16.0667   -4.5845   20.1977 N.2     1  UNL1       -0.2508
      9 H         -13.5576   -2.5030   21.4311 H       1  UNL1        0.1442
     10 H         -15.2425   -2.3677   21.6557 H       1  UNL1        0.1442
     11 C         -16.9801   -6.9335   18.6559 C.ar    1  UNL1        0.0255
     12 C         -17.4474   -6.7455   17.2430 C.ar    1  UNL1        0.0021
     13 C         -18.1512   -7.8624   16.5310 C.ar    1  UNL1        0.0295
     14 C         -18.3877   -9.1674   17.2318 C.ar    1  UNL1        0.1424
     15 F         -19.0916  -10.2843   16.5198 F       1  UNL1       -0.2041
     16 C         -17.9204   -9.3553   18.6447 C.ar    1  UNL1        0.0590
     17 C         -17.2166   -8.2384   19.3567 C.ar    1  UNL1        0.1401
     18 F         -16.7493   -8.4263   20.7697 F       1  UNL1       -0.2044
     19 C         -12.5302   -6.7417   18.4397 C.ar    1  UNL1        0.0263
     20 C         -12.6645   -7.4582   17.1289 C.ar    1  UNL1        0.0987
     21 N         -11.4857   -8.1773   16.5429 N.ar    1  UNL1       -0.2227
     22 C         -10.1726   -8.1798   17.2679 C.ar    1  UNL1        0.1989
     23 N         -10.0382   -7.4633   18.5788 N.ar    1  UNL1       -0.2227
     24 C         -11.2171   -6.7442   19.1648 C.ar    1  UNL1        0.0987
@<TRIPOS>BOND
     1     2     1    1
     2     2    11    1
     3    11    12   ar
     4    12    13   ar
     5    13    14   ar
     6    14    15    1
     7    14    16   ar
     8    16    17   ar
     9    17    18    1
    10     2     3    1
    11     3     4    1
    12     4    19    1
    13    19    20   ar
    14    20    21   ar
    15    21    22   ar
    16    22    23   ar
    17    23    24   ar
    18     4     5    1
    19     5     6    1
    20     6     7    1
    21     6     8    2
    22     8     2    1
    23    17    11   ar
    24    24    19   ar
    25     7     9    1
    26     7    10    1
@<TRIPOS>MOLECULE
*****
 24 26 0 0 0
SMALL
GASTEIGER

@<TRIPOS>ATOM
      1 C           3.7632   -0.7758   16.9590 C.3     1  UNL1        0.0291
      2 C           3.7822   -0.9979   18.4424 C.3     1  UNL1        0.1083
      3 C           3.7039   -0.7085   19.9121 C.3     1  UNL1        0.0425
      4 C           3.8994   -1.8150   20.9058 C.3     1  UNL1        0.0819
      5 S           4.1732   -3.2109   20.4298 S.3     1  UNL1       -0.0770
      6 C           4.2515   -3.5003   18.9601 C.2     1  UNL1        0.1484
      7 N           4.5253   -4.8962   18.4841 N.pl3   1  UNL1       -0.3380
      8 N           4.0560   -2.3938   17.9664 N.2     1  UNL1       -0.2508
      9 H           4.6536   -5.6224   19.1363 H       1  UNL1        0.1442
     10 H           4.5767   -5.0861   17.5195 H       1  UNL1        0.1442
     11 C           3.5018    0.4752   18.4032 C.ar    1  UNL1        0.0255
     12 C           4.6311    1.4497   18.2451 C.ar    1  UNL1        0.0021
     13 C           4.3506    2.9226   18.2059 C.ar    1  UNL1        0.0295
     14 C           2.9409    3.4211   18.3248 C.ar    1  UNL1        0.1424
     15 F           2.6604    4.8942   18.2856 F       1  UNL1       -0.2041
     16 C           1.8116    2.4466   18.4829 C.ar    1  UNL1        0.0590
     17 C           2.0921    0.9736   18.5221 C.ar    1  UNL1        0.1401
     18 F           0.9627   -0.0009   18.6801 F       1  UNL1       -0.2044
     19 C           3.8211   -1.5255   22.3756 C.ar    1  UNL1        0.0263
     20 C           4.6887   -2.2829   23.3364 C.ar    1  UNL1        0.0987
     21 N           4.6104   -1.9934   24.8062 N.ar    1  UNL1       -0.2227
     22 C           3.6643   -0.9465   25.3149 C.ar    1  UNL1        0.1989
     23 N           2.7965   -0.1891   24.3541 N.ar    1  UNL1       -0.2227
     24 C           2.8749   -0.4786   22.8843 C.ar    1  UNL1        0.0987
@<TRIPOS>BOND
     1     2     1    1
     2     2    11    1
     3    11    12   ar
     4    12    13   ar
     5    13    14   ar
     6    14    15    1
     7    14    16   ar
     8    16    17   ar
     9    17    18    1
    10     2     3    1
    11     3     4    1
    12     4    19    1
    13    19    20   ar
    14    20    21   ar
    15    21    22   ar
    16    22    23   ar
    17    23    24   ar
    18     4     5    1
    19     5     6    1
    20     6     7    1
    21     6     8    2
    22     8     2    1
    23    17    11   ar
    24    24    19   ar
    25     7     9    1
    26     7    10    1
