@<TRIPOS>MOLECULE
*****
 32 36 0 0 0
SMALL
GASTEIGER

@<TRIPOS>ATOM
      1 N          -4.2044  -16.9292   23.6864 N.pl3   1  UNL1       -0.3046
      2 C          -4.9933  -15.6869   23.3961 C.3     1  UNL1        0.1081
      3 C          -5.7133  -14.9793   24.5057 C.3     1  UNL1        0.0938
      4 N          -5.6444  -15.5140   25.9054 N.3     1  UNL1       -0.2695
      5 C          -4.8555  -16.7563   26.1957 C.3     1  UNL1        0.0938
      6 C          -4.1355  -17.4639   25.0862 C.3     1  UNL1        0.1081
      7 C          -6.2560  -21.9673   19.4842 C.3     1  UNL1        0.0521
      8 C          -5.5631  -20.8847   20.2574 C.ar    1  UNL1        0.0593
      9 C          -6.2831  -20.1771   21.3669 C.ar    1  UNL1        0.0148
     10 C          -5.5902  -19.0945   22.1400 C.ar    1  UNL1        0.0039
     11 C          -4.1773  -18.7194   21.8038 C.ar    1  UNL1        0.0310
     12 C          -3.4844  -17.6368   22.5770 C.ar    1  UNL1        0.0493
     13 C          -2.0716  -17.2617   22.2407 C.ar    1  UNL1        0.0146
     14 C          -1.3515  -17.9693   21.1312 C.ar    1  UNL1        0.0028
     15 C          -2.0444  -19.0520   20.3581 C.ar    1  UNL1        0.0192
     16 C          -3.4573  -19.4270   20.6944 C.ar    1  UNL1        0.0821
     17 N          -4.1502  -20.5096   19.9212 N.ar    1  UNL1       -0.2496
     18 C          -6.3644  -14.8064   27.0149 C.3     1  UNL1        0.0769
     19 C          -7.8484  -14.9643   27.1666 C.3     1  UNL1        0.0437
     20 C          -8.5785  -15.9990   26.3628 C.ar    1  UNL1       -0.0196
     21 C          -8.8216  -17.3624   26.9392 C.ar    1  UNL1       -0.0041
     22 C          -9.5518  -18.3972   26.1355 C.ar    1  UNL1        0.0010
     23 C         -10.0389  -18.0687   24.7553 C.ar    1  UNL1        0.0149
     24 C          -9.7958  -16.7053   24.1789 C.ar    1  UNL1        0.0550
     25 C          -9.0656  -15.6705   24.9827 C.ar    1  UNL1        0.0107
     26 N         -10.2829  -16.3768   22.7988 N.am    1  UNL1       -0.2416
     27 C         -11.7153  -16.3388   22.3551 C.3     1  UNL1        0.1210
     28 C         -11.7408  -15.9671   20.9021 C.3     1  UNL1        0.1128
     29 N         -10.3241  -15.7753   20.4478 N.am    1  UNL1       -0.2867
     30 C          -9.4231  -16.0285   21.6201 C.2     1  UNL1        0.3078
     31 O          -7.9253  -15.9477   21.6145 O.2     1  UNL1       -0.2522
     32 H         -10.0362  -15.5269   19.5397 H       1  UNL1        0.1510
@<TRIPOS>BOND
     1     7     8    1
     2     8     9   ar
     3     9    10   ar
     4    10    11   ar
     5    11    12   ar
     6    12     1    1
     7     1     2    1
     8     2     3    1
     9     3     4    1
    10     4    18    1
    11    18    19    1
    12    19    20    1
    13    20    21   ar
    14    21    22   ar
    15    22    23   ar
    16    23    24   ar
    17    24    26    1
    18    26    27    1
    19    27    28    1
    20    28    29    1
    21    29    30   am
    22    30    31    2
    23    24    25   ar
    24     4     5    1
    25     5     6    1
    26    12    13   ar
    27    13    14   ar
    28    14    15   ar
    29    15    16   ar
    30    16    17   ar
    31    17     8   ar
    32    16    11   ar
    33     6     1    1
    34    25    20   ar
    35    30    26   am
    36    29    32    1
@<TRIPOS>MOLECULE
*****
 32 36 0 0 0
SMALL
GASTEIGER

@<TRIPOS>ATOM
      1 N         -16.3351   -4.2026   19.0051 N.pl3   1  UNL1       -0.3046
      2 C         -15.4876   -3.7493   20.1567 C.3     1  UNL1        0.1081
      3 C         -14.5611   -2.5811   19.9919 C.3     1  UNL1        0.0938
      4 N         -14.4823   -1.8663   18.6756 N.3     1  UNL1       -0.2695
      5 C         -15.3298   -2.3196   17.5240 C.3     1  UNL1        0.0938
      6 C         -16.2562   -3.4877   17.6887 C.3     1  UNL1        0.1081
      7 C         -15.3175  -10.9279   18.0129 C.3     1  UNL1        0.0521
      8 C         -15.8035   -9.5386   18.3021 C.ar    1  UNL1        0.0593
      9 C         -14.8771   -8.3705   18.1374 C.ar    1  UNL1        0.0148
     10 C         -15.3631   -6.9812   18.4266 C.ar    1  UNL1        0.0039
     11 C         -16.7755   -6.7600   18.8806 C.ar    1  UNL1        0.0310
     12 C         -17.2615   -5.3707   19.1698 C.ar    1  UNL1        0.0493
     13 C         -18.6740   -5.1496   19.6238 C.ar    1  UNL1        0.0146
     14 C         -19.6005   -6.3177   19.7885 C.ar    1  UNL1        0.0028
     15 C         -19.1145   -7.7070   19.4993 C.ar    1  UNL1        0.0192
     16 C         -17.7020   -7.9282   19.0453 C.ar    1  UNL1        0.0821
     17 N         -17.2160   -9.3175   18.7561 N.ar    1  UNL1       -0.2496
     18 C         -13.5558   -0.6981   18.5108 C.3     1  UNL1        0.0769
     19 C         -12.0874   -0.8632   18.7688 C.3     1  UNL1        0.0437
     20 C         -11.2812   -1.8126   17.9331 C.ar    1  UNL1       -0.0196
     21 C         -10.4243   -1.2891   16.8188 C.ar    1  UNL1       -0.0041
     22 C          -9.6181   -2.2385   15.9831 C.ar    1  UNL1        0.0010
     23 C          -9.6687   -3.7116   16.2617 C.ar    1  UNL1        0.0149
     24 C         -10.5256   -4.2352   17.3760 C.ar    1  UNL1        0.0550
     25 C         -11.3318   -3.2856   18.2117 C.ar    1  UNL1        0.0107
     26 N         -10.5762   -5.7082   17.6545 N.am    1  UNL1       -0.2416
     27 C         -11.3727   -6.7233   16.8896 C.3     1  UNL1        0.1210
     28 C         -11.1280   -8.0672   17.5093 C.3     1  UNL1        0.1128
     29 N         -10.1803   -7.8826   18.6572 N.am    1  UNL1       -0.2867
     30 C          -9.8393   -6.4247   18.7470 C.2     1  UNL1        0.3078
     31 O          -8.9223   -5.7940   19.7527 O.2     1  UNL1       -0.2522
     32 H          -9.8415   -8.5936   19.2481 H       1  UNL1        0.1510
@<TRIPOS>BOND
     1     7     8    1
     2     8     9   ar
     3     9    10   ar
     4    10    11   ar
     5    11    12   ar
     6    12     1    1
     7     1     2    1
     8     2     3    1
     9     3     4    1
    10     4    18    1
    11    18    19    1
    12    19    20    1
    13    20    21   ar
    14    21    22   ar
    15    22    23   ar
    16    23    24   ar
    17    24    26    1
    18    26    27    1
    19    27    28    1
    20    28    29    1
    21    29    30   am
    22    30    31    2
    23    24    25   ar
    24     4     5    1
    25     5     6    1
    26    12    13   ar
    27    13    14   ar
    28    14    15   ar
    29    15    16   ar
    30    16    17   ar
    31    17     8   ar
    32    16    11   ar
    33     6     1    1
    34    25    20   ar
    35    30    26   am
    36    29    32    1
@<TRIPOS>MOLECULE
*****
 32 36 0 0 0
SMALL
GASTEIGER

@<TRIPOS>ATOM
      1 N           2.7224    1.2635   19.5985 N.pl3   1  UNL1       -0.3046
      2 C           2.9197    1.6738   21.0277 C.3     1  UNL1        0.1081
      3 C           1.7738    2.2454   21.8089 C.3     1  UNL1        0.0938
      4 N           0.4307    2.4067   21.1609 N.3     1  UNL1       -0.2695
      5 C           0.2334    1.9964   19.7317 C.3     1  UNL1        0.0938
      6 C           1.3792    1.4248   18.9505 C.3     1  UNL1        0.1081
      7 C           4.7556   -5.2409   18.6994 C.3     1  UNL1        0.0521
      8 C           4.5338   -3.7577   18.7289 C.ar    1  UNL1        0.0593
      9 C           3.3880   -3.1861   19.5101 C.ar    1  UNL1        0.0148
     10 C           3.1661   -1.7029   19.5395 C.ar    1  UNL1        0.0039
     11 C           4.0901   -0.7913   18.7878 C.ar    1  UNL1        0.0310
     12 C           3.8683    0.6919   18.8173 C.ar    1  UNL1        0.0493
     13 C           4.7922    1.6036   18.0655 C.ar    1  UNL1        0.0146
     14 C           5.9381    1.0320   17.2842 C.ar    1  UNL1        0.0028
     15 C           6.1600   -0.4512   17.2548 C.ar    1  UNL1        0.0192
     16 C           5.2359   -1.3629   18.0066 C.ar    1  UNL1        0.0821
     17 N           5.4578   -2.8461   17.9771 N.ar    1  UNL1       -0.2496
     18 C          -0.7152    2.9783   21.9421 C.3     1  UNL1        0.0769
     19 C          -0.5254    3.3621   23.3797 C.3     1  UNL1        0.0437
     20 C          -1.7160    3.5086   24.2803 C.ar    1  UNL1       -0.0196
     21 C          -1.5537    3.3762   25.7656 C.ar    1  UNL1       -0.0041
     22 C          -2.7443    3.5228   26.6662 C.ar    1  UNL1        0.0010
     23 C          -4.0972    3.8018   26.0814 C.ar    1  UNL1        0.0149
     24 C          -4.2594    3.9343   24.5961 C.ar    1  UNL1        0.0550
     25 C          -3.0688    3.7877   23.6956 C.ar    1  UNL1        0.0107
     26 N          -5.6123    4.2133   24.0114 N.am    1  UNL1       -0.2416
     27 C          -6.7470    4.9064   24.7057 C.3     1  UNL1        0.1210
     28 C          -7.9040    4.9697   23.7531 C.3     1  UNL1        0.1128
     29 N          -7.4842    4.3157   22.4700 N.am    1  UNL1       -0.2867
     30 C          -6.0679    3.8482   22.6297 C.2     1  UNL1        0.3078
     31 O          -5.2507    3.1400   21.5902 O.2     1  UNL1       -0.2522
     32 H          -8.0406    4.2115   21.6645 H       1  UNL1        0.1510
@<TRIPOS>BOND
     1     7     8    1
     2     8     9   ar
     3     9    10   ar
     4    10    11   ar
     5    11    12   ar
     6    12     1    1
     7     1     2    1
     8     2     3    1
     9     3     4    1
    10     4    18    1
    11    18    19    1
    12    19    20    1
    13    20    21   ar
    14    21    22   ar
    15    22    23   ar
    16    23    24   ar
    17    24    26    1
    18    26    27    1
    19    27    28    1
    20    28    29    1
    21    29    30   am
    22    30    31    2
    23    24    25   ar
    24     4     5    1
    25     5     6    1
    26    12    13   ar
    27    13    14   ar
    28    14    15   ar
    29    15    16   ar
    30    16    17   ar
    31    17     8   ar
    32    16    11   ar
    33     6     1    1
    34    25    20   ar
    35    30    26   am
    36    29    32    1
@<TRIPOS>MOLECULE
*****
 32 36 0 0 0
SMALL
GASTEIGER

@<TRIPOS>ATOM
      1 N           2.0195    0.9223   21.6908 N.pl3   1  UNL1       -0.3046
      2 C           2.7073    2.1378   21.1434 C.3     1  UNL1        0.1081
      3 C           1.9000    3.2472   20.5372 C.3     1  UNL1        0.0938
      4 N           0.4049    3.1412   20.4783 N.3     1  UNL1       -0.2695
      5 C          -0.2829    1.9257   21.0257 C.3     1  UNL1        0.0938
      6 C           0.5243    0.8163   21.6319 C.3     1  UNL1        0.1081
      7 C           4.6105   -4.8009   18.9015 C.3     1  UNL1        0.0521
      8 C           4.1645   -3.6475   19.7504 C.ar    1  UNL1        0.0593
      9 C           3.3573   -2.5381   19.1441 C.ar    1  UNL1        0.0148
     10 C           2.9114   -1.3846   19.9930 C.ar    1  UNL1        0.0039
     11 C           3.2726   -1.3405   21.4481 C.ar    1  UNL1        0.0310
     12 C           2.8267   -0.1870   22.2970 C.ar    1  UNL1        0.0493
     13 C           3.1880   -0.1430   23.7522 C.ar    1  UNL1        0.0146
     14 C           3.9953   -1.2524   24.3585 C.ar    1  UNL1        0.0028
     15 C           4.4412   -2.4059   23.5096 C.ar    1  UNL1        0.0192
     16 C           4.0799   -2.4499   22.0544 C.ar    1  UNL1        0.0821
     17 N           4.5258   -3.6034   21.2055 N.ar    1  UNL1       -0.2496
     18 C          -0.4024    4.2506   19.8720 C.3     1  UNL1        0.0769
     19 C          -1.4092    3.9474   18.8023 C.3     1  UNL1        0.0437
     20 C          -2.8685    3.8808   19.1429 C.ar    1  UNL1       -0.0196
     21 C          -3.8916    3.8074   18.0484 C.ar    1  UNL1       -0.0041
     22 C          -5.3508    3.7408   18.3890 C.ar    1  UNL1        0.0010
     23 C          -5.7871    3.7476   19.8242 C.ar    1  UNL1        0.0149
     24 C          -4.7640    3.8210   20.9187 C.ar    1  UNL1        0.0550
     25 C          -3.3047    3.8876   20.5780 C.ar    1  UNL1        0.0107
     26 N          -5.2002    3.8278   22.3539 N.am    1  UNL1       -0.2416
     27 C          -4.4030    3.3234   23.5201 C.3     1  UNL1        0.1210
     28 C          -5.2203    3.5241   24.7618 C.3     1  UNL1        0.1128
     29 N          -6.5226    4.1526   24.3629 N.am    1  UNL1       -0.2867
     30 C          -6.5102    4.3403   22.8748 C.2     1  UNL1        0.3078
     31 O          -7.6139    4.9359   22.0520 O.2     1  UNL1       -0.2522
     32 H          -7.2566    4.3987   24.9711 H       1  UNL1        0.1510
@<TRIPOS>BOND
     1     7     8    1
     2     8     9   ar
     3     9    10   ar
     4    10    11   ar
     5    11    12   ar
     6    12     1    1
     7     1     2    1
     8     2     3    1
     9     3     4    1
    10     4    18    1
    11    18    19    1
    12    19    20    1
    13    20    21   ar
    14    21    22   ar
    15    22    23   ar
    16    23    24   ar
    17    24    26    1
    18    26    27    1
    19    27    28    1
    20    28    29    1
    21    29    30   am
    22    30    31    2
    23    24    25   ar
    24     4     5    1
    25     5     6    1
    26    12    13   ar
    27    13    14   ar
    28    14    15   ar
    29    15    16   ar
    30    16    17   ar
    31    17     8   ar
    32    16    11   ar
    33     6     1    1
    34    25    20   ar
    35    30    26   am
    36    29    32    1
@<TRIPOS>MOLECULE
*****
 32 36 0 0 0
SMALL
GASTEIGER

@<TRIPOS>ATOM
      1 N           2.3679   -0.0314   20.0419 N.pl3   1  UNL1       -0.3046
      2 C           2.4884    0.2869   21.5028 C.3     1  UNL1        0.1081
      3 C           1.4605    1.1529   22.1689 C.3     1  UNL1        0.0938
      4 N           0.3122    1.7004   21.3742 N.3     1  UNL1       -0.2695
      5 C           0.1917    1.3820   19.9133 C.3     1  UNL1        0.0938
      6 C           1.2195    0.5161   19.2472 C.3     1  UNL1        0.1081
      7 C           7.7129    1.5975   16.0385 C.3     1  UNL1        0.0521
      8 C           6.6336    0.9738   16.8728 C.ar    1  UNL1        0.0593
      9 C           5.6058    1.8397   17.5389 C.ar    1  UNL1        0.0148
     10 C           4.5265    1.2160   18.3733 C.ar    1  UNL1        0.0039
     11 C           4.4750   -0.2736   18.5415 C.ar    1  UNL1        0.0310
     12 C           3.3957   -0.8973   19.3758 C.ar    1  UNL1        0.0493
     13 C           3.3442   -2.3870   19.5440 C.ar    1  UNL1        0.0146
     14 C           4.3721   -3.2530   18.8778 C.ar    1  UNL1        0.0028
     15 C           5.4514   -2.6292   18.0435 C.ar    1  UNL1        0.0192
     16 C           5.5028   -1.1395   17.8753 C.ar    1  UNL1        0.0821
     17 N           6.5821   -0.5158   17.0410 N.ar    1  UNL1       -0.2496
     18 C          -0.7157    2.5664   22.0403 C.3     1  UNL1        0.0769
     19 C          -0.3173    3.4698   23.1694 C.3     1  UNL1        0.0437
     20 C          -0.7635    3.1635   24.5683 C.ar    1  UNL1       -0.0196
     21 C          -2.0619    3.7143   25.0791 C.ar    1  UNL1       -0.0041
     22 C          -2.5080    3.4079   26.4780 C.ar    1  UNL1        0.0010
     23 C          -1.6558    2.5506   27.3663 C.ar    1  UNL1        0.0149
     24 C          -0.3575    1.9998   26.8555 C.ar    1  UNL1        0.0550
     25 C           0.0887    2.3063   25.4565 C.ar    1  UNL1        0.0107
     26 N           0.4947    1.1426   27.7437 N.am    1  UNL1       -0.2416
     27 C           1.9687    1.3017   27.9721 C.3     1  UNL1        0.1210
     28 C           2.4076    0.2333   28.9290 C.3     1  UNL1        0.1128
     29 N           1.2047   -0.5862   29.2921 N.am    1  UNL1       -0.2867
     30 C           0.0226   -0.0242   28.5596 C.2     1  UNL1        0.3078
     31 O          -1.3846   -0.5387   28.6304 O.2     1  UNL1       -0.2522
     32 H           1.1932   -1.3575   29.9038 H       1  UNL1        0.1510
@<TRIPOS>BOND
     1     7     8    1
     2     8     9   ar
     3     9    10   ar
     4    10    11   ar
     5    11    12   ar
     6    12     1    1
     7     1     2    1
     8     2     3    1
     9     3     4    1
    10     4    18    1
    11    18    19    1
    12    19    20    1
    13    20    21   ar
    14    21    22   ar
    15    22    23   ar
    16    23    24   ar
    17    24    26    1
    18    26    27    1
    19    27    28    1
    20    28    29    1
    21    29    30   am
    22    30    31    2
    23    24    25   ar
    24     4     5    1
    25     5     6    1
    26    12    13   ar
    27    13    14   ar
    28    14    15   ar
    29    15    16   ar
    30    16    17   ar
    31    17     8   ar
    32    16    11   ar
    33     6     1    1
    34    25    20   ar
    35    30    26   am
    36    29    32    1
@<TRIPOS>MOLECULE
*****
 32 36 0 0 0
SMALL
GASTEIGER

@<TRIPOS>ATOM
      1 N           2.5728    0.6584   28.3260 N.pl3   1  UNL1       -0.3046
      2 C           3.3707    1.7574   28.9629 C.3     1  UNL1        0.1081
      3 C           3.6977    1.6959   30.4256 C.3     1  UNL1        0.0938
      4 N           3.2268    0.5356   31.2513 N.3     1  UNL1       -0.2695
      5 C           2.4289   -0.5634   30.6144 C.3     1  UNL1        0.0938
      6 C           2.1019   -0.5020   29.1518 C.3     1  UNL1        0.1081
      7 C          -2.7319    3.5148   25.0169 C.3     1  UNL1        0.0521
      8 C          -1.4875    2.8160   25.4785 C.ar    1  UNL1        0.0593
      9 C          -1.1605    2.7547   26.9411 C.ar    1  UNL1        0.0148
     10 C           0.0839    2.0559   27.4027 C.ar    1  UNL1        0.0039
     11 C           1.0014    1.4185   26.4017 C.ar    1  UNL1        0.0310
     12 C           2.2458    0.7198   26.8634 C.ar    1  UNL1        0.0493
     13 C           3.1633    0.0824   25.8624 C.ar    1  UNL1        0.0146
     14 C           2.8363    0.1437   24.3997 C.ar    1  UNL1        0.0028
     15 C           1.5918    0.8425   23.9381 C.ar    1  UNL1        0.0192
     16 C           0.6744    1.4799   24.9391 C.ar    1  UNL1        0.0821
     17 N          -0.5701    2.1787   24.4775 N.ar    1  UNL1       -0.2496
     18 C           3.5538    0.4741   32.7140 C.3     1  UNL1        0.0769
     19 C           4.0325   -0.8108   33.3221 C.3     1  UNL1        0.0437
     20 C           5.3575   -1.3848   32.9164 C.ar    1  UNL1       -0.0196
     21 C           6.6151   -0.9146   33.5853 C.ar    1  UNL1       -0.0041
     22 C           7.9401   -1.4885   33.1796 C.ar    1  UNL1        0.0010
     23 C           8.0077   -2.5328   32.1048 C.ar    1  UNL1        0.0149
     24 C           6.7502   -3.0030   31.4358 C.ar    1  UNL1        0.0550
     25 C           5.4251   -2.4289   31.8416 C.ar    1  UNL1        0.0107
     26 N           6.8177   -4.0471   30.3611 N.am    1  UNL1       -0.2416
     27 C           6.8517   -3.7907   28.8835 C.3     1  UNL1        0.1210
     28 C           6.9181   -5.1161   28.1844 C.3     1  UNL1        0.1128
     29 N           6.9252   -6.1918   29.2299 N.am    1  UNL1       -0.2867
     30 C           6.8632   -5.5310   30.5751 C.2     1  UNL1        0.3078
     31 O           6.8490   -6.2314   31.9015 O.2     1  UNL1       -0.2522
     32 H           6.9638   -7.1612   29.0626 H       1  UNL1        0.1510
@<TRIPOS>BOND
     1     7     8    1
     2     8     9   ar
     3     9    10   ar
     4    10    11   ar
     5    11    12   ar
     6    12     1    1
     7     1     2    1
     8     2     3    1
     9     3     4    1
    10     4    18    1
    11    18    19    1
    12    19    20    1
    13    20    21   ar
    14    21    22   ar
    15    22    23   ar
    16    23    24   ar
    17    24    26    1
    18    26    27    1
    19    27    28    1
    20    28    29    1
    21    29    30   am
    22    30    31    2
    23    24    25   ar
    24     4     5    1
    25     5     6    1
    26    12    13   ar
    27    13    14   ar
    28    14    15   ar
    29    15    16   ar
    30    16    17   ar
    31    17     8   ar
    32    16    11   ar
    33     6     1    1
    34    25    20   ar
    35    30    26   am
    36    29    32    1
@<TRIPOS>MOLECULE
*****
 32 36 0 0 0
SMALL
GASTEIGER

@<TRIPOS>ATOM
      1 N           2.8475   -0.6300   19.9397 N.pl3   1  UNL1       -0.3046
      2 C           1.3812   -0.7512   20.2320 C.3     1  UNL1        0.1081
      3 C           0.5233    0.4781   20.2866 C.3     1  UNL1        0.0938
      4 N           1.1317    1.8285   20.0489 N.3     1  UNL1       -0.2695
      5 C           2.5979    1.9496   19.7567 C.3     1  UNL1        0.0938
      6 C           3.4558    0.7204   19.7020 C.3     1  UNL1        0.1081
      7 C           6.3169   -3.9194   24.8786 C.3     1  UNL1        0.0521
      8 C           5.6641   -3.4044   23.6302 C.ar    1  UNL1        0.0593
      9 C           4.8062   -2.1752   23.6849 C.ar    1  UNL1        0.0148
     10 C           4.1533   -1.6601   22.4365 C.ar    1  UNL1        0.0039
     11 C           4.3583   -2.3743   21.1335 C.ar    1  UNL1        0.0310
     12 C           3.7054   -1.8592   19.8851 C.ar    1  UNL1        0.0493
     13 C           3.9104   -2.5734   18.5821 C.ar    1  UNL1        0.0146
     14 C           4.7683   -3.8027   18.5274 C.ar    1  UNL1        0.0028
     15 C           5.4212   -4.3177   19.7758 C.ar    1  UNL1        0.0192
     16 C           5.2162   -3.6035   21.0788 C.ar    1  UNL1        0.0821
     17 N           5.8691   -4.1185   22.3272 N.ar    1  UNL1       -0.2496
     18 C           0.2738    3.0577   20.1036 C.3     1  UNL1        0.0769
     19 C           0.3637    3.9833   21.2805 C.3     1  UNL1        0.0437
     20 C          -0.3673    3.6568   22.5490 C.ar    1  UNL1       -0.0196
     21 C           0.3823    3.1074   23.7264 C.ar    1  UNL1       -0.0041
     22 C          -0.3486    2.7809   24.9949 C.ar    1  UNL1        0.0010
     23 C          -1.8292    3.0038   25.0860 C.ar    1  UNL1        0.0149
     24 C          -2.5788    3.5531   23.9086 C.ar    1  UNL1        0.0550
     25 C          -1.8478    3.8797   22.6401 C.ar    1  UNL1        0.0107
     26 N          -4.0593    3.7760   23.9996 N.am    1  UNL1       -0.2416
     27 C          -4.7767    4.4934   25.1045 C.3     1  UNL1        0.1210
     28 C          -6.2432    4.4814   24.7896 C.3     1  UNL1        0.1128
     29 N          -6.4322    3.7565   23.4900 N.am    1  UNL1       -0.2867
     30 C          -5.0825    3.3205   23.0018 C.2     1  UNL1        0.3078
     31 O          -4.8048    2.5623   21.7377 O.2     1  UNL1       -0.2522
     32 H          -7.2912    3.5951   23.0370 H       1  UNL1        0.1510
@<TRIPOS>BOND
     1     7     8    1
     2     8     9   ar
     3     9    10   ar
     4    10    11   ar
     5    11    12   ar
     6    12     1    1
     7     1     2    1
     8     2     3    1
     9     3     4    1
    10     4    18    1
    11    18    19    1
    12    19    20    1
    13    20    21   ar
    14    21    22   ar
    15    22    23   ar
    16    23    24   ar
    17    24    26    1
    18    26    27    1
    19    27    28    1
    20    28    29    1
    21    29    30   am
    22    30    31    2
    23    24    25   ar
    24     4     5    1
    25     5     6    1
    26    12    13   ar
    27    13    14   ar
    28    14    15   ar
    29    15    16   ar
    30    16    17   ar
    31    17     8   ar
    32    16    11   ar
    33     6     1    1
    34    25    20   ar
    35    30    26   am
    36    29    32    1
@<TRIPOS>MOLECULE
*****
 32 36 0 0 0
SMALL
GASTEIGER

@<TRIPOS>ATOM
      1 N           2.9701   -0.3747   20.8145 N.pl3   1  UNL1       -0.3046
      2 C           3.6638    0.9207   21.1154 C.3     1  UNL1        0.1081
      3 C           2.8634    2.1250   21.5146 C.3     1  UNL1        0.0938
      4 N           1.3695    2.0338   21.6128 N.3     1  UNL1       -0.2695
      5 C           0.6758    0.7383   21.3119 C.3     1  UNL1        0.0938
      6 C           1.4760   -0.4659   20.9127 C.3     1  UNL1        0.1081
      7 C           6.8173   -4.6652   24.5616 C.3     1  UNL1        0.0521
      8 C           6.0555   -3.8936   23.5250 C.ar    1  UNL1        0.0593
      9 C           5.2553   -2.6894   23.9242 C.ar    1  UNL1        0.0148
     10 C           4.4935   -1.9179   22.8876 C.ar    1  UNL1        0.0039
     11 C           4.5321   -2.3505   21.4519 C.ar    1  UNL1        0.0310
     12 C           3.7703   -1.5790   20.4154 C.ar    1  UNL1        0.0493
     13 C           3.8089   -2.0116   18.9797 C.ar    1  UNL1        0.0146
     14 C           4.6092   -3.2159   18.5805 C.ar    1  UNL1        0.0028
     15 C           5.3709   -3.9875   19.6170 C.ar    1  UNL1        0.0192
     16 C           5.3323   -3.5547   21.0528 C.ar    1  UNL1        0.0821
     17 N           6.0941   -4.3263   22.0893 N.ar    1  UNL1       -0.2496
     18 C           0.5691    3.2380   22.0119 C.3     1  UNL1        0.0769
     19 C          -0.8146    3.0690   22.5659 C.3     1  UNL1        0.0437
     20 C          -1.0288    3.0307   24.0500 C.ar    1  UNL1       -0.0196
     21 C          -2.0373    3.9410   24.6859 C.ar    1  UNL1       -0.0041
     22 C          -2.2516    3.9027   26.1700 C.ar    1  UNL1        0.0010
     23 C          -1.4573    2.9541   27.0182 C.ar    1  UNL1        0.0149
     24 C          -0.4489    2.0439   26.3823 C.ar    1  UNL1        0.0550
     25 C          -0.2346    2.0822   24.8981 C.ar    1  UNL1        0.0107
     26 N           0.3454    1.0953   27.2305 N.am    1  UNL1       -0.2416
     27 C           1.8304    0.8922   27.1720 C.3     1  UNL1        0.1210
     28 C           2.1969   -0.1453   28.1914 C.3     1  UNL1        0.1128
     29 N           0.9382   -0.5835   28.8799 N.am    1  UNL1       -0.2867
     30 C          -0.2060    0.1833   28.2860 C.2     1  UNL1        0.3078
     31 O          -1.6484    0.0596   28.6786 O.2     1  UNL1       -0.2522
     32 H           0.8744   -1.2562   29.5959 H       1  UNL1        0.1510
@<TRIPOS>BOND
     1     7     8    1
     2     8     9   ar
     3     9    10   ar
     4    10    11   ar
     5    11    12   ar
     6    12     1    1
     7     1     2    1
     8     2     3    1
     9     3     4    1
    10     4    18    1
    11    18    19    1
    12    19    20    1
    13    20    21   ar
    14    21    22   ar
    15    22    23   ar
    16    23    24   ar
    17    24    26    1
    18    26    27    1
    19    27    28    1
    20    28    29    1
    21    29    30   am
    22    30    31    2
    23    24    25   ar
    24     4     5    1
    25     5     6    1
    26    12    13   ar
    27    13    14   ar
    28    14    15   ar
    29    15    16   ar
    30    16    17   ar
    31    17     8   ar
    32    16    11   ar
    33     6     1    1
    34    25    20   ar
    35    30    26   am
    36    29    32    1
@<TRIPOS>MOLECULE
*****
 32 36 0 0 0
SMALL
GASTEIGER

@<TRIPOS>ATOM
      1 N           5.7333   -1.9220   27.2436 N.pl3   1  UNL1       -0.3046
      2 C           6.7287   -1.0954   26.4847 C.3     1  UNL1        0.1081
      3 C           6.2622   -0.1613   25.4077 C.3     1  UNL1        0.0938
      4 N           4.8003   -0.0538   25.0896 N.3     1  UNL1       -0.2695
      5 C           3.8048   -0.8804   25.8484 C.3     1  UNL1        0.0938
      6 C           4.2713   -1.8145   26.9254 C.3     1  UNL1        0.1081
      7 C           8.1263   -8.3564   26.8939 C.3     1  UNL1        0.0521
      8 C           7.6446   -6.9813   27.2506 C.ar    1  UNL1        0.0593
      9 C           7.1782   -6.0472   26.1736 C.ar    1  UNL1        0.0148
     10 C           6.6965   -4.6721   26.5303 C.ar    1  UNL1        0.0039
     11 C           6.6814   -4.2311   27.9639 C.ar    1  UNL1        0.0310
     12 C           6.1998   -2.8561   28.3205 C.ar    1  UNL1        0.0493
     13 C           6.1846   -2.4150   29.7541 C.ar    1  UNL1        0.0146
     14 C           6.6511   -3.3491   30.8311 C.ar    1  UNL1        0.0028
     15 C           7.1327   -4.7242   30.4745 C.ar    1  UNL1        0.0192
     16 C           7.1479   -5.1652   29.0408 C.ar    1  UNL1        0.0821
     17 N           7.6295   -6.5403   28.6842 N.ar    1  UNL1       -0.2496
     18 C           4.3337    0.8803   24.0126 C.3     1  UNL1        0.0769
     19 C           2.8745    0.9687   23.6769 C.3     1  UNL1        0.0437
     20 C           2.3589    0.3601   22.4065 C.ar    1  UNL1       -0.0196
     21 C           0.9880    0.7110   21.9092 C.ar    1  UNL1       -0.0041
     22 C           0.4725    0.1024   20.6388 C.ar    1  UNL1        0.0010
     23 C           1.3279   -0.8572   19.8658 C.ar    1  UNL1        0.0149
     24 C           2.6988   -1.2081   20.3632 C.ar    1  UNL1        0.0550
     25 C           3.2143   -0.5995   21.6336 C.ar    1  UNL1        0.0107
     26 N           3.5542   -2.1677   19.5902 N.am    1  UNL1       -0.2416
     27 C           3.7143   -3.6319   19.8740 C.3     1  UNL1        0.1210
     28 C           4.6588   -4.2007   18.8570 C.3     1  UNL1        0.1128
     29 N           5.0824   -3.0879   17.9446 N.am    1  UNL1       -0.2867
     30 C           4.3998   -1.8315   18.3978 C.2     1  UNL1        0.3078
     31 O           4.5384   -0.4768   17.7689 O.2     1  UNL1       -0.2522
     32 H           5.7001   -3.1682   17.1821 H       1  UNL1        0.1510
@<TRIPOS>BOND
     1     7     8    1
     2     8     9   ar
     3     9    10   ar
     4    10    11   ar
     5    11    12   ar
     6    12     1    1
     7     1     2    1
     8     2     3    1
     9     3     4    1
    10     4    18    1
    11    18    19    1
    12    19    20    1
    13    20    21   ar
    14    21    22   ar
    15    22    23   ar
    16    23    24   ar
    17    24    26    1
    18    26    27    1
    19    27    28    1
    20    28    29    1
    21    29    30   am
    22    30    31    2
    23    24    25   ar
    24     4     5    1
    25     5     6    1
    26    12    13   ar
    27    13    14   ar
    28    14    15   ar
    29    15    16   ar
    30    16    17   ar
    31    17     8   ar
    32    16    11   ar
    33     6     1    1
    34    25    20   ar
    35    30    26   am
    36    29    32    1
