@<TRIPOS>MOLECULE
*****
 20 21 0 0 0
SMALL
GASTEIGER

@<TRIPOS>ATOM
      1 C         -10.0469  -18.5915   22.2282 C.ar    1  UNL1        0.1416
      2 C         -10.9734  -19.2856   21.2744 C.ar    1  UNL1        0.0371
      3 C         -10.4687  -19.7445   19.9385 C.ar    1  UNL1        0.0062
      4 C          -9.0374  -19.5094   19.5564 C.ar    1  UNL1        0.0371
      5 C          -8.1108  -18.8153   20.5102 C.ar    1  UNL1        0.1416
      6 C          -8.6156  -18.3563   21.8460 C.ar    1  UNL1        0.0680
      7 C         -10.7226  -19.1194   24.6807 C.3     1  UNL1        0.2525
      8 O         -10.5516  -18.1325   23.5641 O.3     1  UNL1       -0.4713
      9 O          -6.6795  -18.5801   20.1280 O.3     1  UNL1       -0.4713
     10 C          -5.6556  -19.6516   20.3596 C.3     1  UNL1        0.2525
     11 C          -7.6889  -17.6622   22.7998 C.2     1  UNL1        0.0094
     12 C          -7.6111  -16.1643   22.8136 C.2     1  UNL1        0.0437
     13 C          -6.6846  -15.4701   23.7673 C.2     1  UNL1        0.2111
     14 O          -5.4059  -14.8671   23.2657 O.2     1  UNL1       -0.2850
     15 C          -7.0366  -15.3790   25.2226 C.ar    1  UNL1        0.0961
     16 C          -8.3962  -15.5998   25.8163 C.ar    1  UNL1        0.0218
     17 C          -8.2907  -15.4083   27.3003 C.ar    1  UNL1        0.0200
     18 C          -6.8658  -15.0691   27.6237 C.ar    1  UNL1        0.0725
     19 N          -6.0907  -15.0510   26.3396 N.ar    1  UNL1       -0.3495
     20 H          -5.1299  -14.8578   26.2463 H       1  UNL1        0.1661
@<TRIPOS>BOND
     1     7     8    1
     2     8     1    1
     3     1     2   ar
     4     2     3   ar
     5     3     4   ar
     6     4     5   ar
     7     5     9    1
     8     9    10    1
     9     5     6   ar
    10     6    11    1
    11    11    12    2
    12    12    13    1
    13    13    14    2
    14    13    15    1
    15    15    16   ar
    16    16    17   ar
    17    17    18   ar
    18    18    19   ar
    19     6     1   ar
    20    19    15   ar
    21    19    20    1
@<TRIPOS>MOLECULE
*****
 20 21 0 0 0
SMALL
GASTEIGER

@<TRIPOS>ATOM
      1 C          -8.0735  -18.8199   20.5328 C.ar    1  UNL1        0.1416
      2 C          -8.9895  -19.5328   19.5827 C.ar    1  UNL1        0.0371
      3 C         -10.4041  -19.8288   19.9844 C.ar    1  UNL1        0.0062
      4 C         -10.9027  -19.4118   21.3362 C.ar    1  UNL1        0.0371
      5 C          -9.9868  -18.6989   22.2863 C.ar    1  UNL1        0.1416
      6 C          -8.5722  -18.4029   21.8846 C.ar    1  UNL1        0.0680
      7 C          -5.5975  -19.5706   20.2976 C.3     1  UNL1        0.2525
      8 O          -6.6590  -18.5240   20.1312 O.3     1  UNL1       -0.4713
      9 O         -10.4855  -18.2819   23.6382 O.3     1  UNL1       -0.4713
     10 C         -10.4048  -19.2345   24.7940 C.3     1  UNL1        0.2525
     11 C          -7.6563  -17.6900   22.8349 C.2     1  UNL1        0.0094
     12 C          -7.5975  -16.1911   22.8375 C.2     1  UNL1        0.0437
     13 C          -6.6816  -15.4782   23.7877 C.2     1  UNL1        0.2111
     14 O          -5.4080  -14.8657   23.2845 O.2     1  UNL1       -0.2850
     15 C          -7.0392  -15.3776   25.2409 C.ar    1  UNL1        0.0961
     16 C          -8.3975  -15.6111   25.8329 C.ar    1  UNL1        0.0218
     17 C          -8.2991  -15.4037   27.3152 C.ar    1  UNL1        0.0200
     18 C          -6.8799  -15.0420   27.6394 C.ar    1  UNL1        0.0725
     19 N          -6.1013  -15.0259   26.3574 N.ar    1  UNL1       -0.3495
     20 H          -5.1429  -14.8205   26.2650 H       1  UNL1        0.1661
@<TRIPOS>BOND
     1     7     8    1
     2     8     1    1
     3     1     2   ar
     4     2     3   ar
     5     3     4   ar
     6     4     5   ar
     7     5     9    1
     8     9    10    1
     9     5     6   ar
    10     6    11    1
    11    11    12    2
    12    12    13    1
    13    13    14    2
    14    13    15    1
    15    15    16   ar
    16    16    17   ar
    17    17    18   ar
    18    18    19   ar
    19     6     1   ar
    20    19    15   ar
    21    19    20    1
@<TRIPOS>MOLECULE
*****
 20 21 0 0 0
SMALL
GASTEIGER

@<TRIPOS>ATOM
      1 C         -11.3321  -17.1995   21.0700 C.ar    1  UNL1        0.1416
      2 C         -12.4152  -16.5000   21.8364 C.ar    1  UNL1        0.0371
      3 C         -12.9284  -17.0892   23.1169 C.ar    1  UNL1        0.0062
      4 C         -12.3585  -18.3779   23.6309 C.ar    1  UNL1        0.0371
      5 C         -11.2754  -19.0775   22.8645 C.ar    1  UNL1        0.1416
      6 C         -10.7622  -18.4883   21.5840 C.ar    1  UNL1        0.0680
      7 C         -11.6023  -15.5397   19.0896 C.3     1  UNL1        0.2525
      8 O         -10.8189  -16.6103   19.7896 O.3     1  UNL1       -0.4713
      9 O         -10.7054  -20.3663   23.3785 O.3     1  UNL1       -0.4713
     10 C          -9.7816  -20.3593   24.5602 C.3     1  UNL1        0.2525
     11 C          -9.6790  -19.1879   20.8176 C.2     1  UNL1        0.0094
     12 C          -8.2420  -18.9885   21.1987 C.2     1  UNL1        0.0437
     13 C          -7.1588  -19.6880   20.4324 C.2     1  UNL1        0.2111
     14 O          -7.5101  -20.5583   19.2622 O.2     1  UNL1       -0.2850
     15 C          -5.7243  -19.5174   20.8361 C.ar    1  UNL1        0.0961
     16 C          -4.5526  -20.2570   20.2616 C.ar    1  UNL1        0.0218
     17 C          -3.3137  -19.7739   20.9557 C.ar    1  UNL1        0.0200
     18 C          -3.7197  -18.7356   21.9592 C.ar    1  UNL1        0.0725
     19 N          -5.2095  -18.5771   21.8853 N.ar    1  UNL1       -0.3495
     20 H          -5.7539  -17.9635   22.4299 H       1  UNL1        0.1661
@<TRIPOS>BOND
     1     7     8    1
     2     8     1    1
     3     1     2   ar
     4     2     3   ar
     5     3     4   ar
     6     4     5   ar
     7     5     9    1
     8     9    10    1
     9     5     6   ar
    10     6    11    1
    11    11    12    2
    12    12    13    1
    13    13    14    2
    14    13    15    1
    15    15    16   ar
    16    16    17   ar
    17    17    18   ar
    18    18    19   ar
    19     6     1   ar
    20    19    15   ar
    21    19    20    1
@<TRIPOS>MOLECULE
*****
 20 21 0 0 0
SMALL
GASTEIGER

@<TRIPOS>ATOM
      1 C          -9.2007  -18.5331   23.0890 C.ar    1  UNL1        0.1416
      2 C         -10.0221  -17.9684   24.2099 C.ar    1  UNL1        0.0371
      3 C          -9.5591  -16.7388   24.9334 C.ar    1  UNL1        0.0062
      4 C          -8.2746  -16.0737   24.5361 C.ar    1  UNL1        0.0371
      5 C          -7.4532  -16.6384   23.4152 C.ar    1  UNL1        0.1416
      6 C          -7.9163  -17.8681   22.6917 C.ar    1  UNL1        0.0680
      7 C         -10.9612  -19.7463   21.6131 C.3     1  UNL1        0.2525
      8 O          -9.6637  -19.7628   22.3655 O.3     1  UNL1       -0.4713
      9 O          -6.1687  -15.9733   23.0178 O.3     1  UNL1       -0.4713
     10 C          -5.2266  -15.4716   24.0717 C.3     1  UNL1        0.2525
     11 C          -7.0948  -18.4327   21.5707 C.2     1  UNL1        0.0094
     12 C          -6.0254  -19.4439   21.8602 C.2     1  UNL1        0.0437
     13 C          -5.2039  -20.0085   20.7393 C.2     1  UNL1        0.2111
     14 O          -5.5776  -21.3249   20.1248 O.2     1  UNL1       -0.2850
     15 C          -4.0087  -19.2569   20.2329 C.ar    1  UNL1        0.0961
     16 C          -2.5864  -19.4730   20.6575 C.ar    1  UNL1        0.0218
     17 C          -1.7245  -18.5068   19.9000 C.ar    1  UNL1        0.0200
     18 C          -2.6142  -17.6935   19.0073 C.ar    1  UNL1        0.0725
     19 N          -4.0259  -18.1571   19.2130 N.ar    1  UNL1       -0.3495
     20 H          -4.8237  -17.8019   18.7584 H       1  UNL1        0.1661
@<TRIPOS>BOND
     1     7     8    1
     2     8     1    1
     3     1     2   ar
     4     2     3   ar
     5     3     4   ar
     6     4     5   ar
     7     5     9    1
     8     9    10    1
     9     5     6   ar
    10     6    11    1
    11    11    12    2
    12    12    13    1
    13    13    14    2
    14    13    15    1
    15    15    16   ar
    16    16    17   ar
    17    17    18   ar
    18    18    19   ar
    19     6     1   ar
    20    19    15   ar
    21    19    20    1
@<TRIPOS>MOLECULE
*****
 20 21 0 0 0
SMALL
GASTEIGER

@<TRIPOS>ATOM
      1 C          -7.4268  -16.6198   23.4540 C.ar    1  UNL1        0.1416
      2 C          -8.2219  -16.0421   24.5871 C.ar    1  UNL1        0.0371
      3 C          -9.5034  -16.6948   25.0135 C.ar    1  UNL1        0.0062
      4 C          -9.9898  -17.9252   24.3067 C.ar    1  UNL1        0.0371
      5 C          -9.1946  -18.5029   23.1735 C.ar    1  UNL1        0.1416
      6 C          -7.9132  -17.8501   22.7472 C.ar    1  UNL1        0.0680
      7 C          -4.9081  -16.1286   23.8602 C.3     1  UNL1        0.2525
      8 O          -6.1453  -15.9670   23.0276 O.3     1  UNL1       -0.4713
      9 O          -9.6810  -19.7333   22.4667 O.3     1  UNL1       -0.4713
     10 C         -10.7555  -19.6249   21.4257 C.3     1  UNL1        0.2525
     11 C          -7.1180  -18.4279   21.6140 C.2     1  UNL1        0.0094
     12 C          -5.9625  -19.3413   21.8976 C.2     1  UNL1        0.0437
     13 C          -5.1674  -19.9190   20.7645 C.2     1  UNL1        0.2111
     14 O          -5.5613  -21.2375   20.1675 O.2     1  UNL1       -0.2850
     15 C          -3.9784  -19.1782   20.2283 C.ar    1  UNL1        0.0961
     16 C          -2.5451  -19.4305   20.5916 C.ar    1  UNL1        0.0218
     17 C          -1.6948  -18.4633   19.8225 C.ar    1  UNL1        0.0200
     18 C          -2.6026  -17.6132   18.9839 C.ar    1  UNL1        0.0725
     19 N          -4.0139  -18.0550   19.2347 N.ar    1  UNL1       -0.3495
     20 H          -4.8217  -17.6747   18.8200 H       1  UNL1        0.1661
@<TRIPOS>BOND
     1     7     8    1
     2     8     1    1
     3     1     2   ar
     4     2     3   ar
     5     3     4   ar
     6     4     5   ar
     7     5     9    1
     8     9    10    1
     9     5     6   ar
    10     6    11    1
    11    11    12    2
    12    12    13    1
    13    13    14    2
    14    13    15    1
    15    15    16   ar
    16    16    17   ar
    17    17    18   ar
    18    18    19   ar
    19     6     1   ar
    20    19    15   ar
    21    19    20    1
@<TRIPOS>MOLECULE
*****
 20 21 0 0 0
SMALL
GASTEIGER

@<TRIPOS>ATOM
      1 C          -8.2279  -16.3000   25.3727 C.ar    1  UNL1        0.1416
      2 C          -7.9406  -15.8287   26.7674 C.ar    1  UNL1        0.0371
      3 C          -6.6007  -15.2420   27.0997 C.ar    1  UNL1        0.0062
      4 C          -5.5481  -15.1266   26.0372 C.ar    1  UNL1        0.0371
      5 C          -5.8355  -15.5979   24.6425 C.ar    1  UNL1        0.1416
      6 C          -7.1754  -16.1846   24.3102 C.ar    1  UNL1        0.0680
      7 C          -9.8178  -18.3511   25.2481 C.3     1  UNL1        0.2525
      8 O          -9.5679  -16.8867   25.0404 O.3     1  UNL1       -0.4713
      9 O          -4.7829  -15.4826   23.5800 O.3     1  UNL1       -0.4713
     10 C          -3.8458  -16.6258   23.3254 C.3     1  UNL1        0.2525
     11 C          -7.4627  -16.6559   22.9154 C.2     1  UNL1        0.0094
     12 C          -7.0635  -18.0390   22.4940 C.2     1  UNL1        0.0437
     13 C          -7.3508  -18.5104   21.0993 C.2     1  UNL1        0.2111
     14 O          -6.2555  -18.5327   20.0746 O.2     1  UNL1       -0.2850
     15 C          -8.7333  -18.9594   20.7292 C.ar    1  UNL1        0.0961
     16 C          -9.7951  -19.4213   21.6827 C.ar    1  UNL1        0.0218
     17 C         -11.0149  -19.7727   20.8834 C.ar    1  UNL1        0.0200
     18 C         -10.7069  -19.5279   19.4359 C.ar    1  UNL1        0.0725
     19 N          -9.2968  -19.0252   19.3406 N.ar    1  UNL1       -0.3495
     20 H          -8.8242  -18.7814   18.5121 H       1  UNL1        0.1661
@<TRIPOS>BOND
     1     7     8    1
     2     8     1    1
     3     1     2   ar
     4     2     3   ar
     5     3     4   ar
     6     4     5   ar
     7     5     9    1
     8     9    10    1
     9     5     6   ar
    10     6    11    1
    11    11    12    2
    12    12    13    1
    13    13    14    2
    14    13    15    1
    15    15    16   ar
    16    16    17   ar
    17    17    18   ar
    18    18    19   ar
    19     6     1   ar
    20    19    15   ar
    21    19    20    1
@<TRIPOS>MOLECULE
*****
 20 21 0 0 0
SMALL
GASTEIGER

@<TRIPOS>ATOM
      1 C          -8.7396  -16.2308   24.7130 C.ar    1  UNL1        0.1416
      2 C          -8.8201  -15.7256   26.1230 C.ar    1  UNL1        0.0371
      3 C          -7.5753  -15.2828   26.8332 C.ar    1  UNL1        0.0062
      4 C          -6.2500  -15.3451   26.1334 C.ar    1  UNL1        0.0371
      5 C          -6.1696  -15.8503   24.7234 C.ar    1  UNL1        0.1416
      6 C          -7.4144  -16.2931   24.0132 C.ar    1  UNL1        0.0680
      7 C         -10.5177  -18.0590   24.2173 C.3     1  UNL1        0.2525
      8 O          -9.9844  -16.6736   24.0028 O.3     1  UNL1       -0.4713
      9 O          -4.8443  -15.9127   24.0234 O.3     1  UNL1       -0.4713
     10 C          -4.1245  -17.2226   23.8958 C.3     1  UNL1        0.2525
     11 C          -7.3339  -16.7984   22.6030 C.2     1  UNL1        0.0094
     12 C          -7.2770  -18.2735   22.3370 C.2     1  UNL1        0.0437
     13 C          -7.1965  -18.7787   20.9270 C.2     1  UNL1        0.2111
     14 O          -8.4230  -18.7906   20.0634 O.2     1  UNL1       -0.2850
     15 C          -5.8896  -19.2720   20.3805 C.ar    1  UNL1        0.0961
     16 C          -5.4034  -20.6908   20.4040 C.ar    1  UNL1        0.0218
     17 C          -4.0527  -20.7289   19.7526 C.ar    1  UNL1        0.0200
     18 C          -3.7042  -19.3336   19.3264 C.ar    1  UNL1        0.0725
     19 N          -4.8395  -18.4332   19.7145 N.ar    1  UNL1       -0.3495
     20 H          -4.8870  -17.4622   19.5593 H       1  UNL1        0.1661
@<TRIPOS>BOND
     1     7     8    1
     2     8     1    1
     3     1     2   ar
     4     2     3   ar
     5     3     4   ar
     6     4     5   ar
     7     5     9    1
     8     9    10    1
     9     5     6   ar
    10     6    11    1
    11    11    12    2
    12    12    13    1
    13    13    14    2
    14    13    15    1
    15    15    16   ar
    16    16    17   ar
    17    17    18   ar
    18    18    19   ar
    19     6     1   ar
    20    19    15   ar
    21    19    20    1
@<TRIPOS>MOLECULE
*****
 20 21 0 0 0
SMALL
GASTEIGER

@<TRIPOS>ATOM
      1 C         -10.9637  -18.5994   21.3466 C.ar    1  UNL1        0.1416
      2 C         -12.1921  -17.7683   21.1226 C.ar    1  UNL1        0.0371
      3 C         -12.4147  -16.5254   21.9324 C.ar    1  UNL1        0.0062
      4 C         -11.4089  -16.1137   22.9661 C.ar    1  UNL1        0.0371
      5 C         -10.1805  -16.9448   23.1901 C.ar    1  UNL1        0.1416
      6 C          -9.9579  -18.1876   22.3803 C.ar    1  UNL1        0.0680
      7 C          -9.9706  -19.7721   19.2517 C.3     1  UNL1        0.2525
      8 O         -10.7411  -19.8422   20.5368 O.3     1  UNL1       -0.4713
      9 O          -9.1746  -16.5330   24.2239 O.3     1  UNL1       -0.4713
     10 C          -8.0757  -15.5780   23.8626 C.3     1  UNL1        0.2525
     11 C          -8.7294  -19.0187   22.6043 C.2     1  UNL1        0.0094
     12 C          -7.4665  -18.7070   21.8573 C.2     1  UNL1        0.0437
     13 C          -6.2381  -19.5381   22.0813 C.2     1  UNL1        0.2111
     14 O          -6.3418  -21.0339   22.1231 O.2     1  UNL1       -0.2850
     15 C          -4.9058  -18.8733   22.2634 C.ar    1  UNL1        0.0961
     16 C          -3.5729  -19.4538   21.8940 C.ar    1  UNL1        0.0218
     17 C          -2.5158  -18.4506   22.2492 C.ar    1  UNL1        0.0200
     18 C          -3.1954  -17.2501   22.8381 C.ar    1  UNL1        0.0725
     19 N          -4.6724  -17.5113   22.8469 N.ar    1  UNL1       -0.3495
     20 H          -5.3668  -16.8967   23.1776 H       1  UNL1        0.1661
@<TRIPOS>BOND
     1     7     8    1
     2     8     1    1
     3     1     2   ar
     4     2     3   ar
     5     3     4   ar
     6     4     5   ar
     7     5     9    1
     8     9    10    1
     9     5     6   ar
    10     6    11    1
    11    11    12    2
    12    12    13    1
    13    13    14    2
    14    13    15    1
    15    15    16   ar
    16    16    17   ar
    17    17    18   ar
    18    18    19   ar
    19     6     1   ar
    20    19    15   ar
    21    19    20    1
@<TRIPOS>MOLECULE
*****
 20 21 0 0 0
SMALL
GASTEIGER

@<TRIPOS>ATOM
      1 C          -9.6428  -18.8725   20.1506 C.ar    1  UNL1        0.1416
      2 C         -11.0333  -18.3683   19.9016 C.ar    1  UNL1        0.0371
      3 C         -11.9238  -18.0219   21.0580 C.ar    1  UNL1        0.0062
      4 C         -11.4237  -18.1797   22.4633 C.ar    1  UNL1        0.0371
      5 C         -10.0331  -18.6839   22.7122 C.ar    1  UNL1        0.1416
      6 C          -9.1426  -19.0303   21.5559 C.ar    1  UNL1        0.0680
      7 C          -8.8459  -20.5725   18.3547 C.3     1  UNL1        0.2525
      8 O          -8.7523  -19.2189   18.9942 O.3     1  UNL1       -0.4713
      9 O          -9.5329  -18.8418   24.1176 O.3     1  UNL1       -0.4713
     10 C         -10.0128  -19.9860   24.9604 C.3     1  UNL1        0.2525
     11 C          -7.7520  -19.5346   21.8049 C.2     1  UNL1        0.0094
     12 C          -6.5705  -18.6762   21.4625 C.2     1  UNL1        0.0437
     13 C          -5.1799  -19.1804   21.7115 C.2     1  UNL1        0.2111
     14 O          -4.9242  -20.1600   22.8184 O.2     1  UNL1       -0.2850
     15 C          -4.0449  -18.7051   20.8536 C.ar    1  UNL1        0.0961
     16 C          -3.6230  -19.2977   19.5418 C.ar    1  UNL1        0.0218
     17 C          -2.4499  -18.5126   19.0344 C.ar    1  UNL1        0.0200
     18 C          -2.1468  -17.4348   20.0325 C.ar    1  UNL1        0.0725
     19 N          -3.1326  -17.5538   21.1569 N.ar    1  UNL1       -0.3495
     20 H          -3.1736  -16.9773   21.9539 H       1  UNL1        0.1661
@<TRIPOS>BOND
     1     7     8    1
     2     8     1    1
     3     1     2   ar
     4     2     3   ar
     5     3     4   ar
     6     4     5   ar
     7     5     9    1
     8     9    10    1
     9     5     6   ar
    10     6    11    1
    11    11    12    2
    12    12    13    1
    13    13    14    2
    14    13    15    1
    15    15    16   ar
    16    16    17   ar
    17    17    18   ar
    18    18    19   ar
    19     6     1   ar
    20    19    15   ar
    21    19    20    1
