@<TRIPOS>MOLECULE
*****
 36 38 0 0 0
SMALL
GASTEIGER

@<TRIPOS>ATOM
      1 N           2.2354    2.1729   18.5217 N.ar    1  UNL1       -0.2387
      2 N           2.1741    3.5915   18.0382 N.ar    1  UNL1       -0.1724
      3 C           0.8907    4.1934   18.5286 C.ar    1  UNL1        0.0861
      4 C           0.4216    5.5957   18.2766 C.3     1  UNL1        0.0542
      5 C           0.1587    3.1468   19.3152 C.ar    1  UNL1        0.1009
      6 C           0.9898    1.8980   19.3110 C.ar    1  UNL1        0.1493
      7 C           5.5704   -0.7459   17.7416 C.3     1  UNL1        0.1155
      8 C           4.2030   -1.0021   17.1809 C.3     1  UNL1        0.0315
      9 C           3.0913   -0.0292   17.4410 C.3     1  UNL1        0.0269
     10 C           3.3470    1.1999   18.2617 C.3     1  UNL1        0.1067
     11 C           4.7145    1.4562   18.8224 C.3     1  UNL1        0.0269
     12 C           5.8261    0.4833   18.5624 C.3     1  UNL1        0.0315
     13 C           7.4860   -2.2623   18.6254 C.3     1  UNL1        0.1740
     14 O           6.6821   -1.7188   17.4816 O.3     1  UNL1       -0.3536
     15 C          -1.1709    3.3186   19.9880 C.2     1  UNL1        0.2498
     16 O          -1.4557    2.6091   21.2785 O.2     1  UNL1       -0.2700
     17 N          -2.2157    4.2000   19.3702 N.am    1  UNL1       -0.3024
     18 H          -2.0288    4.6657   18.5232 H       1  UNL1        0.1497
     19 C          -3.5452    4.3719   20.0430 C.3     1  UNL1        0.0718
     20 C          -3.6424    5.1430   21.3260 C.3     1  UNL1        0.0213
     21 C          -4.7776    3.7726   19.4330 C.3     1  UNL1        0.0165
     22 C          -5.3480    3.5513   20.8026 C.3     1  UNL1        0.0016
     23 C          -4.2072    3.9939   18.0634 C.3     1  UNL1        0.0016
     24 C          -6.0100    3.1733   18.8229 C.3     1  UNL1        0.0016
     25 N           0.6371    0.6020   19.9788 N.pl3   1  UNL1       -0.1990
     26 H          -0.2570    0.2100   19.8516 H       1  UNL1        0.1753
     27 S           1.6468   -0.0968   20.8404 S.O2    1  UNL1        0.0747
     28 O           1.5101   -1.3313   19.9994 O.2     1  UNL1       -0.1499
     29 O           1.7835    1.1376   21.6815 O.2     1  UNL1       -0.1499
     30 C           2.6564   -0.7957   21.7020 C.ar    1  UNL1        0.1252
     31 C           2.7541   -0.4646   23.1617 C.ar    1  UNL1        0.0199
     32 C           3.7637   -1.1634   24.0233 C.ar    1  UNL1       -0.0029
     33 C           4.6755   -2.1933   23.4252 C.ar    1  UNL1       -0.0218
     34 C           5.6852   -2.8922   24.2868 C.3     1  UNL1        0.0310
     35 C           4.5779   -2.5244   21.9655 C.ar    1  UNL1       -0.0029
     36 C           3.5683   -1.8256   21.1038 C.ar    1  UNL1        0.0199
@<TRIPOS>BOND
     1    13    14    1
     2     7    14    1
     3     7     8    1
     4     8     9    1
     5     9    10    1
     6    10     1    1
     7     1     2   ar
     8     2     3   ar
     9     3     4    1
    10     3     5   ar
    11     5    15    1
    12    15    16    2
    13    15    17   am
    14    17    19    1
    15    19    20    1
    16    19    21    1
    17    21    22    1
    18    21    23    1
    19    21    24    1
    20     5     6   ar
    21     6    25    1
    22    25    27    1
    23    27    28    2
    24    27    29    2
    25    27    30    1
    26    30    31   ar
    27    31    32   ar
    28    32    33   ar
    29    33    34    1
    30    33    35   ar
    31    35    36   ar
    32    10    11    1
    33    11    12    1
    34    12     7    1
    35     6     1   ar
    36    36    30   ar
    37    17    18    1
    38    25    26    1
@<TRIPOS>MOLECULE
*****
 36 38 0 0 0
SMALL
GASTEIGER

@<TRIPOS>ATOM
      1 N           7.5321   -4.2583   22.1839 N.ar    1  UNL1       -0.2387
      2 N           7.9686   -5.6885   22.3023 N.ar    1  UNL1       -0.1724
      3 C           8.0792   -6.0202   23.7610 C.ar    1  UNL1        0.0861
      4 C           8.4865   -7.3445   24.3356 C.3     1  UNL1        0.0542
      5 C           7.7110   -4.7950   24.5441 C.ar    1  UNL1        0.1009
      6 C           7.3729   -3.7061   23.5694 C.ar    1  UNL1        0.1493
      7 C           6.8243   -2.0178   18.3460 C.3     1  UNL1        0.1155
      8 C           8.0052   -1.6778   19.2061 C.3     1  UNL1        0.0315
      9 C           8.2411   -2.4246   20.4854 C.3     1  UNL1        0.0269
     10 C           7.2961   -3.5115   20.9046 C.3     1  UNL1        0.1067
     11 C           6.1152   -3.8515   20.0445 C.3     1  UNL1        0.0269
     12 C           5.8793   -3.1046   18.7652 C.3     1  UNL1        0.0315
     13 C           6.6308    0.2284   17.0548 C.3     1  UNL1        0.1740
     14 O           6.5884   -1.2710   17.0667 O.3     1  UNL1       -0.3536
     15 C           7.6855   -4.6790   26.0394 C.2     1  UNL1        0.2498
     16 O           8.9362   -4.9194   26.8318 O.2     1  UNL1       -0.2700
     17 N           6.4092   -4.3226   26.7423 N.am    1  UNL1       -0.3024
     18 H           5.5883   -4.1648   26.2223 H       1  UNL1        0.1497
     19 C           6.3837   -4.2067   28.2376 C.3     1  UNL1        0.0718
     20 C           6.5358   -5.4332   29.0876 C.3     1  UNL1        0.0213
     21 C           6.2061   -2.8643   28.8828 C.3     1  UNL1        0.0165
     22 C           5.4842   -2.3734   27.6629 C.3     1  UNL1        0.0016
     23 C           6.9279   -3.3551   30.1027 C.3     1  UNL1        0.0016
     24 C           6.0285   -1.5218   29.5281 C.3     1  UNL1        0.0016
     25 N           6.9498   -2.3101   23.9190 N.pl3   1  UNL1       -0.1990
     26 H           7.5061   -1.7629   24.5192 H       1  UNL1        0.1753
     27 S           5.6790   -1.7479   23.3539 S.O2    1  UNL1        0.0747
     28 O           4.9276   -2.9473   23.8506 O.2     1  UNL1       -0.1499
     29 O           6.4305   -0.5484   22.8574 O.2     1  UNL1       -0.1499
     30 C           4.4083   -1.1857   22.7890 C.ar    1  UNL1        0.1252
     31 C           3.8877   -1.6837   21.4733 C.ar    1  UNL1        0.0199
     32 C           2.6170   -1.1217   20.9083 C.ar    1  UNL1       -0.0029
     33 C           1.8668   -0.0616   21.6589 C.ar    1  UNL1       -0.0218
     34 C           0.5960    0.5006   21.0939 C.3     1  UNL1        0.0310
     35 C           2.3874    0.4364   22.9746 C.ar    1  UNL1       -0.0029
     36 C           3.6581   -0.1257   23.5396 C.ar    1  UNL1        0.0199
@<TRIPOS>BOND
     1    13    14    1
     2     7    14    1
     3     7     8    1
     4     8     9    1
     5     9    10    1
     6    10     1    1
     7     1     2   ar
     8     2     3   ar
     9     3     4    1
    10     3     5   ar
    11     5    15    1
    12    15    16    2
    13    15    17   am
    14    17    19    1
    15    19    20    1
    16    19    21    1
    17    21    22    1
    18    21    23    1
    19    21    24    1
    20     5     6   ar
    21     6    25    1
    22    25    27    1
    23    27    28    2
    24    27    29    2
    25    27    30    1
    26    30    31   ar
    27    31    32   ar
    28    32    33   ar
    29    33    34    1
    30    33    35   ar
    31    35    36   ar
    32    10    11    1
    33    11    12    1
    34    12     7    1
    35     6     1   ar
    36    36    30   ar
    37    17    18    1
    38    25    26    1
@<TRIPOS>MOLECULE
*****
 36 38 0 0 0
SMALL
GASTEIGER

@<TRIPOS>ATOM
      1 N         -16.9080   -2.6657   18.3243 N.ar    1  UNL1       -0.2387
      2 N         -17.8573   -1.9004   17.4508 N.ar    1  UNL1       -0.1724
      3 C         -17.6985   -0.4413   17.7606 C.ar    1  UNL1        0.0861
      4 C         -18.4545    0.6838   17.1182 C.3     1  UNL1        0.0542
      5 C         -16.6510   -0.3049   18.8255 C.ar    1  UNL1        0.1009
      6 C         -16.1625   -1.6797   19.1739 C.ar    1  UNL1        0.1493
      7 C         -16.3880   -7.1352   18.3852 C.3     1  UNL1        0.1155
      8 C         -15.8496   -6.3330   17.2378 C.3     1  UNL1        0.0315
      9 C         -16.0229   -4.8432   17.2175 C.3     1  UNL1        0.0269
     10 C         -16.7347   -4.1555   18.3446 C.3     1  UNL1        0.1067
     11 C         -17.2731   -4.9577   19.4920 C.3     1  UNL1        0.0269
     12 C         -17.0998   -6.4475   19.5123 C.3     1  UNL1        0.0315
     13 C         -14.8458   -9.2227   18.2682 C.3     1  UNL1        0.1740
     14 O         -16.2147   -8.6250   18.4055 O.3     1  UNL1       -0.3536
     15 C         -16.1755    0.9805   19.4351 C.2     1  UNL1        0.2498
     16 O         -14.7523    1.4168   19.2504 O.2     1  UNL1       -0.2700
     17 N         -17.1232    1.8296   20.2294 N.am    1  UNL1       -0.3024
     18 H         -18.0573    1.5433   20.3506 H       1  UNL1        0.1497
     19 C         -16.6476    3.1150   20.8389 C.3     1  UNL1        0.0718
     20 C         -16.1461    4.2217   19.9593 C.3     1  UNL1        0.0213
     21 C         -16.6736    3.2938   22.3279 C.3     1  UNL1        0.0165
     22 C         -17.7045    2.2098   22.4400 C.3     1  UNL1        0.0016
     23 C         -15.6428    4.3777   22.2158 C.3     1  UNL1        0.0016
     24 C         -16.6996    3.4725   23.8171 C.3     1  UNL1        0.0016
     25 N         -15.1127   -2.0103   20.1930 N.pl3   1  UNL1       -0.1990
     26 H         -15.1352   -1.5827   21.0795 H       1  UNL1        0.1753
     27 S         -14.0284   -2.9925   19.8614 S.O2    1  UNL1        0.0747
     28 O         -13.6218   -2.1481   18.6902 O.2     1  UNL1       -0.1499
     29 O         -14.4351   -3.8369   21.0325 O.2     1  UNL1       -0.1499
     30 C         -12.9442   -3.9746   19.5297 C.ar    1  UNL1        0.1252
     31 C         -11.5954   -3.4838   19.0941 C.ar    1  UNL1        0.0199
     32 C         -10.5111   -4.4658   18.7624 C.ar    1  UNL1       -0.0029
     33 C         -10.7757   -5.9386   18.8663 C.ar    1  UNL1       -0.0218
     34 C          -9.6914   -6.9207   18.5347 C.3     1  UNL1        0.0310
     35 C         -12.1245   -6.4294   19.3020 C.ar    1  UNL1       -0.0029
     36 C         -13.2088   -5.4474   19.6337 C.ar    1  UNL1        0.0199
@<TRIPOS>BOND
     1    13    14    1
     2     7    14    1
     3     7     8    1
     4     8     9    1
     5     9    10    1
     6    10     1    1
     7     1     2   ar
     8     2     3   ar
     9     3     4    1
    10     3     5   ar
    11     5    15    1
    12    15    16    2
    13    15    17   am
    14    17    19    1
    15    19    20    1
    16    19    21    1
    17    21    22    1
    18    21    23    1
    19    21    24    1
    20     5     6   ar
    21     6    25    1
    22    25    27    1
    23    27    28    2
    24    27    29    2
    25    27    30    1
    26    30    31   ar
    27    31    32   ar
    28    32    33   ar
    29    33    34    1
    30    33    35   ar
    31    35    36   ar
    32    10    11    1
    33    11    12    1
    34    12     7    1
    35     6     1   ar
    36    36    30   ar
    37    17    18    1
    38    25    26    1
@<TRIPOS>MOLECULE
*****
 36 38 0 0 0
SMALL
GASTEIGER

@<TRIPOS>ATOM
      1 N          -8.2124  -16.9575   23.4323 N.ar    1  UNL1       -0.2387
      2 N          -7.5807  -15.6188   23.6749 N.ar    1  UNL1       -0.1724
      3 C          -6.0973  -15.7697   23.5115 C.ar    1  UNL1        0.0861
      4 C          -5.0780  -14.6800   23.6647 C.3     1  UNL1        0.0542
      5 C          -5.8122  -17.2017   23.1678 C.ar    1  UNL1        0.1009
      6 C          -7.1194  -17.9358   23.1189 C.ar    1  UNL1        0.1493
      7 C         -12.6137  -17.8772   23.6129 C.3     1  UNL1        0.1155
      8 C         -12.0880  -16.9265   22.5786 C.3     1  UNL1        0.0315
      9 C         -10.6209  -16.6200   22.5184 C.3     1  UNL1        0.0269
     10 C          -9.6795  -17.2640   23.4925 C.3     1  UNL1        0.1067
     11 C         -10.2052  -18.2147   24.5268 C.3     1  UNL1        0.0269
     12 C         -11.6723  -18.5213   24.5870 C.3     1  UNL1        0.0315
     13 C         -14.7265  -18.5052   24.9883 C.3     1  UNL1        0.1740
     14 O         -14.0808  -18.1838   23.6731 O.3     1  UNL1       -0.3536
     15 C          -4.4577  -17.7954   22.9171 C.2     1  UNL1        0.2498
     16 O          -3.6236  -18.2734   24.0685 O.2     1  UNL1       -0.2700
     17 N          -3.9373  -17.9111   21.5150 N.am    1  UNL1       -0.3024
     18 H          -4.4848  -17.5974   20.7593 H       1  UNL1        0.1497
     19 C          -2.5829  -18.5048   21.2644 C.3     1  UNL1        0.0718
     20 C          -2.3358  -19.9565   21.5503 C.3     1  UNL1        0.0213
     21 C          -1.4755  -17.6470   20.7279 C.3     1  UNL1        0.0165
     22 C          -1.0246  -18.7775   19.8511 C.3     1  UNL1        0.0016
     23 C          -1.9264  -16.5166   21.6048 C.3     1  UNL1        0.0016
     24 C          -0.3681  -16.7891   20.1914 C.3     1  UNL1        0.0016
     25 N          -7.3015  -19.3924   22.8107 N.pl3   1  UNL1       -0.1990
     26 H          -7.1255  -20.0682   23.5047 H       1  UNL1        0.1753
     27 S          -7.7519  -19.8195   21.4450 S.O2    1  UNL1        0.0747
     28 O          -6.3315  -19.7804   20.9645 O.2     1  UNL1       -0.1499
     29 O          -9.1722  -19.8586   21.9256 O.2     1  UNL1       -0.1499
     30 C          -8.2021  -20.2465   20.0794 C.ar    1  UNL1        0.1252
     31 C          -7.4355  -21.2967   19.3314 C.ar    1  UNL1        0.0199
     32 C          -7.8857  -21.7238   17.9658 C.ar    1  UNL1       -0.0029
     33 C          -9.1024  -21.1008   17.3482 C.ar    1  UNL1       -0.0218
     34 C          -9.5527  -21.5278   15.9826 C.3     1  UNL1        0.0310
     35 C          -9.8690  -20.0506   18.0963 C.ar    1  UNL1       -0.0029
     36 C          -9.4189  -19.6235   19.4619 C.ar    1  UNL1        0.0199
@<TRIPOS>BOND
     1    13    14    1
     2     7    14    1
     3     7     8    1
     4     8     9    1
     5     9    10    1
     6    10     1    1
     7     1     2   ar
     8     2     3   ar
     9     3     4    1
    10     3     5   ar
    11     5    15    1
    12    15    16    2
    13    15    17   am
    14    17    19    1
    15    19    20    1
    16    19    21    1
    17    21    22    1
    18    21    23    1
    19    21    24    1
    20     5     6   ar
    21     6    25    1
    22    25    27    1
    23    27    28    2
    24    27    29    2
    25    27    30    1
    26    30    31   ar
    27    31    32   ar
    28    32    33   ar
    29    33    34    1
    30    33    35   ar
    31    35    36   ar
    32    10    11    1
    33    11    12    1
    34    12     7    1
    35     6     1   ar
    36    36    30   ar
    37    17    18    1
    38    25    26    1
@<TRIPOS>MOLECULE
*****
 36 38 0 0 0
SMALL
GASTEIGER

@<TRIPOS>ATOM
      1 N           3.2840   -1.7556   19.8280 N.ar    1  UNL1       -0.2387
      2 N           3.1880   -3.0514   19.0787 N.ar    1  UNL1       -0.1724
      3 C           4.2676   -3.9611   19.5855 C.ar    1  UNL1        0.0861
      4 C           4.5367   -5.3590   19.1128 C.3     1  UNL1        0.0542
      5 C           5.0309   -3.2274   20.6481 C.ar    1  UNL1        0.1009
      6 C           4.4230   -1.8643   20.7980 C.ar    1  UNL1        0.1493
      7 C           0.6223    1.8290   19.2651 C.3     1  UNL1        0.1155
      8 C           1.9661    1.7808   18.6004 C.3     1  UNL1        0.0315
      9 C           2.8533    0.5860   18.7880 C.3     1  UNL1        0.0269
     10 C           2.3968   -0.5607   19.6404 C.3     1  UNL1        0.1067
     11 C           1.0530   -0.5126   20.3051 C.3     1  UNL1        0.0269
     12 C           0.1657    0.6822   20.1174 C.3     1  UNL1        0.0315
     13 C          -1.4161    3.2570   20.0102 C.3     1  UNL1        0.1740
     14 O          -0.2649    3.0238   19.0774 O.3     1  UNL1       -0.3536
     15 C           6.1973   -3.7628   21.4245 C.2     1  UNL1        0.2498
     16 O           7.1913   -4.6664   20.7571 O.2     1  UNL1       -0.2700
     17 N           6.3698   -3.3946   22.8684 N.am    1  UNL1       -0.3024
     18 H           5.7174   -2.8015   23.3065 H       1  UNL1        0.1497
     19 C           7.5362   -3.9300   23.6447 C.3     1  UNL1        0.0718
     20 C           8.9326   -3.5265   23.2739 C.3     1  UNL1        0.0213
     21 C           7.3063   -4.8688   24.7918 C.3     1  UNL1        0.0165
     22 C           6.6087   -3.7760   25.5463 C.3     1  UNL1        0.0016
     23 C           8.0040   -5.9615   24.0373 C.3     1  UNL1        0.0016
     24 C           7.0765   -5.8076   25.9389 C.3     1  UNL1        0.0016
     25 N           4.8748   -0.7974   21.7506 N.pl3   1  UNL1       -0.1990
     26 H           5.7769   -0.4122   21.6664 H       1  UNL1        0.1753
     27 S           3.9521   -0.3172   22.8315 S.O2    1  UNL1        0.0747
     28 O           3.9613    1.0564   22.2291 O.2     1  UNL1       -0.1499
     29 O           3.9429   -1.6909   23.4338 O.2     1  UNL1       -0.1499
     30 C           3.0294    0.1629   23.9122 C.ar    1  UNL1        0.1252
     31 C           3.4374    0.0504   25.3513 C.ar    1  UNL1        0.0199
     32 C           2.5148    0.5306   26.4321 C.ar    1  UNL1       -0.0029
     33 C           1.1842    1.1232   26.0739 C.ar    1  UNL1       -0.0218
     34 C           0.2615    1.6034   27.1547 C.3     1  UNL1        0.0310
     35 C           0.7763    1.2358   24.6349 C.ar    1  UNL1       -0.0029
     36 C           1.6989    0.7556   23.5540 C.ar    1  UNL1        0.0199
@<TRIPOS>BOND
     1    13    14    1
     2     7    14    1
     3     7     8    1
     4     8     9    1
     5     9    10    1
     6    10     1    1
     7     1     2   ar
     8     2     3   ar
     9     3     4    1
    10     3     5   ar
    11     5    15    1
    12    15    16    2
    13    15    17   am
    14    17    19    1
    15    19    20    1
    16    19    21    1
    17    21    22    1
    18    21    23    1
    19    21    24    1
    20     5     6   ar
    21     6    25    1
    22    25    27    1
    23    27    28    2
    24    27    29    2
    25    27    30    1
    26    30    31   ar
    27    31    32   ar
    28    32    33   ar
    29    33    34    1
    30    33    35   ar
    31    35    36   ar
    32    10    11    1
    33    11    12    1
    34    12     7    1
    35     6     1   ar
    36    36    30   ar
    37    17    18    1
    38    25    26    1
@<TRIPOS>MOLECULE
*****
 36 38 0 0 0
SMALL
GASTEIGER

@<TRIPOS>ATOM
      1 N           1.2820    1.3468   22.9020 N.ar    1  UNL1       -0.2387
      2 N           1.2607    0.7414   24.2742 N.ar    1  UNL1       -0.1724
      3 C           0.3458    1.5658   25.1306 C.ar    1  UNL1        0.0861
      4 C           0.0304    1.3186   26.5760 C.3     1  UNL1        0.0542
      5 C          -0.1984    2.6808   24.2876 C.ar    1  UNL1        0.1009
      6 C           0.3802    2.5455   22.9103 C.ar    1  UNL1        0.1493
      7 C           3.6375   -0.1669   19.3793 C.3     1  UNL1        0.1155
      8 C           4.1836    0.9454   20.2245 C.3     1  UNL1        0.0315
      9 C           3.3984    1.4500   21.3988 C.3     1  UNL1        0.0269
     10 C           2.0672    0.8423   21.7278 C.3     1  UNL1        0.1067
     11 C           1.5210   -0.2700   20.8825 C.3     1  UNL1        0.0269
     12 C           2.3062   -0.7746   19.7082 C.3     1  UNL1        0.0315
     13 C           3.7428   -0.8892   16.8858 C.3     1  UNL1        0.1740
     14 O           4.4227   -0.6714   18.2050 O.3     1  UNL1       -0.3536
     15 C          -1.1535    3.7444   24.7420 C.2     1  UNL1        0.2498
     16 O          -0.7081    5.1754   24.8046 O.2     1  UNL1       -0.2700
     17 N          -2.5541    3.3771   25.1339 N.am    1  UNL1       -0.3024
     18 H          -2.8464    2.4379   25.0929 H       1  UNL1        0.1497
     19 C          -3.5091    4.4407   25.5884 C.3     1  UNL1        0.0718
     20 C          -3.3467    5.0656   26.9423 C.3     1  UNL1        0.0213
     21 C          -4.6264    4.8794   24.6890 C.3     1  UNL1        0.0165
     22 C          -5.2466    3.5177   24.7952 C.3     1  UNL1        0.0016
     23 C          -4.0063    6.2410   24.5827 C.3     1  UNL1        0.0016
     24 C          -5.7439    5.3181   23.7895 C.3     1  UNL1        0.0016
     25 N           0.1052    3.4500   21.7457 N.pl3   1  UNL1       -0.1990
     26 H           0.8234    4.0170   21.3825 H       1  UNL1        0.1753
     27 S          -1.2640    3.4906   21.1344 S.O2    1  UNL1        0.0747
     28 O          -1.1322    2.0484   20.7436 O.2     1  UNL1       -0.1499
     29 O          -1.3958    4.9327   21.5252 O.2     1  UNL1       -0.1499
     30 C          -2.6332    3.5310   20.5231 C.ar    1  UNL1        0.1252
     31 C          -2.7972    3.8784   19.0732 C.ar    1  UNL1        0.0199
     32 C          -4.1663    3.9189   18.4618 C.ar    1  UNL1       -0.0029
     33 C          -5.3715    3.6120   19.3004 C.ar    1  UNL1       -0.0218
     34 C          -6.7408    3.6525   18.6892 C.3     1  UNL1        0.0310
     35 C          -5.2075    3.2646   20.7504 C.ar    1  UNL1       -0.0029
     36 C          -3.8384    3.2241   21.3618 C.ar    1  UNL1        0.0199
@<TRIPOS>BOND
     1    13    14    1
     2     7    14    1
     3     7     8    1
     4     8     9    1
     5     9    10    1
     6    10     1    1
     7     1     2   ar
     8     2     3   ar
     9     3     4    1
    10     3     5   ar
    11     5    15    1
    12    15    16    2
    13    15    17   am
    14    17    19    1
    15    19    20    1
    16    19    21    1
    17    21    22    1
    18    21    23    1
    19    21    24    1
    20     5     6   ar
    21     6    25    1
    22    25    27    1
    23    27    28    2
    24    27    29    2
    25    27    30    1
    26    30    31   ar
    27    31    32   ar
    28    32    33   ar
    29    33    34    1
    30    33    35   ar
    31    35    36   ar
    32    10    11    1
    33    11    12    1
    34    12     7    1
    35     6     1   ar
    36    36    30   ar
    37    17    18    1
    38    25    26    1
@<TRIPOS>MOLECULE
*****
 36 38 0 0 0
SMALL
GASTEIGER

@<TRIPOS>ATOM
      1 N           1.3161    3.1536   32.0455 N.ar    1  UNL1       -0.2387
      2 N           0.9043    4.4949   32.5760 N.ar    1  UNL1       -0.1724
      3 C           1.2951    4.5611   34.0227 C.ar    1  UNL1        0.0861
      4 C           1.0717    5.7236   34.9439 C.3     1  UNL1        0.0542
      5 C           1.9484    3.2607   34.3863 C.ar    1  UNL1        0.1009
      6 C           1.9613    2.3909   33.1644 C.ar    1  UNL1        0.1493
      7 C           0.7202    1.6772   27.8365 C.3     1  UNL1        0.1155
      8 C           1.7368    2.7429   28.1207 C.3     1  UNL1        0.0315
      9 C           1.9354    3.2350   29.5236 C.3     1  UNL1        0.0269
     10 C           1.1174    2.6615   30.6425 C.3     1  UNL1        0.1067
     11 C           0.1009    1.5957   30.3584 C.3     1  UNL1        0.0269
     12 C          -0.0978    1.1036   28.9554 C.3     1  UNL1        0.0315
     13 C          -0.3948    1.9225   25.5028 C.3     1  UNL1        0.1740
     14 O           0.5216    1.1851   26.4336 O.3     1  UNL1       -0.3536
     15 C           2.4930    2.8945   35.7351 C.2     1  UNL1        0.2498
     16 O           3.8542    2.2750   35.8512 O.2     1  UNL1       -0.2700
     17 N           1.6766    3.1478   36.9677 N.am    1  UNL1       -0.3024
     18 H           0.7832    3.5544   36.8915 H       1  UNL1        0.1497
     19 C           2.2213    2.7815   38.3164 C.3     1  UNL1        0.0718
     20 C           3.2498    3.6546   38.9722 C.3     1  UNL1        0.0213
     21 C           1.7377    1.5422   39.0093 C.3     1  UNL1        0.0165
     22 C           3.0659    0.8884   38.7669 C.3     1  UNL1        0.0016
     23 C           0.4096    2.1960   39.2517 C.3     1  UNL1        0.0016
     24 C           1.2541    0.3028   39.7023 C.3     1  UNL1        0.0016
     25 N           2.5213    1.0020   33.0767 N.pl3   1  UNL1       -0.1990
     26 H           2.2636    0.3244   33.7428 H       1  UNL1        0.1753
     27 S           3.4739    0.6457   31.9741 S.O2    1  UNL1        0.0747
     28 O           4.3777    1.7672   32.3926 O.2     1  UNL1       -0.1499
     29 O           2.5700   -0.4759   31.5557 O.2     1  UNL1       -0.1499
     30 C           4.4265    0.2894   30.8716 C.ar    1  UNL1        0.1252
     31 C           5.8996    0.2210   31.1462 C.ar    1  UNL1        0.0199
     32 C           6.8523   -0.1353   30.0438 C.ar    1  UNL1       -0.0029
     33 C           6.3320   -0.4232   28.6667 C.ar    1  UNL1       -0.0218
     34 C           7.2846   -0.7795   27.5642 C.3     1  UNL1        0.0310
     35 C           4.8589   -0.3549   28.3921 C.ar    1  UNL1       -0.0029
     36 C           3.9062    0.0014   29.4946 C.ar    1  UNL1        0.0199
@<TRIPOS>BOND
     1    13    14    1
     2     7    14    1
     3     7     8    1
     4     8     9    1
     5     9    10    1
     6    10     1    1
     7     1     2   ar
     8     2     3   ar
     9     3     4    1
    10     3     5   ar
    11     5    15    1
    12    15    16    2
    13    15    17   am
    14    17    19    1
    15    19    20    1
    16    19    21    1
    17    21    22    1
    18    21    23    1
    19    21    24    1
    20     5     6   ar
    21     6    25    1
    22    25    27    1
    23    27    28    2
    24    27    29    2
    25    27    30    1
    26    30    31   ar
    27    31    32   ar
    28    32    33   ar
    29    33    34    1
    30    33    35   ar
    31    35    36   ar
    32    10    11    1
    33    11    12    1
    34    12     7    1
    35     6     1   ar
    36    36    30   ar
    37    17    18    1
    38    25    26    1
@<TRIPOS>MOLECULE
*****
 36 38 0 0 0
SMALL
GASTEIGER

@<TRIPOS>ATOM
      1 N           4.8053    0.0925   35.1472 N.ar    1  UNL1       -0.2387
      2 N           4.5820   -0.1271   36.6142 N.ar    1  UNL1       -0.1724
      3 C           3.9289    1.1023   37.1728 C.ar    1  UNL1        0.0861
      4 C           3.5268    1.3149   38.6022 C.3     1  UNL1        0.0542
      5 C           3.7486    2.0818   36.0511 C.ar    1  UNL1        0.1009
      6 C           4.2902    1.4576   34.7993 C.ar    1  UNL1        0.1493
      7 C           6.6895   -2.8308   32.2917 C.3     1  UNL1        0.1155
      8 C           7.4920   -1.6824   32.8275 C.3     1  UNL1        0.0315
      9 C           6.8639   -0.7080   33.7793 C.3     1  UNL1        0.0269
     10 C           5.4333   -0.8819   34.1954 C.3     1  UNL1        0.1067
     11 C           4.6308   -2.0303   33.6596 C.3     1  UNL1        0.0269
     12 C           5.2589   -3.0048   32.7077 C.3     1  UNL1        0.0315
     13 C           7.0001   -5.2674   31.4454 C.3     1  UNL1        0.1740
     14 O           7.3175   -3.8053   31.3399 O.3     1  UNL1       -0.3536
     15 C           3.1345    3.4458   36.1619 C.2     1  UNL1        0.2498
     16 O           3.8434    4.5281   36.9208 O.2     1  UNL1       -0.2700
     17 N           1.8114    3.7275   35.5136 N.am    1  UNL1       -0.3024
     18 H           1.3461    3.0172   35.0155 H       1  UNL1        0.1497
     19 C           1.1974    5.0916   35.6244 C.3     1  UNL1        0.0718
     20 C           0.5898    5.5374   36.9213 C.3     1  UNL1        0.0213
     21 C           1.1910    6.0097   34.4383 C.3     1  UNL1        0.0165
     22 C           0.4706    4.9673   33.6353 C.3     1  UNL1        0.0016
     23 C           1.9113    7.0520   35.2412 C.3     1  UNL1        0.0016
     24 C           1.1845    6.9279   33.2521 C.3     1  UNL1        0.0016
     25 N           4.3128    2.0881   33.4384 N.pl3   1  UNL1       -0.1990
     26 H           4.9753    2.7858   33.2300 H       1  UNL1        0.1753
     27 S           3.3258    1.6553   32.3948 S.O2    1  UNL1        0.0747
     28 O           4.4512    1.3988   31.4369 O.2     1  UNL1       -0.1499
     29 O           2.2005    1.9118   33.3528 O.2     1  UNL1       -0.1499
     30 C           2.3390    1.2226   31.3514 C.ar    1  UNL1        0.1252
     31 C           2.6199    0.0136   30.5091 C.ar    1  UNL1        0.0199
     32 C           1.6331   -0.4192   29.4656 C.ar    1  UNL1       -0.0029
     33 C           0.3655    0.3570   29.2643 C.ar    1  UNL1       -0.0218
     34 C          -0.6214   -0.0757   28.2208 C.3     1  UNL1        0.0310
     35 C           0.0846    1.5660   30.1066 C.ar    1  UNL1       -0.0029
     36 C           1.0713    1.9988   31.1501 C.ar    1  UNL1        0.0199
@<TRIPOS>BOND
     1    13    14    1
     2     7    14    1
     3     7     8    1
     4     8     9    1
     5     9    10    1
     6    10     1    1
     7     1     2   ar
     8     2     3   ar
     9     3     4    1
    10     3     5   ar
    11     5    15    1
    12    15    16    2
    13    15    17   am
    14    17    19    1
    15    19    20    1
    16    19    21    1
    17    21    22    1
    18    21    23    1
    19    21    24    1
    20     5     6   ar
    21     6    25    1
    22    25    27    1
    23    27    28    2
    24    27    29    2
    25    27    30    1
    26    30    31   ar
    27    31    32   ar
    28    32    33   ar
    29    33    34    1
    30    33    35   ar
    31    35    36   ar
    32    10    11    1
    33    11    12    1
    34    12     7    1
    35     6     1   ar
    36    36    30   ar
    37    17    18    1
    38    25    26    1
@<TRIPOS>MOLECULE
*****
 36 38 0 0 0
SMALL
GASTEIGER

@<TRIPOS>ATOM
      1 N          -2.3460    3.3692   24.6313 N.ar    1  UNL1       -0.2387
      2 N          -3.8300    3.3589   24.8498 N.ar    1  UNL1       -0.1724
      3 C          -4.4890    3.8005   23.5767 C.ar    1  UNL1        0.0861
      4 C          -5.9655    3.9353   23.3489 C.3     1  UNL1        0.0542
      5 C          -3.4123    4.0837   22.5714 C.ar    1  UNL1        0.1009
      6 C          -2.0879    3.8171   23.2232 C.ar    1  UNL1        0.1493
      7 C           0.7823    2.2523   27.6671 C.3     1  UNL1        0.1155
      8 C           0.0925    3.5813   27.7552 C.3     1  UNL1        0.0315
      9 C          -0.9503    3.9536   26.7432 C.3     1  UNL1        0.0269
     10 C          -1.3032    2.9969   25.6432 C.3     1  UNL1        0.1067
     11 C          -0.6134    1.6679   25.5552 C.3     1  UNL1        0.0269
     12 C           0.4294    1.2956   26.5672 C.3     1  UNL1        0.0315
     13 C           1.6574    0.6410   29.5077 C.3     1  UNL1        0.1740
     14 O           1.8251    1.8800   28.6791 O.3     1  UNL1       -0.3536
     15 C          -3.6231    4.5513   21.1618 C.2     1  UNL1        0.2498
     16 O          -3.5809    6.0165   20.8435 O.2     1  UNL1       -0.2700
     17 N          -3.8759    3.5537   20.0705 N.am    1  UNL1       -0.3024
     18 H          -3.9036    2.5920   20.2794 H       1  UNL1        0.1497
     19 C          -4.0867    4.0213   18.6610 C.3     1  UNL1        0.0718
     20 C          -2.9478    3.9981   17.6850 C.3     1  UNL1        0.0213
     21 C          -5.4361    4.5122   18.2275 C.3     1  UNL1        0.0165
     22 C          -6.0735    3.2997   18.8389 C.3     1  UNL1        0.0016
     23 C          -4.7987    5.7246   17.6162 C.3     1  UNL1        0.0016
     24 C          -6.7857    5.0031   17.7940 C.3     1  UNL1        0.0016
     25 N          -0.7417    3.9713   22.5798 N.pl3   1  UNL1       -0.1990
     26 H          -0.3435    4.8661   22.4799 H       1  UNL1        0.1753
     27 S          -0.0022    2.7622   22.0885 S.O2    1  UNL1        0.0747
     28 O          -1.1648    2.4086   21.2091 O.2     1  UNL1       -0.1499
     29 O           1.1603    3.1158   22.9679 O.2     1  UNL1       -0.1499
     30 C           0.7371    1.5531   21.5972 C.ar    1  UNL1        0.1252
     31 C           1.8519    0.9720   22.4154 C.ar    1  UNL1        0.0199
     32 C           2.5913   -0.2371   21.9242 C.ar    1  UNL1       -0.0029
     33 C           2.2159   -0.8651   20.6147 C.ar    1  UNL1       -0.0218
     34 C           2.9553   -2.0743   20.1234 C.3     1  UNL1        0.0310
     35 C           1.1011   -0.2840   19.7965 C.ar    1  UNL1       -0.0029
     36 C           0.3617    0.9251   20.2877 C.ar    1  UNL1        0.0199
@<TRIPOS>BOND
     1    13    14    1
     2     7    14    1
     3     7     8    1
     4     8     9    1
     5     9    10    1
     6    10     1    1
     7     1     2   ar
     8     2     3   ar
     9     3     4    1
    10     3     5   ar
    11     5    15    1
    12    15    16    2
    13    15    17   am
    14    17    19    1
    15    19    20    1
    16    19    21    1
    17    21    22    1
    18    21    23    1
    19    21    24    1
    20     5     6   ar
    21     6    25    1
    22    25    27    1
    23    27    28    2
    24    27    29    2
    25    27    30    1
    26    30    31   ar
    27    31    32   ar
    28    32    33   ar
    29    33    34    1
    30    33    35   ar
    31    35    36   ar
    32    10    11    1
    33    11    12    1
    34    12     7    1
    35     6     1   ar
    36    36    30   ar
    37    17    18    1
    38    25    26    1
