@<TRIPOS>MOLECULE
*****
 28 30 0 0 0
SMALL
GASTEIGER

@<TRIPOS>ATOM
      1 C          -7.5970  -17.4989   22.6397 C.ar    1  UNL1        0.1464
      2 C          -7.9595  -18.6293   21.7228 C.ar    1  UNL1        0.0386
      3 C          -6.8840  -19.5007   21.1451 C.ar    1  UNL1        0.0214
      4 C          -5.4460  -19.2418   21.4843 C.ar    1  UNL1        0.1101
      5 C          -5.0835  -18.1113   22.4011 C.ar    1  UNL1        0.0331
      6 C          -6.1590  -17.2399   22.9788 C.ar    1  UNL1        0.0778
      7 C          -3.5913  -18.0984   22.5535 C.3     1  UNL1        0.2185
      8 O          -2.7982  -17.1325   23.3829 O.3     1  UNL1       -0.3738
      9 C          -3.0316  -19.2208   21.7307 C.3     1  UNL1        0.4018
     10 F          -1.7106  -18.7271   22.2419 F       1  UNL1       -0.1767
     11 F          -2.1957  -20.2399   21.0149 F       1  UNL1       -0.1767
     12 S          -4.1778  -19.9275   21.0699 S.O2    1  UNL1        0.0650
     13 O          -3.1023  -20.7989   20.4922 O.2     1  UNL1       -0.1635
     14 O          -5.0992  -20.8163   20.2883 O.2     1  UNL1       -0.1635
     15 H          -3.4004  -16.5063   23.8143 H       1  UNL1        0.2110
     16 C          -5.7966  -16.1094   23.8958 C.3     1  UNL1        0.3437
     17 F          -6.2756  -16.1135   25.3172 F       1  UNL1       -0.1932
     18 F          -4.9550  -14.9749   23.3912 F       1  UNL1       -0.1932
     19 O          -8.6726  -16.6273   23.2174 O.3     1  UNL1       -0.4536
     20 C         -12.5595  -17.3921   22.9779 C.ar    1  UNL1        0.0737
     21 C         -12.8681  -16.8654   21.6077 C.ar    1  UNL1        0.0401
     22 C         -11.7782  -16.2593   20.7742 C.ar    1  UNL1        0.1439
     23 F         -12.0869  -15.7325   19.4040 F       1  UNL1       -0.2040
     24 C         -10.3797  -16.1799   21.3108 C.ar    1  UNL1        0.0671
     25 C         -10.0711  -16.7067   22.6809 C.ar    1  UNL1        0.1482
     26 C         -11.1610  -17.3128   23.5145 C.ar    1  UNL1        0.0479
     27 N         -14.7392  -18.6043   24.6450 N.1     1  UNL1       -0.1908
     28 C         -13.6493  -17.9982   23.8115 C.1     1  UNL1        0.1006
@<TRIPOS>BOND
     1    27    28    3
     2    28    20    1
     3    20    21   ar
     4    21    22   ar
     5    22    23    1
     6    22    24   ar
     7    24    25   ar
     8    25    19    1
     9    19     1    1
    10     1     2   ar
    11     2     3   ar
    12     3     4   ar
    13     4     5   ar
    14     5     6   ar
    15     6    16    1
    16    16    17    1
    17    16    18    1
    18     5     7    1
    19     7     8    1
    20     7     9    1
    21     9    10    1
    22     9    11    1
    23     9    12    1
    24    12    13    2
    25    12    14    2
    26    25    26   ar
    27    26    20   ar
    28     6     1   ar
    29    12     4    1
    30     8    15    1
@<TRIPOS>MOLECULE
*****
 28 30 0 0 0
SMALL
GASTEIGER

@<TRIPOS>ATOM
      1 C          -7.0525  -17.6981   22.9911 C.ar    1  UNL1        0.1464
      2 C          -7.4390  -18.8895   22.1659 C.ar    1  UNL1        0.0386
      3 C          -6.3811  -19.7000   21.4775 C.ar    1  UNL1        0.0214
      4 C          -4.9367  -19.3191   21.6143 C.ar    1  UNL1        0.1101
      5 C          -4.5503  -18.1276   22.4395 C.ar    1  UNL1        0.0331
      6 C          -5.6081  -17.3171   23.1279 C.ar    1  UNL1        0.0778
      7 C          -3.0569  -17.9953   22.3916 C.3     1  UNL1        0.2185
      8 O          -2.2429  -16.9388   23.0780 O.3     1  UNL1       -0.3738
      9 C          -2.5204  -19.1051   21.5367 C.3     1  UNL1        0.4018
     10 F          -1.1882  -18.4921   21.8523 F       1  UNL1       -0.1767
     11 F          -1.7054  -20.0866   20.7479 F       1  UNL1       -0.1767
     12 S          -3.6822  -19.9232   21.0563 S.O2    1  UNL1        0.0650
     13 O          -2.6243  -20.7337   20.3679 O.2     1  UNL1       -0.1635
     14 O          -4.6228  -20.9107   20.4320 O.2     1  UNL1       -0.1635
     15 H          -2.8323  -16.3428   23.5661 H       1  UNL1        0.2110
     16 C          -5.2217  -16.1256   23.9532 C.3     1  UNL1        0.3437
     17 F          -4.8039  -14.8514   23.2810 F       1  UNL1       -0.1932
     18 F          -5.2530  -16.2084   25.4506 F       1  UNL1       -0.1932
     19 O          -8.1104  -16.8875   23.6796 O.3     1  UNL1       -0.4536
     20 C         -11.4839  -16.6447   21.6034 C.ar    1  UNL1        0.0737
     21 C         -12.4298  -17.3707   22.5135 C.ar    1  UNL1        0.0401
     22 C         -11.9358  -17.9357   23.8123 C.ar    1  UNL1        0.1439
     23 F         -12.8816  -18.6617   24.7225 F       1  UNL1       -0.2040
     24 C         -10.4960  -17.7746   24.2010 C.ar    1  UNL1        0.0671
     25 C          -9.5502  -17.0486   23.2909 C.ar    1  UNL1        0.1482
     26 C         -10.0441  -16.4836   21.9920 C.ar    1  UNL1        0.0479
     27 N         -12.4718  -15.5149   19.0058 N.1     1  UNL1       -0.1908
     28 C         -11.9779  -16.0798   20.3046 C.1     1  UNL1        0.1006
@<TRIPOS>BOND
     1    27    28    3
     2    28    20    1
     3    20    21   ar
     4    21    22   ar
     5    22    23    1
     6    22    24   ar
     7    24    25   ar
     8    25    19    1
     9    19     1    1
    10     1     2   ar
    11     2     3   ar
    12     3     4   ar
    13     4     5   ar
    14     5     6   ar
    15     6    16    1
    16    16    17    1
    17    16    18    1
    18     5     7    1
    19     7     8    1
    20     7     9    1
    21     9    10    1
    22     9    11    1
    23     9    12    1
    24    12    13    2
    25    12    14    2
    26    25    26   ar
    27    26    20   ar
    28     6     1   ar
    29    12     4    1
    30     8    15    1
@<TRIPOS>MOLECULE
*****
 28 30 0 0 0
SMALL
GASTEIGER

@<TRIPOS>ATOM
      1 C          -7.9610  -19.1528   21.6483 C.ar    1  UNL1        0.1464
      2 C          -7.8094  -18.0655   22.6704 C.ar    1  UNL1        0.0386
      3 C          -6.4412  -17.6209   23.0950 C.ar    1  UNL1        0.0214
      4 C          -5.2246  -18.2637   22.4975 C.ar    1  UNL1        0.1101
      5 C          -5.3763  -19.3510   21.4755 C.ar    1  UNL1        0.0331
      6 C          -6.7445  -19.7956   21.0509 C.ar    1  UNL1        0.0778
      7 C          -4.0039  -19.7957   21.0647 C.3     1  UNL1        0.2185
      8 O          -3.6871  -20.8652   20.0618 O.3     1  UNL1       -0.3738
      9 C          -3.0040  -18.9833   21.8330 C.3     1  UNL1        0.4018
     10 F          -1.9966  -19.7959   21.0749 F       1  UNL1       -0.1767
     11 F          -1.7936  -18.3408   22.4427 F       1  UNL1       -0.1767
     12 S          -3.7585  -18.0364   22.7185 S.O2    1  UNL1        0.0650
     13 O          -2.3903  -17.5918   23.1431 O.2     1  UNL1       -0.1635
     14 O          -4.2269  -16.9966   23.6928 O.2     1  UNL1       -0.1635
     15 H          -4.5127  -21.2343   19.7110 H       1  UNL1        0.2110
     16 C          -6.8963  -20.8830   20.0287 C.3     1  UNL1        0.3437
     17 F          -7.8213  -20.6931   18.8634 F       1  UNL1       -0.1932
     18 F          -6.1229  -22.1602   20.1721 F       1  UNL1       -0.1932
     19 O          -9.3293  -19.5975   21.2237 O.3     1  UNL1       -0.4536
     20 C         -12.5370  -18.0816   23.0022 C.ar    1  UNL1        0.0737
     21 C         -12.8999  -16.9849   22.0453 C.ar    1  UNL1        0.0401
     22 C         -12.0727  -16.7592   20.8146 C.ar    1  UNL1        0.1439
     23 F         -12.4357  -15.6625   19.8577 F       1  UNL1       -0.2040
     24 C         -10.8825  -17.6300   20.5407 C.ar    1  UNL1        0.0671
     25 C         -10.5195  -18.7266   21.4976 C.ar    1  UNL1        0.1482
     26 C         -11.3467  -18.9525   22.7284 C.ar    1  UNL1        0.0479
     27 N         -14.1914  -18.5332   25.4636 N.1     1  UNL1       -0.1908
     28 C         -13.3642  -18.3074   24.2329 C.1     1  UNL1        0.1006
@<TRIPOS>BOND
     1    27    28    3
     2    28    20    1
     3    20    21   ar
     4    21    22   ar
     5    22    23    1
     6    22    24   ar
     7    24    25   ar
     8    25    19    1
     9    19     1    1
    10     1     2   ar
    11     2     3   ar
    12     3     4   ar
    13     4     5   ar
    14     5     6   ar
    15     6    16    1
    16    16    17    1
    17    16    18    1
    18     5     7    1
    19     7     8    1
    20     7     9    1
    21     9    10    1
    22     9    11    1
    23     9    12    1
    24    12    13    2
    25    12    14    2
    26    25    26   ar
    27    26    20   ar
    28     6     1   ar
    29    12     4    1
    30     8    15    1
@<TRIPOS>MOLECULE
*****
 28 30 0 0 0
SMALL
GASTEIGER

@<TRIPOS>ATOM
      1 C          -7.2986  -17.4652   23.5647 C.ar    1  UNL1        0.1464
      2 C          -6.1459  -16.5562   23.8728 C.ar    1  UNL1        0.0386
      3 C          -4.7957  -16.8299   23.2797 C.ar    1  UNL1        0.0214
      4 C          -4.5981  -18.0126   22.3785 C.ar    1  UNL1        0.1101
      5 C          -5.7508  -18.9216   22.0704 C.ar    1  UNL1        0.0331
      6 C          -7.1010  -18.6479   22.6635 C.ar    1  UNL1        0.0778
      7 C          -5.2570  -20.0022   21.1547 C.3     1  UNL1        0.2185
      8 O          -6.0772  -21.1265   20.5951 O.3     1  UNL1       -0.3738
      9 C          -3.7992  -19.7610   20.8968 C.3     1  UNL1        0.4018
     10 F          -3.9064  -20.9941   20.0495 F       1  UNL1       -0.1767
     11 F          -2.3638  -19.7777   20.4619 F       1  UNL1       -0.1767
     12 S          -3.3919  -18.5314   21.6532 S.O2    1  UNL1        0.0650
     13 O          -2.0416  -18.8051   21.0601 O.2     1  UNL1       -0.1635
     14 O          -2.7023  -17.3590   22.2856 O.2     1  UNL1       -0.1635
     15 H          -6.9893  -21.0526   20.9166 H       1  UNL1        0.2110
     16 C          -8.2538  -19.5569   22.3554 C.3     1  UNL1        0.3437
     17 F          -8.8818  -19.5365   20.9934 F       1  UNL1       -0.1932
     18 F          -8.7786  -20.4863   23.4094 F       1  UNL1       -0.1932
     19 O          -8.6490  -17.1915   24.1578 O.3     1  UNL1       -0.4536
     20 C         -10.9599  -16.2525   21.0710 C.ar    1  UNL1        0.0737
     21 C         -12.2577  -16.8788   21.4877 C.ar    1  UNL1        0.0401
     22 C         -12.3526  -17.6092   22.7944 C.ar    1  UNL1        0.1439
     23 F         -13.6504  -18.2354   23.2111 F       1  UNL1       -0.2040
     24 C         -11.1497  -17.7134   23.6844 C.ar    1  UNL1        0.0671
     25 C          -9.8519  -17.0873   23.2678 C.ar    1  UNL1        0.1482
     26 C          -9.7570  -16.3568   21.9611 C.ar    1  UNL1        0.0479
     27 N         -10.7701  -14.7917   18.4577 N.1     1  UNL1       -0.1908
     28 C         -10.8650  -15.5221   19.7644 C.1     1  UNL1        0.1006
@<TRIPOS>BOND
     1    27    28    3
     2    28    20    1
     3    20    21   ar
     4    21    22   ar
     5    22    23    1
     6    22    24   ar
     7    24    25   ar
     8    25    19    1
     9    19     1    1
    10     1     2   ar
    11     2     3   ar
    12     3     4   ar
    13     4     5   ar
    14     5     6   ar
    15     6    16    1
    16    16    17    1
    17    16    18    1
    18     5     7    1
    19     7     8    1
    20     7     9    1
    21     9    10    1
    22     9    11    1
    23     9    12    1
    24    12    13    2
    25    12    14    2
    26    25    26   ar
    27    26    20   ar
    28     6     1   ar
    29    12     4    1
    30     8    15    1
@<TRIPOS>MOLECULE
*****
 28 30 0 0 0
SMALL
GASTEIGER

@<TRIPOS>ATOM
      1 C          -6.7457  -17.1117   23.5305 C.ar    1  UNL1        0.1464
      2 C          -5.4837  -16.3505   23.8094 C.ar    1  UNL1        0.0386
      3 C          -4.1849  -16.8079   23.2146 C.ar    1  UNL1        0.0214
      4 C          -4.1482  -18.0266   22.3408 C.ar    1  UNL1        0.1101
      5 C          -5.4102  -18.7879   22.0619 C.ar    1  UNL1        0.0331
      6 C          -6.7089  -18.3304   22.6568 C.ar    1  UNL1        0.0778
      7 C          -5.0668  -19.9434   21.1694 C.3     1  UNL1        0.2185
      8 O          -6.0288  -20.9664   20.6421 O.3     1  UNL1       -0.3738
      9 C          -3.5925  -19.8964   20.8966 C.3     1  UNL1        0.4018
     10 F          -3.8640  -21.1249   20.0799 F       1  UNL1       -0.1767
     11 F          -2.1751  -20.1062   20.4531 F       1  UNL1       -0.1767
     12 S          -3.0247  -18.7118   21.6206 S.O2    1  UNL1        0.0650
     13 O          -1.7260  -19.1692   21.0258 O.2     1  UNL1       -0.1635
     14 O          -2.1855  -17.6228   22.2203 O.2     1  UNL1       -0.1635
     15 H          -6.9210  -20.7692   20.9676 H       1  UNL1        0.2110
     16 C          -7.9710  -19.0916   22.3779 C.3     1  UNL1        0.3437
     17 F          -8.6065  -19.0188   21.0211 F       1  UNL1       -0.1932
     18 F          -8.5976  -19.9256   23.4558 F       1  UNL1       -0.1932
     19 O          -8.0445  -16.6542   24.1254 O.3     1  UNL1       -0.4536
     20 C         -11.7977  -17.1094   22.9185 C.ar    1  UNL1        0.0737
     21 C         -11.7431  -16.4549   21.5699 C.ar    1  UNL1        0.0401
     22 C         -10.4557  -15.8669   21.0732 C.ar    1  UNL1        0.1439
     23 F         -10.4012  -15.2124   19.7245 F       1  UNL1       -0.2040
     24 C          -9.2229  -15.9333   21.9250 C.ar    1  UNL1        0.0671
     25 C          -9.2774  -16.5878   23.2736 C.ar    1  UNL1        0.1482
     26 C         -10.5649  -17.1758   23.7704 C.ar    1  UNL1        0.0479
     27 N         -14.3725  -18.2854   23.9120 N.1     1  UNL1       -0.1908
     28 C         -13.0851  -17.6974   23.4153 C.1     1  UNL1        0.1006
@<TRIPOS>BOND
     1    27    28    3
     2    28    20    1
     3    20    21   ar
     4    21    22   ar
     5    22    23    1
     6    22    24   ar
     7    24    25   ar
     8    25    19    1
     9    19     1    1
    10     1     2   ar
    11     2     3   ar
    12     3     4   ar
    13     4     5   ar
    14     5     6   ar
    15     6    16    1
    16    16    17    1
    17    16    18    1
    18     5     7    1
    19     7     8    1
    20     7     9    1
    21     9    10    1
    22     9    11    1
    23     9    12    1
    24    12    13    2
    25    12    14    2
    26    25    26   ar
    27    26    20   ar
    28     6     1   ar
    29    12     4    1
    30     8    15    1
@<TRIPOS>MOLECULE
*****
 28 30 0 0 0
SMALL
GASTEIGER

@<TRIPOS>ATOM
      1 C          -5.6448  -19.5405   21.7834 C.ar    1  UNL1        0.1464
      2 C          -5.4438  -20.3233   20.5198 C.ar    1  UNL1        0.0386
      3 C          -4.2717  -20.0266   19.6321 C.ar    1  UNL1        0.0214
      4 C          -3.3005  -18.9471   20.0080 C.ar    1  UNL1        0.1101
      5 C          -3.5015  -18.1642   21.2716 C.ar    1  UNL1        0.0331
      6 C          -4.6736  -18.4609   22.1593 C.ar    1  UNL1        0.0778
      7 C          -2.3867  -17.1666   21.3811 C.3     1  UNL1        0.2185
      8 O          -2.1954  -16.1765   22.4915 O.3     1  UNL1       -0.3738
      9 C          -1.4967  -17.3329   20.1851 C.3     1  UNL1        0.4018
     10 F          -0.7116  -16.2186   20.8111 F       1  UNL1       -0.1767
     11 F          -0.4426  -17.2663   19.1201 F       1  UNL1       -0.1767
     12 S          -2.0614  -18.4333   19.3365 S.O2    1  UNL1        0.0650
     13 O          -0.8893  -18.1366   18.4488 O.2     1  UNL1       -0.1635
     14 O          -2.3812  -19.4717   18.3024 O.2     1  UNL1       -0.1635
     15 H          -2.9096  -16.2763   23.1403 H       1  UNL1        0.2110
     16 C          -4.8747  -17.6780   23.4229 C.3     1  UNL1        0.3437
     17 F          -6.0918  -16.8167   23.5860 F       1  UNL1       -0.1932
     18 F          -3.8585  -17.7565   24.5235 F       1  UNL1       -0.1932
     19 O          -6.8170  -19.8371   22.6711 O.3     1  UNL1       -0.4536
     20 C         -10.7021  -19.0278   22.7050 C.ar    1  UNL1        0.0737
     21 C         -10.9974  -18.9941   21.2346 C.ar    1  UNL1        0.0401
     22 C          -9.8993  -19.2413   20.2432 C.ar    1  UNL1        0.1439
     23 F         -10.1946  -19.2076   18.7729 F       1  UNL1       -0.2040
     24 C          -8.5058  -19.5224   20.7221 C.ar    1  UNL1        0.0671
     25 C          -8.2105  -19.5561   22.1923 C.ar    1  UNL1        0.1482
     26 C          -9.3086  -19.3088   23.1838 C.ar    1  UNL1        0.0479
     27 N         -12.8984  -18.5332   24.6878 N.1     1  UNL1       -0.1908
     28 C         -11.8002  -18.7805   23.6964 C.1     1  UNL1        0.1006
@<TRIPOS>BOND
     1    27    28    3
     2    28    20    1
     3    20    21   ar
     4    21    22   ar
     5    22    23    1
     6    22    24   ar
     7    24    25   ar
     8    25    19    1
     9    19     1    1
    10     1     2   ar
    11     2     3   ar
    12     3     4   ar
    13     4     5   ar
    14     5     6   ar
    15     6    16    1
    16    16    17    1
    17    16    18    1
    18     5     7    1
    19     7     8    1
    20     7     9    1
    21     9    10    1
    22     9    11    1
    23     9    12    1
    24    12    13    2
    25    12    14    2
    26    25    26   ar
    27    26    20   ar
    28     6     1   ar
    29    12     4    1
    30     8    15    1
@<TRIPOS>MOLECULE
*****
 28 30 0 0 0
SMALL
GASTEIGER

@<TRIPOS>ATOM
      1 C         -13.0978   -3.5432   16.7253 C.ar    1  UNL1        0.1464
      2 C         -13.5011   -4.7967   16.0070 C.ar    1  UNL1        0.0386
      3 C         -12.7528   -6.0739   16.2498 C.ar    1  UNL1        0.0214
      4 C         -11.6014   -6.0975   17.2108 C.ar    1  UNL1        0.1101
      5 C         -11.1982   -4.8439   17.9291 C.ar    1  UNL1        0.0331
      6 C         -11.9464   -3.5668   17.6864 C.ar    1  UNL1        0.0778
      7 C         -10.0305   -5.1708   18.8121 C.3     1  UNL1        0.2185
      8 O          -9.3081   -4.2107   19.7100 O.3     1  UNL1       -0.3738
      9 C          -9.7120   -6.6265   18.6395 C.3     1  UNL1        0.4018
     10 F          -8.6272   -6.3457   19.6366 F       1  UNL1       -0.1767
     11 F          -9.1668   -8.0233   18.6754 F       1  UNL1       -0.1767
     12 S         -10.6829   -7.1992   17.6499 S.O2    1  UNL1        0.0650
     13 O          -9.9347   -8.4764   17.8926 O.2     1  UNL1       -0.1635
     14 O         -11.4973   -8.0389   16.7110 O.2     1  UNL1       -0.1635
     15 H          -9.7124   -3.3321   19.6359 H       1  UNL1        0.2110
     16 C         -11.5432   -2.3131   18.4047 C.3     1  UNL1        0.3437
     17 F         -12.1741   -1.9669   19.7208 F       1  UNL1       -0.1932
     18 F         -10.5091   -1.4058   17.8069 F       1  UNL1       -0.1932
     19 O         -13.8461   -2.2659   16.4826 O.3     1  UNL1       -0.4536
     20 C         -15.4053    0.3803   18.9959 C.ar    1  UNL1        0.0737
     21 C         -16.3723   -0.4821   19.7516 C.ar    1  UNL1        0.0401
     22 C         -16.4973   -1.9391   19.4176 C.ar    1  UNL1        0.1439
     23 F         -17.4644   -2.8016   20.1733 F       1  UNL1       -0.2040
     24 C         -15.6552   -2.5337   18.3279 C.ar    1  UNL1        0.0671
     25 C         -14.6882   -1.6713   17.5722 C.ar    1  UNL1        0.1482
     26 C         -14.5632   -0.2143   17.9062 C.ar    1  UNL1        0.0479
     27 N         -15.1554    3.2942   19.6638 N.1     1  UNL1       -0.1908
     28 C         -15.2803    1.8373   19.3298 C.1     1  UNL1        0.1006
@<TRIPOS>BOND
     1    27    28    3
     2    28    20    1
     3    20    21   ar
     4    21    22   ar
     5    22    23    1
     6    22    24   ar
     7    24    25   ar
     8    25    19    1
     9    19     1    1
    10     1     2   ar
    11     2     3   ar
    12     3     4   ar
    13     4     5   ar
    14     5     6   ar
    15     6    16    1
    16    16    17    1
    17    16    18    1
    18     5     7    1
    19     7     8    1
    20     7     9    1
    21     9    10    1
    22     9    11    1
    23     9    12    1
    24    12    13    2
    25    12    14    2
    26    25    26   ar
    27    26    20   ar
    28     6     1   ar
    29    12     4    1
    30     8    15    1
@<TRIPOS>MOLECULE
*****
 28 30 0 0 0
SMALL
GASTEIGER

@<TRIPOS>ATOM
      1 C         -13.1569   -3.5721   16.7320 C.ar    1  UNL1        0.1464
      2 C         -13.5513   -4.8103   15.9828 C.ar    1  UNL1        0.0386
      3 C         -12.8050   -6.0920   16.2068 C.ar    1  UNL1        0.0214
      4 C         -11.6645   -6.1356   17.1801 C.ar    1  UNL1        0.1101
      5 C         -11.2701   -4.8974   17.9293 C.ar    1  UNL1        0.0331
      6 C         -12.0164   -3.6157   17.7053 C.ar    1  UNL1        0.0778
      7 C         -10.1123   -5.2426   18.8182 C.3     1  UNL1        0.2185
      8 O          -9.4006   -4.3014   19.7444 O.3     1  UNL1       -0.3738
      9 C          -9.7910   -6.6941   18.6184 C.3     1  UNL1        0.4018
     10 F          -8.7176   -6.4342   19.6334 F       1  UNL1       -0.1767
     11 F          -9.2454   -8.0912   18.6308 F       1  UNL1       -0.1767
     12 S         -10.7503   -7.2461   17.6060 S.O2    1  UNL1        0.0650
     13 O         -10.0041   -8.5278   17.8300 O.2     1  UNL1       -0.1635
     14 O         -11.5536   -8.0659   16.6404 O.2     1  UNL1       -0.1635
     15 H          -9.8046   -3.4216   19.6843 H       1  UNL1        0.2110
     16 C         -11.6220   -2.3774   18.4545 C.3     1  UNL1        0.3437
     17 F         -12.2216   -2.0917   19.7994 F       1  UNL1       -0.1932
     18 F         -10.6282   -1.4249   17.8587 F       1  UNL1       -0.1932
     19 O         -13.9031   -2.2903   16.5080 O.3     1  UNL1       -0.4536
     20 C         -16.7460   -2.0104   19.2629 C.ar    1  UNL1        0.0737
     21 C         -16.5217   -0.6133   19.7608 C.ar    1  UNL1        0.0401
     22 C         -15.4246    0.2248   19.1744 C.ar    1  UNL1        0.1439
     23 F         -15.2002    1.6219   19.6722 F       1  UNL1       -0.2040
     24 C         -14.5517   -0.3342   18.0901 C.ar    1  UNL1        0.0671
     25 C         -14.7760   -1.7313   17.5922 C.ar    1  UNL1        0.1482
     26 C         -15.8732   -2.5694   18.1787 C.ar    1  UNL1        0.0479
     27 N         -18.9403   -3.6865   20.4358 N.1     1  UNL1       -0.1908
     28 C         -17.8432   -2.8485   19.8493 C.1     1  UNL1        0.1006
@<TRIPOS>BOND
     1    27    28    3
     2    28    20    1
     3    20    21   ar
     4    21    22   ar
     5    22    23    1
     6    22    24   ar
     7    24    25   ar
     8    25    19    1
     9    19     1    1
    10     1     2   ar
    11     2     3   ar
    12     3     4   ar
    13     4     5   ar
    14     5     6   ar
    15     6    16    1
    16    16    17    1
    17    16    18    1
    18     5     7    1
    19     7     8    1
    20     7     9    1
    21     9    10    1
    22     9    11    1
    23     9    12    1
    24    12    13    2
    25    12    14    2
    26    25    26   ar
    27    26    20   ar
    28     6     1   ar
    29    12     4    1
    30     8    15    1
@<TRIPOS>MOLECULE
*****
 28 30 0 0 0
SMALL
GASTEIGER

@<TRIPOS>ATOM
      1 C          -6.9748  -16.8942   23.0819 C.ar    1  UNL1        0.1464
      2 C          -5.7958  -16.2936   23.7885 C.ar    1  UNL1        0.0386
      3 C          -4.4198  -16.8409   23.5499 C.ar    1  UNL1        0.0214
      4 C          -4.2228  -17.9889   22.6048 C.ar    1  UNL1        0.1101
      5 C          -5.4017  -18.5896   21.8983 C.ar    1  UNL1        0.0331
      6 C          -6.7777  -18.0422   22.1368 C.ar    1  UNL1        0.0778
      7 C          -4.9022  -19.7061   21.0300 C.3     1  UNL1        0.2185
      8 O          -5.7428  -20.5798   20.1469 O.3     1  UNL1       -0.3738
      9 C          -3.4145  -19.7955   21.2000 C.3     1  UNL1        0.4018
     10 F          -3.5285  -20.9248   20.2194 F       1  UNL1       -0.1767
     11 F          -1.9508  -20.1210   21.1649 F       1  UNL1       -0.1767
     12 S          -2.9946  -18.7342   22.1733 S.O2    1  UNL1        0.0650
     13 O          -1.6185  -19.2816   21.9347 O.2     1  UNL1       -0.1635
     14 O          -2.2870  -17.7874   23.0967 O.2     1  UNL1       -0.1635
     15 H          -6.6727  -20.3138   20.2196 H       1  UNL1        0.2110
     16 C          -7.9567  -18.6429   21.4302 C.3     1  UNL1        0.3437
     17 F          -8.8145  -17.7894   20.5438 F       1  UNL1       -0.1932
     18 F          -8.2779  -20.0970   21.6101 F       1  UNL1       -0.1932
     19 O          -8.3509  -16.3469   23.3204 O.3     1  UNL1       -0.4536
     20 C         -10.3392  -19.5545   24.5484 C.ar    1  UNL1        0.0737
     21 C         -11.7517  -19.1401   24.2597 C.ar    1  UNL1        0.0401
     22 C         -12.0305  -17.7948   23.6579 C.ar    1  UNL1        0.1439
     23 F         -13.4430  -17.3804   23.3691 F       1  UNL1       -0.2040
     24 C         -10.8969  -16.8637   23.3448 C.ar    1  UNL1        0.0671
     25 C          -9.4845  -17.2780   23.6335 C.ar    1  UNL1        0.1482
     26 C          -9.2056  -18.6234   24.2354 C.ar    1  UNL1        0.0479
     27 N          -9.7816  -22.2452   25.7521 N.1     1  UNL1       -0.1908
     28 C         -10.0604  -20.8998   25.1502 C.1     1  UNL1        0.1006
@<TRIPOS>BOND
     1    27    28    3
     2    28    20    1
     3    20    21   ar
     4    21    22   ar
     5    22    23    1
     6    22    24   ar
     7    24    25   ar
     8    25    19    1
     9    19     1    1
    10     1     2   ar
    11     2     3   ar
    12     3     4   ar
    13     4     5   ar
    14     5     6   ar
    15     6    16    1
    16    16    17    1
    17    16    18    1
    18     5     7    1
    19     7     8    1
    20     7     9    1
    21     9    10    1
    22     9    11    1
    23     9    12    1
    24    12    13    2
    25    12    14    2
    26    25    26   ar
    27    26    20   ar
    28     6     1   ar
    29    12     4    1
    30     8    15    1
