@<TRIPOS>MOLECULE
*****
 33 36 0 0 0
SMALL
GASTEIGER

@<TRIPOS>ATOM
      1 C           4.8405    0.1862   34.8873 C.3     1  UNL1        0.1066
      2 C           4.4544    0.0537   36.3307 C.3     1  UNL1        0.0470
      3 C           3.6012    1.2332   36.6925 C.ar    1  UNL1       -0.0106
      4 C           2.9346    1.6341   37.9750 C.ar    1  UNL1        0.0544
      5 CL          3.0759    0.7727   39.1949 Cl      1  UNL1       -0.0826
      6 C           2.1267    2.8963   38.0377 C.ar    1  UNL1        0.0224
      7 C           1.9854    3.7577   36.8178 C.ar    1  UNL1        0.0583
      8 CL          1.1775    5.0201   36.8806 Cl      1  UNL1       -0.0822
      9 C           2.6520    3.3568   35.5353 C.ar    1  UNL1        0.0104
     10 C           3.4599    2.0946   35.4726 C.ar    1  UNL1        0.0163
     11 C           4.2258    1.4475   34.3570 C.3     1  UNL1        0.2026
     12 N           6.9498   -3.2901   32.2539 N.3     1  UNL1       -0.2693
     13 C           8.1635   -2.4653   32.5645 C.3     1  UNL1        0.0736
     14 C           8.2547   -1.2002   33.3654 C.3     1  UNL1        0.0346
     15 C           7.1547   -0.4475   34.0535 C.3     1  UNL1        0.0737
     16 N           5.6918   -0.7741   34.1107 N.3     1  UNL1       -0.2691
     17 C           4.9675   -1.9339   33.4939 C.3     1  UNL1        0.0897
     18 C           5.5275   -3.0536   32.6676 C.3     1  UNL1        0.0897
     19 C           7.1901   -4.5131   31.4195 C.3     1  UNL1        0.1046
     20 C           7.0981   -4.4310   29.9246 C.3     1  UNL1        0.1595
     21 C           6.6343   -5.6206   27.6618 C.3     1  UNL1        0.1742
     22 O           6.4610   -5.5465   29.1499 O.3     1  UNL1       -0.3496
     23 O           4.3545    1.9700   32.9569 O.3     1  UNL1       -0.4734
     24 C           3.2450    1.7543   31.9709 C.ar    1  UNL1        0.1390
     25 C           3.1616    0.4670   31.2053 C.ar    1  UNL1        0.0382
     26 C           2.0520    0.2512   30.2192 C.ar    1  UNL1        0.0215
     27 C           1.0257    1.3228   29.9988 C.ar    1  UNL1        0.1059
     28 C           1.1091    2.6100   30.7643 C.ar    1  UNL1        0.0215
     29 C           2.2186    2.8258   31.7504 C.ar    1  UNL1        0.0382
     30 S          -0.0838    1.1070   29.0127 S.O2    1  UNL1        0.0105
     31 C          -1.1934    0.8913   28.0267 C.3     1  UNL1        0.1816
     32 O           0.1093    2.4999   28.4906 O.2     1  UNL1       -0.1686
     33 O          -0.2770   -0.2859   29.5348 O.2     1  UNL1       -0.1686
@<TRIPOS>BOND
     1    21    22    1
     2    22    20    1
     3    20    19    1
     4    19    12    1
     5    12    13    1
     6    13    14    1
     7    14    15    1
     8    15    16    1
     9     1    16    1
    10     1     2    1
    11     2     3    1
    12     3     4   ar
    13     4     5    1
    14     4     6   ar
    15     6     7   ar
    16     7     8    1
    17     7     9   ar
    18     9    10   ar
    19    10    11    1
    20    11    23    1
    21    23    24    1
    22    24    25   ar
    23    25    26   ar
    24    26    27   ar
    25    27    30    1
    26    30    31    1
    27    30    32    2
    28    30    33    2
    29    27    28   ar
    30    28    29   ar
    31    16    17    1
    32    17    18    1
    33    18    12    1
    34    11     1    1
    35    29    24   ar
    36    10     3   ar
@<TRIPOS>MOLECULE
*****
 33 36 0 0 0
SMALL
GASTEIGER

@<TRIPOS>ATOM
      1 C           2.9587    0.0438   23.0119 C.3     1  UNL1        0.1066
      2 C           3.3802   -1.3569   22.6798 C.3     1  UNL1        0.0470
      3 C           3.5255   -1.4565   21.1902 C.ar    1  UNL1       -0.0106
      4 C           3.9170   -2.5936   20.2937 C.ar    1  UNL1        0.0544
      5 CL          4.2487   -3.9328   20.8823 Cl      1  UNL1       -0.0826
      6 C           3.9767   -2.3915   18.8086 C.ar    1  UNL1        0.0224
      7 C           3.6450   -1.0522   18.2200 C.ar    1  UNL1        0.0583
      8 CL          3.7048   -0.8501   16.7348 Cl      1  UNL1       -0.0822
      9 C           3.2535    0.0848   19.1165 C.ar    1  UNL1        0.0104
     10 C           3.1938   -0.1173   20.6016 C.ar    1  UNL1        0.0163
     11 C           2.8435    0.8099   21.7274 C.3     1  UNL1        0.2026
     12 N           1.3915    1.7783   27.2549 N.3     1  UNL1       -0.2693
     13 C           2.8633    1.7540   27.5434 C.3     1  UNL1        0.0736
     14 C           3.9846    1.3167   26.6481 C.3     1  UNL1        0.0346
     15 C           3.9112    0.7958   25.2434 C.3     1  UNL1        0.0737
     16 N           2.6981    0.5836   24.3869 N.3     1  UNL1       -0.2691
     17 C           1.2590    0.8398   24.7236 C.3     1  UNL1        0.0897
     18 C           0.6776    1.3715   26.0000 C.3     1  UNL1        0.0897
     19 C           0.5182    2.2753   28.3686 C.3     1  UNL1        0.1046
     20 C           0.2661    1.4096   29.5673 C.3     1  UNL1        0.1595
     21 C          -1.3200   -0.5116   28.8298 C.3     1  UNL1        0.1742
     22 O          -0.0059   -0.0551   29.3910 O.3     1  UNL1       -0.3496
     23 O           2.4475    2.2504   21.5925 O.3     1  UNL1       -0.4734
     24 C           1.0645    2.6084   21.1353 C.ar    1  UNL1        0.1390
     25 C          -0.0337    2.7924   22.1404 C.ar    1  UNL1        0.0382
     26 C          -1.4167    3.1504   21.6832 C.ar    1  UNL1        0.0215
     27 C          -1.7016    3.3245   20.2208 C.ar    1  UNL1        0.1059
     28 C          -0.6034    3.1406   19.2157 C.ar    1  UNL1        0.0215
     29 C           0.7796    2.7825   19.6729 C.ar    1  UNL1        0.0382
     30 S          -3.0846    3.6825   19.7636 S.O2    1  UNL1        0.0105
     31 C          -4.4676    4.0406   19.3064 C.3     1  UNL1        0.1816
     32 O          -2.5039    4.5280   18.6691 O.2     1  UNL1       -0.1686
     33 O          -3.6654    2.8370   20.8581 O.2     1  UNL1       -0.1686
@<TRIPOS>BOND
     1    21    22    1
     2    22    20    1
     3    20    19    1
     4    19    12    1
     5    12    13    1
     6    13    14    1
     7    14    15    1
     8    15    16    1
     9     1    16    1
    10     1     2    1
    11     2     3    1
    12     3     4   ar
    13     4     5    1
    14     4     6   ar
    15     6     7   ar
    16     7     8    1
    17     7     9   ar
    18     9    10   ar
    19    10    11    1
    20    11    23    1
    21    23    24    1
    22    24    25   ar
    23    25    26   ar
    24    26    27   ar
    25    27    30    1
    26    30    31    1
    27    30    32    2
    28    30    33    2
    29    27    28   ar
    30    28    29   ar
    31    16    17    1
    32    17    18    1
    33    18    12    1
    34    11     1    1
    35    29    24   ar
    36    10     3   ar
@<TRIPOS>MOLECULE
*****
 33 36 0 0 0
SMALL
GASTEIGER

@<TRIPOS>ATOM
      1 C           2.0556    0.4023   20.5913 C.3     1  UNL1        0.1066
      2 C           2.3045   -0.8977   19.8857 C.3     1  UNL1        0.0470
      3 C           3.1772   -1.7430   20.7654 C.ar    1  UNL1       -0.0106
      4 C           3.7448   -3.1203   20.5903 C.ar    1  UNL1        0.0544
      5 CL          3.4544   -3.8980   19.3409 Cl      1  UNL1       -0.0826
      6 C           4.6029   -3.7200   21.6645 C.ar    1  UNL1        0.0224
      7 C           4.8934   -2.9423   22.9139 C.ar    1  UNL1        0.0583
      8 CL          5.7515   -3.5421   23.9882 Cl      1  UNL1       -0.0822
      9 C           4.3257   -1.5650   23.0890 C.ar    1  UNL1        0.0104
     10 C           3.4676   -0.9654   22.0148 C.ar    1  UNL1        0.0163
     11 C           2.7744    0.3605   21.9071 C.3     1  UNL1        0.2026
     12 N          -1.1230    3.8615   19.4085 N.3     1  UNL1       -0.2693
     13 C          -0.0188    4.2271   18.4614 C.3     1  UNL1        0.0736
     14 C           1.3133    3.5626   18.2768 C.3     1  UNL1        0.0346
     15 C           1.8702    2.3685   18.9936 C.3     1  UNL1        0.0737
     16 N           1.2324    1.5438   20.0722 N.3     1  UNL1       -0.2691
     17 C          -0.1197    1.7096   20.7002 C.3     1  UNL1        0.0897
     18 C          -1.1679    2.7411   20.4048 C.3     1  UNL1        0.0897
     19 C          -2.3438    4.7312   19.3517 C.3     1  UNL1        0.1046
     20 C          -3.6948    4.1473   19.6413 C.3     1  UNL1        0.1595
     21 C          -6.0009    3.3604   18.7396 C.3     1  UNL1        0.1742
     22 O          -4.5399    3.6198   18.5198 O.3     1  UNL1       -0.3496
     23 O           2.7963    1.4528   22.9350 O.3     1  UNL1       -0.4734
     24 C           2.0549    1.2814   24.2275 C.ar    1  UNL1        0.1390
     25 C           0.5684    1.4779   24.2714 C.ar    1  UNL1        0.0382
     26 C          -0.1730    1.3065   25.5640 C.ar    1  UNL1        0.0215
     27 C           0.5720    0.9385   26.8128 C.ar    1  UNL1        0.1059
     28 C           2.0584    0.7419   26.7690 C.ar    1  UNL1        0.0215
     29 C           2.7999    0.9134   25.4764 C.ar    1  UNL1        0.0382
     30 S          -0.1695    0.7670   28.1054 S.O2    1  UNL1        0.0105
     31 C          -0.9109    0.5956   29.3980 C.3     1  UNL1        0.1816
     32 O           0.8963   -0.1693   28.5926 O.2     1  UNL1       -0.1686
     33 O          -1.2353    1.7034   27.6183 O.2     1  UNL1       -0.1686
@<TRIPOS>BOND
     1    21    22    1
     2    22    20    1
     3    20    19    1
     4    19    12    1
     5    12    13    1
     6    13    14    1
     7    14    15    1
     8    15    16    1
     9     1    16    1
    10     1     2    1
    11     2     3    1
    12     3     4   ar
    13     4     5    1
    14     4     6   ar
    15     6     7   ar
    16     7     8    1
    17     7     9   ar
    18     9    10   ar
    19    10    11    1
    20    11    23    1
    21    23    24    1
    22    24    25   ar
    23    25    26   ar
    24    26    27   ar
    25    27    30    1
    26    30    31    1
    27    30    32    2
    28    30    33    2
    29    27    28   ar
    30    28    29   ar
    31    16    17    1
    32    17    18    1
    33    18    12    1
    34    11     1    1
    35    29    24   ar
    36    10     3   ar
@<TRIPOS>MOLECULE
*****
 33 36 0 0 0
SMALL
GASTEIGER

@<TRIPOS>ATOM
      1 C          -8.0114  -17.3668   22.7499 C.3     1  UNL1        0.1066
      2 C          -9.2443  -16.9978   21.9793 C.3     1  UNL1        0.0470
      3 C          -9.4147  -17.9952   20.8721 C.ar    1  UNL1       -0.0106
      4 C         -10.4510  -18.1335   19.7964 C.ar    1  UNL1        0.0544
      5 CL        -11.5786  -17.1480   19.7102 Cl      1  UNL1       -0.0826
      6 C         -10.3597  -19.2571   18.8070 C.ar    1  UNL1        0.0224
      7 C          -9.2321  -20.2426   18.8933 C.ar    1  UNL1        0.0583
      8 CL         -9.1409  -21.3663   17.9038 Cl      1  UNL1       -0.0822
      9 C          -8.1959  -20.1044   19.9689 C.ar    1  UNL1        0.0104
     10 C          -8.2872  -18.9807   20.9583 C.ar    1  UNL1        0.0163
     11 C          -7.4199  -18.5923   22.1188 C.3     1  UNL1        0.2026
     12 N          -6.9206  -15.1444   26.9140 N.3     1  UNL1       -0.2693
     13 C          -5.6206  -14.9399   26.1941 C.3     1  UNL1        0.0736
     14 C          -5.2366  -15.3821   24.8131 C.3     1  UNL1        0.0346
     15 C          -6.0578  -16.1379   23.8109 C.3     1  UNL1        0.0737
     16 N          -7.4658  -16.6382   23.9422 N.3     1  UNL1       -0.2691
     17 C          -8.4004  -16.5063   25.1080 C.3     1  UNL1        0.0897
     18 C          -8.1577  -15.8415   26.4306 C.3     1  UNL1        0.0897
     19 C          -6.9931  -14.5767   28.3004 C.3     1  UNL1        0.1046
     20 C          -7.2533  -13.1128   28.4988 C.3     1  UNL1        0.1595
     21 C          -5.5682  -11.1407   28.6461 C.3     1  UNL1        0.1742
     22 O          -6.2927  -12.2816   29.2968 O.3     1  UNL1       -0.3496
     23 O          -6.1789  -19.3044   22.5693 O.3     1  UNL1       -0.4734
     24 C          -4.8431  -18.9076   22.0142 C.ar    1  UNL1        0.1390
     25 C          -4.5648  -19.0601   20.5481 C.ar    1  UNL1        0.0382
     26 C          -3.2291  -18.6634   19.9929 C.ar    1  UNL1        0.0215
     27 C          -2.1715  -18.1140   20.9038 C.ar    1  UNL1        0.1059
     28 C          -2.4497  -17.9615   22.3699 C.ar    1  UNL1        0.0215
     29 C          -3.7855  -18.3583   22.9250 C.ar    1  UNL1        0.0382
     30 S          -0.8357  -17.7173   20.3487 S.O2    1  UNL1        0.0105
     31 C           0.5001  -17.3205   19.7935 C.3     1  UNL1        0.1816
     32 O          -0.6075  -19.1271   19.8902 O.2     1  UNL1       -0.1686
     33 O          -1.0639  -16.3073   20.8071 O.2     1  UNL1       -0.1686
@<TRIPOS>BOND
     1    21    22    1
     2    22    20    1
     3    20    19    1
     4    19    12    1
     5    12    13    1
     6    13    14    1
     7    14    15    1
     8    15    16    1
     9     1    16    1
    10     1     2    1
    11     2     3    1
    12     3     4   ar
    13     4     5    1
    14     4     6   ar
    15     6     7   ar
    16     7     8    1
    17     7     9   ar
    18     9    10   ar
    19    10    11    1
    20    11    23    1
    21    23    24    1
    22    24    25   ar
    23    25    26   ar
    24    26    27   ar
    25    27    30    1
    26    30    31    1
    27    30    32    2
    28    30    33    2
    29    27    28   ar
    30    28    29   ar
    31    16    17    1
    32    17    18    1
    33    18    12    1
    34    11     1    1
    35    29    24   ar
    36    10     3   ar
@<TRIPOS>MOLECULE
*****
 33 36 0 0 0
SMALL
GASTEIGER

@<TRIPOS>ATOM
      1 C           6.4225   -3.8641   27.3060 C.3     1  UNL1        0.1066
      2 C           6.6687   -5.3169   27.5868 C.3     1  UNL1        0.0470
      3 C           7.2565   -5.9345   26.3527 C.ar    1  UNL1       -0.0106
      4 C           7.7002   -7.3337   26.0443 C.ar    1  UNL1        0.0544
      5 CL          7.5832   -8.4048   27.0880 Cl      1  UNL1       -0.0826
      6 C           8.2610   -7.6619   24.6924 C.ar    1  UNL1        0.0224
      7 C           8.3780   -6.5909   23.6488 C.ar    1  UNL1        0.0583
      8 CL          8.9388   -6.9191   22.2968 Cl      1  UNL1       -0.0822
      9 C           7.9343   -5.1916   23.9571 C.ar    1  UNL1        0.0104
     10 C           7.3735   -4.8634   25.3091 C.ar    1  UNL1        0.0163
     11 C           6.8581   -3.5839   25.8982 C.3     1  UNL1        0.2026
     12 N           4.1094   -0.4352   29.8280 N.3     1  UNL1       -0.2693
     13 C           5.0345   -0.9284   30.9009 C.3     1  UNL1        0.0736
     14 C           6.0647   -2.0157   30.8203 C.3     1  UNL1        0.0346
     15 C           6.4244   -2.8784   29.6471 C.3     1  UNL1        0.0737
     16 N           5.8425   -2.8667   28.2645 N.3     1  UNL1       -0.2691
     17 C           4.7574   -1.9897   27.7138 C.3     1  UNL1        0.0897
     18 C           3.9861   -0.9076   28.4097 C.3     1  UNL1        0.0897
     19 C           3.1855    0.6773   30.2262 C.3     1  UNL1        0.1046
     20 C           1.8541    0.8243   29.5512 C.3     1  UNL1        0.1595
     21 C          -0.3819   -0.2902   28.8379 C.3     1  UNL1        0.1742
     22 O           0.7788   -0.1955   29.7834 O.3     1  UNL1       -0.3496
     23 O           6.7901   -2.2570   25.2019 O.3     1  UNL1       -0.4734
     24 C           6.2326   -2.1669   23.8124 C.ar    1  UNL1        0.1390
     25 C           7.0379   -1.5259   22.7212 C.ar    1  UNL1        0.0382
     26 C           6.4804   -1.4357   21.3316 C.ar    1  UNL1        0.0215
     27 C           5.1174   -1.9866   21.0331 C.ar    1  UNL1        0.1059
     28 C           4.3121   -2.6275   22.1242 C.ar    1  UNL1        0.0215
     29 C           4.8697   -2.7177   23.5139 C.ar    1  UNL1        0.0382
     30 S           4.5599   -1.8964   19.6435 S.O2    1  UNL1        0.0105
     31 C           4.0024   -1.8062   18.2539 C.3     1  UNL1        0.1816
     32 O           5.6023   -0.8768   19.2915 O.2     1  UNL1       -0.1686
     33 O           3.5175   -2.9160   19.9955 O.2     1  UNL1       -0.1686
@<TRIPOS>BOND
     1    21    22    1
     2    22    20    1
     3    20    19    1
     4    19    12    1
     5    12    13    1
     6    13    14    1
     7    14    15    1
     8    15    16    1
     9     1    16    1
    10     1     2    1
    11     2     3    1
    12     3     4   ar
    13     4     5    1
    14     4     6   ar
    15     6     7   ar
    16     7     8    1
    17     7     9   ar
    18     9    10   ar
    19    10    11    1
    20    11    23    1
    21    23    24    1
    22    24    25   ar
    23    25    26   ar
    24    26    27   ar
    25    27    30    1
    26    30    31    1
    27    30    32    2
    28    30    33    2
    29    27    28   ar
    30    28    29   ar
    31    16    17    1
    32    17    18    1
    33    18    12    1
    34    11     1    1
    35    29    24   ar
    36    10     3   ar
@<TRIPOS>MOLECULE
*****
 33 36 0 0 0
SMALL
GASTEIGER

@<TRIPOS>ATOM
      1 C           4.2886   -0.8459   24.0377 C.3     1  UNL1        0.1066
      2 C           3.1113   -0.6826   23.1227 C.3     1  UNL1        0.0470
      3 C           3.4767   -1.2635   21.7889 C.ar    1  UNL1       -0.0106
      4 C           2.7130   -1.3843   20.5035 C.ar    1  UNL1        0.0544
      5 CL          1.3098   -0.8620   20.4129 Cl      1  UNL1       -0.0826
      6 C           3.3526   -2.0274   19.3088 C.ar    1  UNL1        0.0224
      7 C           4.7558   -2.5497   19.3995 C.ar    1  UNL1        0.0583
      8 CL          5.3953   -3.1929   18.2047 Cl      1  UNL1       -0.0822
      9 C           5.5195   -2.4289   20.6849 C.ar    1  UNL1        0.0104
     10 C           4.8799   -1.7858   21.8795 C.ar    1  UNL1        0.0163
     11 C           5.3817   -1.5277   23.2694 C.3     1  UNL1        0.2026
     12 N           4.1192   -0.0401   28.8116 N.3     1  UNL1       -0.2693
     13 C           4.9153    1.1631   28.4011 C.3     1  UNL1        0.0736
     14 C           5.3556    1.5684   27.0257 C.3     1  UNL1        0.0346
     15 C           5.1086    0.8707   25.7210 C.3     1  UNL1        0.0737
     16 N           4.3602   -0.4048   25.4696 N.3     1  UNL1       -0.2691
     17 C           3.6740   -1.2975   26.4607 C.3     1  UNL1        0.0897
     18 C           3.5668   -1.1351   27.9480 C.3     1  UNL1        0.0897
     19 C           3.8383   -0.1648   30.2798 C.3     1  UNL1        0.1046
     20 C           2.7003    0.5961   30.8929 C.3     1  UNL1        0.1595
     21 C           0.4176    1.6826   30.2934 C.3     1  UNL1        0.1742
     22 O           1.3234    0.4871   30.3075 O.3     1  UNL1       -0.3496
     23 O           6.7383   -1.8881   23.7981 O.3     1  UNL1       -0.4734
     24 C           6.9619   -3.2246   24.4412 C.ar    1  UNL1        0.1390
     25 C           6.6678   -3.4136   25.9000 C.ar    1  UNL1        0.0382
     26 C           6.8914   -4.7500   26.5432 C.ar    1  UNL1        0.0215
     27 C           7.4091   -5.8976   25.7277 C.ar    1  UNL1        0.1059
     28 C           7.7032   -5.7087   24.2690 C.ar    1  UNL1        0.0215
     29 C           7.4796   -4.3722   23.6258 C.ar    1  UNL1        0.0382
     30 S           7.6327   -7.2341   26.3709 S.O2    1  UNL1        0.0105
     31 C           7.8562   -8.5706   27.0142 C.3     1  UNL1        0.1816
     32 O           7.5585   -6.5945   27.7257 O.2     1  UNL1       -0.1686
     33 O           7.7068   -7.8739   25.0162 O.2     1  UNL1       -0.1686
@<TRIPOS>BOND
     1    21    22    1
     2    22    20    1
     3    20    19    1
     4    19    12    1
     5    12    13    1
     6    13    14    1
     7    14    15    1
     8    15    16    1
     9     1    16    1
    10     1     2    1
    11     2     3    1
    12     3     4   ar
    13     4     5    1
    14     4     6   ar
    15     6     7   ar
    16     7     8    1
    17     7     9   ar
    18     9    10   ar
    19    10    11    1
    20    11    23    1
    21    23    24    1
    22    24    25   ar
    23    25    26   ar
    24    26    27   ar
    25    27    30    1
    26    30    31    1
    27    30    32    2
    28    30    33    2
    29    27    28   ar
    30    28    29   ar
    31    16    17    1
    32    17    18    1
    33    18    12    1
    34    11     1    1
    35    29    24   ar
    36    10     3   ar
@<TRIPOS>MOLECULE
*****
 33 36 0 0 0
SMALL
GASTEIGER

@<TRIPOS>ATOM
      1 C           6.6321   -3.8794   25.2638 C.3     1  UNL1        0.1066
      2 C           7.0210   -5.2627   25.6940 C.3     1  UNL1        0.0470
      3 C           7.3049   -5.2278   27.1664 C.ar    1  UNL1       -0.0106
      4 C           7.7302   -6.2938   28.1322 C.ar    1  UNL1        0.0544
      5 CL          7.9436   -7.6988   27.6522 Cl      1  UNL1       -0.0826
      6 C           7.9421   -5.9547   29.5779 C.ar    1  UNL1        0.0224
      7 C           7.7287   -4.5497   30.0578 C.ar    1  UNL1        0.0583
      8 CL          7.9406   -4.2107   31.5036 Cl      1  UNL1       -0.0822
      9 C           7.3034   -3.4837   29.0921 C.ar    1  UNL1        0.0104
     10 C           7.0915   -3.8227   27.6464 C.ar    1  UNL1        0.0163
     11 C           6.6757   -2.9894   26.4705 C.3     1  UNL1        0.2026
     12 N           6.1325   -2.7598   20.5771 N.3     1  UNL1       -0.2693
     13 C           4.7841   -2.3205   21.0658 C.3     1  UNL1        0.0736
     14 C           4.2311   -2.3748   22.4591 C.3     1  UNL1        0.0346
     15 C           4.8897   -2.8817   23.7078 C.3     1  UNL1        0.0737
     16 N           6.2642   -3.4596   23.8715 N.3     1  UNL1       -0.2691
     17 C           7.3195   -3.6734   22.8271 C.3     1  UNL1        0.0897
     18 C           7.2608   -3.3619   21.3610 C.3     1  UNL1        0.0897
     19 C           6.3861   -2.5723   19.1107 C.3     1  UNL1        0.1046
     20 C           5.2413   -2.6007   18.1419 C.3     1  UNL1        0.1595
     21 C           3.7691   -0.8442   16.9181 C.3     1  UNL1        0.1742
     22 O           5.0967   -1.5126   17.1195 O.3     1  UNL1       -0.3496
     23 O           6.3591   -1.5234   26.4967 O.3     1  UNL1       -0.4734
     24 C           5.0427   -1.0500   27.0377 C.ar    1  UNL1        0.1390
     25 C           4.7049   -1.2648   28.4834 C.ar    1  UNL1        0.0382
     26 C           3.3885   -0.7914   29.0245 C.ar    1  UNL1        0.0215
     27 C           2.4097   -0.1031   28.1199 C.ar    1  UNL1        0.1059
     28 C           2.7474    0.1118   26.6743 C.ar    1  UNL1        0.0215
     29 C           4.0639   -0.3617   26.1332 C.ar    1  UNL1        0.0382
     30 S           1.0932    0.3704   28.6610 S.O2    1  UNL1        0.0105
     31 C          -0.2232    0.8438   29.2021 C.3     1  UNL1        0.1816
     32 O           1.3747   -0.3291   29.9577 O.2     1  UNL1       -0.1686
     33 O           0.8117    1.0699   27.3642 O.2     1  UNL1       -0.1686
@<TRIPOS>BOND
     1    21    22    1
     2    22    20    1
     3    20    19    1
     4    19    12    1
     5    12    13    1
     6    13    14    1
     7    14    15    1
     8    15    16    1
     9     1    16    1
    10     1     2    1
    11     2     3    1
    12     3     4   ar
    13     4     5    1
    14     4     6   ar
    15     6     7   ar
    16     7     8    1
    17     7     9   ar
    18     9    10   ar
    19    10    11    1
    20    11    23    1
    21    23    24    1
    22    24    25   ar
    23    25    26   ar
    24    26    27   ar
    25    27    30    1
    26    30    31    1
    27    30    32    2
    28    30    33    2
    29    27    28   ar
    30    28    29   ar
    31    16    17    1
    32    17    18    1
    33    18    12    1
    34    11     1    1
    35    29    24   ar
    36    10     3   ar
@<TRIPOS>MOLECULE
*****
 33 36 0 0 0
SMALL
GASTEIGER

@<TRIPOS>ATOM
      1 C          -2.5596    4.2237   25.5280 C.3     1  UNL1        0.1066
      2 C          -2.1770    5.2855   26.5160 C.3     1  UNL1        0.0470
      3 C          -3.4381    5.8734   27.0763 C.ar    1  UNL1       -0.0106
      4 C          -3.6784    6.9545   28.0879 C.ar    1  UNL1        0.0544
      5 CL         -2.5164    7.6530   28.7296 Cl      1  UNL1       -0.0826
      6 C          -5.0808    7.3372   28.4578 C.ar    1  UNL1        0.0224
      7 C          -6.2429    6.6388   27.8160 C.ar    1  UNL1        0.0583
      8 CL         -7.6453    7.0215   28.1860 Cl      1  UNL1       -0.0822
      9 C          -6.0025    5.5576   26.8044 C.ar    1  UNL1        0.0104
     10 C          -4.6002    5.1750   26.4346 C.ar    1  UNL1        0.0163
     11 C          -4.0572    4.1554   25.4777 C.3     1  UNL1        0.2026
     12 N           0.2795    1.9035   22.3619 N.3     1  UNL1       -0.2693
     13 C           0.6536    1.1508   23.6042 C.3     1  UNL1        0.0736
     14 C           0.1453    1.3423   25.0024 C.3     1  UNL1        0.0346
     15 C          -0.8626    2.3337   25.5037 C.3     1  UNL1        0.0737
     16 N          -1.6112    3.3785   24.7304 N.3     1  UNL1       -0.2691
     17 C          -1.5367    3.6900   23.2649 C.3     1  UNL1        0.0897
     18 C          -0.6953    3.0335   22.2109 C.3     1  UNL1        0.0897
     19 C           0.9717    1.4686   21.1042 C.3     1  UNL1        0.1046
     20 C           0.3973    0.3561   20.2783 C.3     1  UNL1        0.1595
     21 C           2.5480   -1.0573   20.6347 C.3     1  UNL1        0.1742
     22 O           1.1261   -0.9505   20.1691 O.3     1  UNL1       -0.3496
     23 O          -4.8693    3.2300   24.6209 O.3     1  UNL1       -0.4734
     24 C          -5.4662    3.7263   23.3374 C.ar    1  UNL1        0.1390
     25 C          -4.8986    3.2776   22.0234 C.ar    1  UNL1        0.0382
     26 C          -5.4954    3.7739   20.7399 C.ar    1  UNL1        0.0215
     27 C          -6.6599    4.7190   20.7704 C.ar    1  UNL1        0.1059
     28 C          -7.2275    5.1677   22.0843 C.ar    1  UNL1        0.0215
     29 C          -6.6306    4.6714   23.3678 C.ar    1  UNL1        0.0382
     30 S          -7.2568    5.2153   19.4868 S.O2    1  UNL1        0.0105
     31 C          -7.8536    5.7116   18.2033 C.3     1  UNL1        0.1816
     32 O          -8.1552    6.1345   20.2600 O.2     1  UNL1       -0.1686
     33 O          -6.3583    4.2961   18.7135 O.2     1  UNL1       -0.1686
@<TRIPOS>BOND
     1    21    22    1
     2    22    20    1
     3    20    19    1
     4    19    12    1
     5    12    13    1
     6    13    14    1
     7    14    15    1
     8    15    16    1
     9     1    16    1
    10     1     2    1
    11     2     3    1
    12     3     4   ar
    13     4     5    1
    14     4     6   ar
    15     6     7   ar
    16     7     8    1
    17     7     9   ar
    18     9    10   ar
    19    10    11    1
    20    11    23    1
    21    23    24    1
    22    24    25   ar
    23    25    26   ar
    24    26    27   ar
    25    27    30    1
    26    30    31    1
    27    30    32    2
    28    30    33    2
    29    27    28   ar
    30    28    29   ar
    31    16    17    1
    32    17    18    1
    33    18    12    1
    34    11     1    1
    35    29    24   ar
    36    10     3   ar
@<TRIPOS>MOLECULE
*****
 33 36 0 0 0
SMALL
GASTEIGER

@<TRIPOS>ATOM
      1 C           0.5536    1.5752   23.2036 C.3     1  UNL1        0.1066
      2 C           0.1620    1.2831   24.6218 C.3     1  UNL1        0.0470
      3 C          -0.6188    2.4553   25.1380 C.ar    1  UNL1       -0.0106
      4 C          -1.2586    2.7283   26.4669 C.ar    1  UNL1        0.0544
      5 CL         -1.1676    1.7118   27.5661 Cl      1  UNL1       -0.0826
      6 C          -1.9895    4.0179   26.6965 C.ar    1  UNL1        0.0224
      7 C          -2.0805    5.0344   25.5972 C.ar    1  UNL1        0.0583
      8 CL         -2.8114    6.3240   25.8269 Cl      1  UNL1       -0.0822
      9 C          -1.4407    4.7614   24.2684 C.ar    1  UNL1        0.0104
     10 C          -0.7098    3.4718   24.0387 C.ar    1  UNL1        0.0163
     11 C           0.0148    2.9279   22.8432 C.3     1  UNL1        0.2026
     12 N           3.6253   -1.3353   20.8451 N.3     1  UNL1       -0.2693
     13 C           2.5322   -1.2716   19.8199 C.3     1  UNL1        0.0736
     14 C           1.2319   -0.5265   19.8843 C.3     1  UNL1        0.0346
     15 C           0.7035    0.3390   20.9896 C.3     1  UNL1        0.0737
     16 N           1.3450    0.6730   22.3038 N.3     1  UNL1       -0.2691
     17 C           2.6733    0.2242   22.8371 C.3     1  UNL1        0.0897
     18 C           3.6880   -0.6696   22.1879 C.3     1  UNL1        0.0897
     19 C           4.8125   -2.1757   20.4793 C.3     1  UNL1        0.1046
     20 C           4.9805   -3.5392   21.0815 C.3     1  UNL1        0.1595
     21 C           4.2921   -4.9081   18.9832 C.3     1  UNL1        0.1742
     22 O           4.2844   -4.7196   20.4713 O.3     1  UNL1       -0.3496
     23 O           0.1728    3.6159   21.5197 O.3     1  UNL1       -0.4734
     24 C          -1.0308    3.8855   20.6661 C.ar    1  UNL1        0.1390
     25 C          -2.3339    3.2083   20.9717 C.ar    1  UNL1        0.0382
     26 C          -3.5376    3.4778   20.1181 C.ar    1  UNL1        0.0215
     27 C          -3.4381    4.4246   18.9589 C.ar    1  UNL1        0.1059
     28 C          -2.1350    5.1018   18.6534 C.ar    1  UNL1        0.0215
     29 C          -0.9314    4.8322   19.5069 C.ar    1  UNL1        0.0382
     30 S          -4.6417    4.6942   18.1053 S.O2    1  UNL1        0.0105
     31 C          -5.8453    4.9637   17.2518 C.3     1  UNL1        0.1816
     32 O          -4.4970    6.1643   18.3655 O.2     1  UNL1       -0.1686
     33 O          -4.7864    3.2239   17.8451 O.2     1  UNL1       -0.1686
@<TRIPOS>BOND
     1    21    22    1
     2    22    20    1
     3    20    19    1
     4    19    12    1
     5    12    13    1
     6    13    14    1
     7    14    15    1
     8    15    16    1
     9     1    16    1
    10     1     2    1
    11     2     3    1
    12     3     4   ar
    13     4     5    1
    14     4     6   ar
    15     6     7   ar
    16     7     8    1
    17     7     9   ar
    18     9    10   ar
    19    10    11    1
    20    11    23    1
    21    23    24    1
    22    24    25   ar
    23    25    26   ar
    24    26    27   ar
    25    27    30    1
    26    30    31    1
    27    30    32    2
    28    30    33    2
    29    27    28   ar
    30    28    29   ar
    31    16    17    1
    32    17    18    1
    33    18    12    1
    34    11     1    1
    35    29    24   ar
    36    10     3   ar
