@<TRIPOS>MOLECULE
*****
 30 33 0 0 0
SMALL
GASTEIGER

@<TRIPOS>ATOM
      1 C          -8.1778  -16.7631   24.4471 C.2     1  UNL1        0.2490
      2 O          -8.0248  -15.6307   25.4187 O.2     1  UNL1       -0.2699
      3 N          -7.0188  -17.1775   23.5896 N.am    1  UNL1       -0.2715
      4 C          -7.1718  -18.3100   22.6179 C.3     1  UNL1        0.1426
      5 C          -6.0129  -18.7244   21.7606 C.ar    1  UNL1        0.1159
      6 N          -5.8660  -19.7956   20.7210 N.ar    1  UNL1       -0.1314
      7 N          -4.4632  -19.7396   20.1927 N.ar    1  UNL1       -0.0576
      8 N          -3.7432  -18.6337   20.9058 N.ar    1  UNL1       -0.1813
      9 C          -4.7009  -18.0063   21.8748 C.ar    1  UNL1        0.0837
     10 C          -4.5479  -16.8738   22.8465 C.3     1  UNL1        0.0671
     11 C          -5.7069  -16.4595   23.7039 C.3     1  UNL1        0.0820
     12 C          -5.5538  -15.3269   24.6755 C.3     1  UNL1        0.0219
     13 C         -10.0954  -16.0444   22.2547 C.3     1  UNL1        0.0327
     14 C         -10.4485  -17.1219   23.2366 C.ar    1  UNL1        0.0042
     15 C          -9.4898  -17.4812   24.3328 C.ar    1  UNL1        0.0526
     16 C          -9.8430  -18.5588   25.3147 C.ar    1  UNL1        0.0249
     17 C         -11.1549  -19.2769   25.2005 C.ar    1  UNL1        0.0989
     18 N         -12.1137  -18.9175   24.1043 N.ar    1  UNL1       -0.2402
     19 C         -11.7605  -17.8400   23.1224 C.ar    1  UNL1        0.1488
     20 C         -12.7192  -17.4806   22.0262 C.3     1  UNL1        0.4345
     21 F         -13.6780  -17.1212   20.9300 F       1  UNL1       -0.1644
     22 F         -12.1811  -18.6021   21.1879 F       1  UNL1       -0.1644
     23 F         -13.2573  -16.3591   22.8645 F       1  UNL1       -0.1644
     24 C          -2.3159  -18.2267   20.6881 C.ar    1  UNL1        0.2543
     25 N          -1.2778  -19.2659   20.3839 N.ar    1  UNL1       -0.2060
     26 C           0.1495  -18.8590   20.1662 C.ar    1  UNL1        0.1332
     27 C           0.5386  -17.4130   20.2527 C.ar    1  UNL1        0.1784
     28 F           1.9658  -17.0060   20.0350 F       1  UNL1       -0.2009
     29 C          -0.4996  -16.3738   20.5569 C.ar    1  UNL1        0.1332
     30 N          -1.9268  -16.7807   20.7746 N.ar    1  UNL1       -0.2060
@<TRIPOS>BOND
     1    13    14    1
     2    14    15   ar
     3    15     1    1
     4     1     2    2
     5     1     3   am
     6     3     4    1
     7     4     5    1
     8     5     6   ar
     9     6     7   ar
    10     7     8   ar
    11     8    24    1
    12    24    25   ar
    13    25    26   ar
    14    26    27   ar
    15    27    28    1
    16    27    29   ar
    17    29    30   ar
    18     8     9   ar
    19     9    10    1
    20    10    11    1
    21    11    12    1
    22    15    16   ar
    23    16    17   ar
    24    17    18   ar
    25    18    19   ar
    26    19    20    1
    27    20    21    1
    28    20    22    1
    29    20    23    1
    30    19    14   ar
    31    11     3    1
    32     9     5   ar
    33    30    24   ar
@<TRIPOS>MOLECULE
*****
 30 33 0 0 0
SMALL
GASTEIGER

@<TRIPOS>ATOM
      1 C           7.2844   -4.2457   22.0052 C.2     1  UNL1        0.2490
      2 O           7.8343   -5.4099   21.2356 O.2     1  UNL1       -0.2699
      3 N           7.3208   -4.2535   23.5049 N.am    1  UNL1       -0.2715
      4 C           6.7708   -3.0893   24.2745 C.3     1  UNL1        0.1426
      5 C           6.8073   -3.0972   25.7740 C.ar    1  UNL1        0.1159
      6 N           6.3441   -2.1001   26.7944 N.ar    1  UNL1       -0.1314
      7 N           6.6443   -2.6558   28.1550 N.ar    1  UNL1       -0.0576
      8 N           7.2930   -3.9963   27.9754 N.ar    1  UNL1       -0.1813
      9 C           7.3937   -4.2691   26.5039 C.ar    1  UNL1        0.0837
     10 C           7.9437   -5.4332   25.7342 C.3     1  UNL1        0.0671
     11 C           7.9072   -5.4254   24.2347 C.3     1  UNL1        0.0820
     12 C           8.4572   -6.5896   23.4651 C.3     1  UNL1        0.0219
     13 C           4.3128   -4.0322   21.6527 C.3     1  UNL1        0.0327
     14 C           5.2122   -2.9671   21.0991 C.ar    1  UNL1        0.0042
     15 C           6.6980   -3.0738   21.2754 C.ar    1  UNL1        0.0526
     16 C           7.5973   -2.0086   20.7218 C.ar    1  UNL1        0.0249
     17 C           7.0109   -0.8367   19.9919 C.ar    1  UNL1        0.0989
     18 N           5.5251   -0.7300   19.8156 N.ar    1  UNL1       -0.2402
     19 C           4.6258   -1.7952   20.3692 C.ar    1  UNL1        0.1488
     20 C           3.1400   -1.6884   20.1930 C.3     1  UNL1        0.4345
     21 F           1.6542   -1.5817   20.0167 F       1  UNL1       -0.1644
     22 F           3.0434   -0.9156   21.4749 F       1  UNL1       -0.1644
     23 F           3.2366   -2.4613   18.9110 F       1  UNL1       -0.1644
     24 C           7.7591   -4.9045   29.0745 C.ar    1  UNL1        0.2543
     25 N           6.9142   -5.0946   30.2992 N.ar    1  UNL1       -0.2060
     26 C           7.3803   -6.0029   31.3984 C.ar    1  UNL1        0.1332
     27 C           8.6911   -6.7209   31.2726 C.ar    1  UNL1        0.1784
     28 F           9.1572   -7.6292   32.3716 F       1  UNL1       -0.2009
     29 C           9.5360   -6.5308   30.0477 C.ar    1  UNL1        0.1332
     30 N           9.0700   -5.6227   28.9487 N.ar    1  UNL1       -0.2060
@<TRIPOS>BOND
     1    13    14    1
     2    14    15   ar
     3    15     1    1
     4     1     2    2
     5     1     3   am
     6     3     4    1
     7     4     5    1
     8     5     6   ar
     9     6     7   ar
    10     7     8   ar
    11     8    24    1
    12    24    25   ar
    13    25    26   ar
    14    26    27   ar
    15    27    28    1
    16    27    29   ar
    17    29    30   ar
    18     8     9   ar
    19     9    10    1
    20    10    11    1
    21    11    12    1
    22    15    16   ar
    23    16    17   ar
    24    17    18   ar
    25    18    19   ar
    26    19    20    1
    27    20    21    1
    28    20    22    1
    29    20    23    1
    30    19    14   ar
    31    11     3    1
    32     9     5   ar
    33    30    24   ar
@<TRIPOS>MOLECULE
*****
 30 33 0 0 0
SMALL
GASTEIGER

@<TRIPOS>ATOM
      1 C           4.1029   -1.2917   18.8659 C.2     1  UNL1        0.2490
      2 O           3.9009   -2.1774   17.6723 O.2     1  UNL1       -0.2699
      3 N           4.6843   -1.8556   20.1286 N.am    1  UNL1       -0.2715
      4 C           4.8863   -0.9698   21.3222 C.3     1  UNL1        0.1426
      5 C           5.4677   -1.5338   22.5847 C.ar    1  UNL1        0.1159
      6 N           5.7806   -0.9091   23.9120 N.ar    1  UNL1       -0.1314
      7 N           6.3533   -1.9727   24.8013 N.ar    1  UNL1       -0.0576
      8 N           6.3942   -3.2547   24.0236 N.ar    1  UNL1       -0.1813
      9 C           5.8469   -2.9834   22.6537 C.ar    1  UNL1        0.0837
     10 C           5.6448   -3.8691   21.4601 C.3     1  UNL1        0.0671
     11 C           5.0635   -3.3052   20.1975 C.3     1  UNL1        0.0820
     12 C           4.8615   -4.1909   19.0039 C.3     1  UNL1        0.0219
     13 C           1.3238   -0.4316   19.5987 C.3     1  UNL1        0.0327
     14 C           2.3341    0.5879   19.1634 C.ar    1  UNL1        0.0042
     15 C           3.7237    0.1580   18.7970 C.ar    1  UNL1        0.0526
     16 C           4.7340    1.1776   18.3617 C.ar    1  UNL1        0.0249
     17 C           4.3547    2.6273   18.2927 C.ar    1  UNL1        0.0989
     18 N           2.9652    3.0572   18.6591 N.ar    1  UNL1       -0.2402
     19 C           1.9549    2.0376   19.0944 C.ar    1  UNL1        0.1488
     20 C           0.5653    2.4675   19.4608 C.3     1  UNL1        0.4345
     21 F          -0.8242    2.8975   19.8272 F       1  UNL1       -0.1644
     22 F           0.9935    2.6347   20.8887 F       1  UNL1       -0.1644
     23 F           0.1371    2.3004   18.0330 F       1  UNL1       -0.1644
     24 C           6.8947   -4.5759   24.5275 C.ar    1  UNL1        0.2543
     25 N           7.6100   -5.5109   23.5979 N.ar    1  UNL1       -0.2060
     26 C           8.1105   -6.8322   24.1017 C.ar    1  UNL1        0.1332
     27 C           7.8957   -7.2184   25.5350 C.ar    1  UNL1        0.1784
     28 F           8.3961   -8.5397   26.0388 F       1  UNL1       -0.2009
     29 C           7.1803   -6.2834   26.4646 C.ar    1  UNL1        0.1332
     30 N           6.6799   -4.9622   25.9609 N.ar    1  UNL1       -0.2060
@<TRIPOS>BOND
     1    13    14    1
     2    14    15   ar
     3    15     1    1
     4     1     2    2
     5     1     3   am
     6     3     4    1
     7     4     5    1
     8     5     6   ar
     9     6     7   ar
    10     7     8   ar
    11     8    24    1
    12    24    25   ar
    13    25    26   ar
    14    26    27   ar
    15    27    28    1
    16    27    29   ar
    17    29    30   ar
    18     8     9   ar
    19     9    10    1
    20    10    11    1
    21    11    12    1
    22    15    16   ar
    23    16    17   ar
    24    17    18   ar
    25    18    19   ar
    26    19    20    1
    27    20    21    1
    28    20    22    1
    29    20    23    1
    30    19    14   ar
    31    11     3    1
    32     9     5   ar
    33    30    24   ar
@<TRIPOS>MOLECULE
*****
 30 33 0 0 0
SMALL
GASTEIGER

@<TRIPOS>ATOM
      1 C           2.8311   -0.4161   21.1539 C.2     1  UNL1        0.2490
      2 O           1.6783    0.4826   20.8171 O.2     1  UNL1       -0.2699
      3 N           3.2104   -0.6442   22.5872 N.am    1  UNL1       -0.2715
      4 C           4.3633   -1.5429   22.9239 C.3     1  UNL1        0.1426
      5 C           4.7426   -1.7710   24.3571 C.ar    1  UNL1        0.1159
      6 N           5.8229   -2.5969   24.9902 N.ar    1  UNL1       -0.1314
      7 N           5.7171   -2.4367   26.4778 N.ar    1  UNL1       -0.0576
      8 N           4.5715   -1.5118   26.7642 N.ar    1  UNL1       -0.1813
      9 C           3.9692   -1.1003   25.4535 C.ar    1  UNL1        0.0837
     10 C           2.8164   -0.2017   25.1167 C.3     1  UNL1        0.0671
     11 C           2.4371    0.0264   23.6835 C.3     1  UNL1        0.0820
     12 C           1.2842    0.9252   23.3468 C.3     1  UNL1        0.0219
     13 C           4.8523    1.1405   19.5753 C.3     1  UNL1        0.0327
     14 C           4.6151   -0.3084   19.2682 C.ar    1  UNL1        0.0042
     15 C           3.6045   -1.0867   20.0575 C.ar    1  UNL1        0.0526
     16 C           3.3674   -2.5356   19.7504 C.ar    1  UNL1        0.0249
     17 C           4.1408   -3.2062   18.6540 C.ar    1  UNL1        0.0989
     18 N           5.1514   -2.4279   17.8647 N.ar    1  UNL1       -0.2402
     19 C           5.3885   -0.9790   18.1719 C.ar    1  UNL1        0.1488
     20 C           6.3991   -0.2007   17.3826 C.3     1  UNL1        0.4345
     21 F           7.4097    0.5776   16.5933 F       1  UNL1       -0.1644
     22 F           7.4663   -0.5951   18.3601 F       1  UNL1       -0.1644
     23 F           5.3319    0.1937   16.4051 F       1  UNL1       -0.1644
     24 C           4.1093   -1.0751   28.1228 C.ar    1  UNL1        0.2543
     25 N           2.6424   -0.9763   28.4200 N.ar    1  UNL1       -0.2060
     26 C           2.1801   -0.5395   29.7786 C.ar    1  UNL1        0.1332
     27 C           3.1848   -0.2016   30.8398 C.ar    1  UNL1        0.1784
     28 F           2.7226    0.2351   32.1983 F       1  UNL1       -0.2009
     29 C           4.6518   -0.3004   30.5425 C.ar    1  UNL1        0.1332
     30 N           5.1140   -0.7371   29.1841 N.ar    1  UNL1       -0.2060
@<TRIPOS>BOND
     1    13    14    1
     2    14    15   ar
     3    15     1    1
     4     1     2    2
     5     1     3   am
     6     3     4    1
     7     4     5    1
     8     5     6   ar
     9     6     7   ar
    10     7     8   ar
    11     8    24    1
    12    24    25   ar
    13    25    26   ar
    14    26    27   ar
    15    27    28    1
    16    27    29   ar
    17    29    30   ar
    18     8     9   ar
    19     9    10    1
    20    10    11    1
    21    11    12    1
    22    15    16   ar
    23    16    17   ar
    24    17    18   ar
    25    18    19   ar
    26    19    20    1
    27    20    21    1
    28    20    22    1
    29    20    23    1
    30    19    14   ar
    31    11     3    1
    32     9     5   ar
    33    30    24   ar
@<TRIPOS>MOLECULE
*****
 30 33 0 0 0
SMALL
GASTEIGER

@<TRIPOS>ATOM
      1 C           1.5891    4.5650   35.8694 C.2     1  UNL1        0.2490
      2 O           0.7781    5.8253   35.9326 O.2     1  UNL1       -0.2699
      3 N           1.5993    3.7419   34.6154 N.am    1  UNL1       -0.2715
      4 C           2.4103    2.4815   34.5522 C.3     1  UNL1        0.1426
      5 C           2.4205    1.6584   33.2982 C.ar    1  UNL1        0.1159
      6 N           3.1189    0.3793   32.9430 N.ar    1  UNL1       -0.1314
      7 N           2.7498    0.0260   31.5327 N.ar    1  UNL1       -0.0576
      8 N           1.8233    1.0867   31.0164 N.ar    1  UNL1       -0.1813
      9 C           1.6199    2.0956   32.1075 C.ar    1  UNL1        0.0837
     10 C           0.8089    3.3559   32.1708 C.3     1  UNL1        0.0671
     11 C           0.7987    4.1790   33.4247 C.3     1  UNL1        0.0820
     12 C          -0.0123    5.4394   33.4879 C.3     1  UNL1        0.0219
     13 C           4.3811    5.5913   36.2585 C.3     1  UNL1        0.0327
     14 C           3.7857    4.6410   37.2546 C.ar    1  UNL1        0.0042
     15 C           2.3897    4.1278   37.0601 C.ar    1  UNL1        0.0526
     16 C           1.7944    3.1774   38.0563 C.ar    1  UNL1        0.0249
     17 C           2.5951    2.7402   39.2470 C.ar    1  UNL1        0.0989
     18 N           3.9911    3.2534   39.4415 N.ar    1  UNL1       -0.2402
     19 C           4.5864    4.2037   38.4453 C.ar    1  UNL1        0.1488
     20 C           5.9824    4.7169   38.6399 C.3     1  UNL1        0.4345
     21 F           7.3784    5.2301   38.8344 F       1  UNL1       -0.1644
     22 F           6.5181    3.5581   37.8524 F       1  UNL1       -0.1644
     23 F           5.4467    5.8757   39.4273 F       1  UNL1       -0.1644
     24 C           1.2084    1.1308   29.6489 C.ar    1  UNL1        0.2543
     25 N          -0.1845    0.6166   29.4361 N.ar    1  UNL1       -0.2060
     26 C          -0.7996    0.6606   28.0686 C.ar    1  UNL1        0.1332
     27 C          -0.0216    1.2189   26.9141 C.ar    1  UNL1        0.1784
     28 F          -0.6366    1.2629   25.5467 F       1  UNL1       -0.2009
     29 C           1.3714    1.7331   27.1269 C.ar    1  UNL1        0.1332
     30 N           1.9864    1.6890   28.4943 N.ar    1  UNL1       -0.2060
@<TRIPOS>BOND
     1    13    14    1
     2    14    15   ar
     3    15     1    1
     4     1     2    2
     5     1     3   am
     6     3     4    1
     7     4     5    1
     8     5     6   ar
     9     6     7   ar
    10     7     8   ar
    11     8    24    1
    12    24    25   ar
    13    25    26   ar
    14    26    27   ar
    15    27    28    1
    16    27    29   ar
    17    29    30   ar
    18     8     9   ar
    19     9    10    1
    20    10    11    1
    21    11    12    1
    22    15    16   ar
    23    16    17   ar
    24    17    18   ar
    25    18    19   ar
    26    19    20    1
    27    20    21    1
    28    20    22    1
    29    20    23    1
    30    19    14   ar
    31    11     3    1
    32     9     5   ar
    33    30    24   ar
@<TRIPOS>MOLECULE
*****
 30 33 0 0 0
SMALL
GASTEIGER

@<TRIPOS>ATOM
      1 C           5.8356   -3.6478   22.5189 C.2     1  UNL1        0.2490
      2 O           6.9004   -4.6723   22.7765 O.2     1  UNL1       -0.2699
      3 N           5.2877   -2.8338   23.6536 N.am    1  UNL1       -0.2715
      4 C           4.2228   -1.8092   23.3959 C.3     1  UNL1        0.1426
      5 C           3.6750   -0.9952   24.5306 C.ar    1  UNL1        0.1159
      6 N           2.6298    0.0793   24.5819 N.ar    1  UNL1       -0.1314
      7 N           2.5008    0.5329   26.0058 N.ar    1  UNL1       -0.0576
      8 N           3.4664   -0.2614   26.8346 N.ar    1  UNL1       -0.1813
      9 C           4.1921   -1.2059   25.9228 C.ar    1  UNL1        0.0837
     10 C           5.2569   -2.2304   26.1804 C.3     1  UNL1        0.0671
     11 C           5.8047   -3.0443   25.0458 C.3     1  UNL1        0.0820
     12 C           6.8696   -4.0689   25.3035 C.3     1  UNL1        0.0219
     13 C           7.1674   -1.6604   20.7087 C.3     1  UNL1        0.0327
     14 C           5.9845   -2.4435   20.2216 C.ar    1  UNL1        0.0042
     15 C           5.3185   -3.4371   21.1267 C.ar    1  UNL1        0.0526
     16 C           4.1355   -4.2202   20.6395 C.ar    1  UNL1        0.0249
     17 C           3.6185   -4.0096   19.2473 C.ar    1  UNL1        0.0989
     18 N           4.2844   -3.0159   18.3422 N.ar    1  UNL1       -0.2402
     19 C           5.4674   -2.2329   18.8294 C.ar    1  UNL1        0.1488
     20 C           6.1333   -1.2392   17.9243 C.3     1  UNL1        0.4345
     21 F           6.7993   -0.2455   17.0193 F       1  UNL1       -0.1644
     22 F           5.1466   -0.1919   18.3481 F       1  UNL1       -0.1644
     23 F           7.1200   -2.2865   17.5005 F       1  UNL1       -0.1644
     24 C           3.6703   -0.1337   28.3151 C.ar    1  UNL1        0.2543
     25 N           2.6438   -0.6787   29.2634 N.ar    1  UNL1       -0.2060
     26 C           2.8478   -0.5510   30.7441 C.ar    1  UNL1        0.1332
     27 C           4.0782    0.1218   31.2763 C.ar    1  UNL1        0.1784
     28 F           4.2822    0.2495   32.7569 F       1  UNL1       -0.2009
     29 C           5.1048    0.6668   30.3280 C.ar    1  UNL1        0.1332
     30 N           4.9008    0.5391   28.8474 N.ar    1  UNL1       -0.2060
@<TRIPOS>BOND
     1    13    14    1
     2    14    15   ar
     3    15     1    1
     4     1     2    2
     5     1     3   am
     6     3     4    1
     7     4     5    1
     8     5     6   ar
     9     6     7   ar
    10     7     8   ar
    11     8    24    1
    12    24    25   ar
    13    25    26   ar
    14    26    27   ar
    15    27    28    1
    16    27    29   ar
    17    29    30   ar
    18     8     9   ar
    19     9    10    1
    20    10    11    1
    21    11    12    1
    22    15    16   ar
    23    16    17   ar
    24    17    18   ar
    25    18    19   ar
    26    19    20    1
    27    20    21    1
    28    20    22    1
    29    20    23    1
    30    19    14   ar
    31    11     3    1
    32     9     5   ar
    33    30    24   ar
@<TRIPOS>MOLECULE
*****
 30 33 0 0 0
SMALL
GASTEIGER

@<TRIPOS>ATOM
      1 C           6.5510   -3.9171   21.5191 C.2     1  UNL1        0.2490
      2 O           7.6267   -4.8899   21.1362 O.2     1  UNL1       -0.2699
      3 N           6.3576   -3.5409   22.9583 N.am    1  UNL1       -0.2715
      4 C           5.2819   -2.5681   23.3411 C.3     1  UNL1        0.1426
      5 C           5.0885   -2.1919   24.7802 C.ar    1  UNL1        0.1159
      6 N           4.1190   -1.2669   25.4542 N.ar    1  UNL1       -0.1314
      7 N           4.4021   -1.2917   26.9271 N.ar    1  UNL1       -0.0576
      8 N           5.5466   -2.2321   27.1633 N.ar    1  UNL1       -0.1813
      9 C           5.9708   -2.7885   25.8365 C.ar    1  UNL1        0.0837
     10 C           7.0465   -3.7613   25.4536 C.3     1  UNL1        0.0671
     11 C           7.2399   -4.1375   24.0145 C.3     1  UNL1        0.0820
     12 C           8.3156   -5.1103   23.6316 C.3     1  UNL1        0.0219
     13 C           7.2847   -1.2967   20.2560 C.3     1  UNL1        0.0327
     14 C           6.0356   -2.0104   19.8313 C.ar    1  UNL1        0.0042
     15 C           5.6687   -3.3206   20.4628 C.ar    1  UNL1        0.0526
     16 C           4.4196   -4.0342   20.0381 C.ar    1  UNL1        0.0249
     17 C           3.5373   -3.4376   18.9819 C.ar    1  UNL1        0.0989
     18 N           3.9041   -2.1274   18.3504 N.ar    1  UNL1       -0.2402
     19 C           5.1532   -1.4138   18.7751 C.ar    1  UNL1        0.1488
     20 C           5.5201   -0.1036   18.1436 C.3     1  UNL1        0.4345
     21 F           5.8869    1.2066   17.5120 F       1  UNL1       -0.1644
     22 F           6.3242   -0.8290   17.1057 F       1  UNL1       -0.1644
     23 F           4.7160    0.6218   19.1814 F       1  UNL1       -0.1644
     24 C           6.1593   -2.5588   28.4929 C.ar    1  UNL1        0.2543
     25 N           6.3088   -3.9893   28.9186 N.ar    1  UNL1       -0.2060
     26 C           6.9215   -4.3161   30.2483 C.ar    1  UNL1        0.1332
     27 C           7.3846   -3.2123   31.1522 C.ar    1  UNL1        0.1784
     28 F           7.9973   -3.5390   32.4818 F       1  UNL1       -0.2009
     29 C           7.2350   -1.7817   30.7264 C.ar    1  UNL1        0.1332
     30 N           6.6224   -1.4550   29.3969 N.ar    1  UNL1       -0.2060
@<TRIPOS>BOND
     1    13    14    1
     2    14    15   ar
     3    15     1    1
     4     1     2    2
     5     1     3   am
     6     3     4    1
     7     4     5    1
     8     5     6   ar
     9     6     7   ar
    10     7     8   ar
    11     8    24    1
    12    24    25   ar
    13    25    26   ar
    14    26    27   ar
    15    27    28    1
    16    27    29   ar
    17    29    30   ar
    18     8     9   ar
    19     9    10    1
    20    10    11    1
    21    11    12    1
    22    15    16   ar
    23    16    17   ar
    24    17    18   ar
    25    18    19   ar
    26    19    20    1
    27    20    21    1
    28    20    22    1
    29    20    23    1
    30    19    14   ar
    31    11     3    1
    32     9     5   ar
    33    30    24   ar
@<TRIPOS>MOLECULE
*****
 30 33 0 0 0
SMALL
GASTEIGER

@<TRIPOS>ATOM
      1 C           6.5528   -1.9690   23.3075 C.2     1  UNL1        0.2490
      2 O           7.8221   -2.6686   23.6940 O.2     1  UNL1       -0.2699
      3 N           5.6648   -1.3867   24.3670 N.am    1  UNL1       -0.2715
      4 C           4.3954   -0.6871   23.9804 C.3     1  UNL1        0.1426
      5 C           3.5075   -0.1048   25.0399 C.ar    1  UNL1        0.1159
      6 N           2.2051    0.6353   24.9626 N.ar    1  UNL1       -0.1314
      7 N           1.7815    0.9753   26.3608 N.ar    1  UNL1       -0.0576
      8 N           2.8221    0.4453   27.3022 N.ar    1  UNL1       -0.1813
      9 C           3.8888   -0.2222   26.4859 C.ar    1  UNL1        0.0837
     10 C           5.1581   -0.9219   26.8724 C.3     1  UNL1        0.0671
     11 C           6.0461   -1.5041   25.8129 C.3     1  UNL1        0.0820
     12 C           7.3154   -2.2037   26.1995 C.3     1  UNL1        0.0219
     13 C           4.5717   -3.8825   22.1184 C.3     1  UNL1        0.0327
     14 C           5.1809   -2.8083   21.2670 C.ar    1  UNL1        0.0042
     15 C           6.1715   -1.8516   21.8615 C.ar    1  UNL1        0.0526
     16 C           6.7807   -0.7774   21.0100 C.ar    1  UNL1        0.0249
     17 C           6.3993   -0.6600   19.5641 C.ar    1  UNL1        0.0989
     18 N           5.4088   -1.6168   18.9696 N.ar    1  UNL1       -0.2402
     19 C           4.7996   -2.6909   19.8211 C.ar    1  UNL1        0.1488
     20 C           3.8090   -3.6477   19.2266 C.3     1  UNL1        0.4345
     21 F           2.8185   -4.6045   18.6321 F       1  UNL1       -0.1644
     22 F           4.9304   -4.5600   18.8263 F       1  UNL1       -0.1644
     23 F           2.6877   -2.7354   19.6269 F       1  UNL1       -0.1644
     24 C           2.7998    0.5624   28.7975 C.ar    1  UNL1        0.2543
     25 N           2.9437   -0.6647   29.6481 N.ar    1  UNL1       -0.2060
     26 C           2.9214   -0.5477   31.1434 C.ar    1  UNL1        0.1332
     27 C           2.7553    0.7964   31.7880 C.ar    1  UNL1        0.1784
     28 F           2.7330    0.9135   33.2833 F       1  UNL1       -0.2009
     29 C           2.6114    2.0236   30.9374 C.ar    1  UNL1        0.1332
     30 N           2.6337    1.9066   29.4422 N.ar    1  UNL1       -0.2060
@<TRIPOS>BOND
     1    13    14    1
     2    14    15   ar
     3    15     1    1
     4     1     2    2
     5     1     3   am
     6     3     4    1
     7     4     5    1
     8     5     6   ar
     9     6     7   ar
    10     7     8   ar
    11     8    24    1
    12    24    25   ar
    13    25    26   ar
    14    26    27   ar
    15    27    28    1
    16    27    29   ar
    17    29    30   ar
    18     8     9   ar
    19     9    10    1
    20    10    11    1
    21    11    12    1
    22    15    16   ar
    23    16    17   ar
    24    17    18   ar
    25    18    19   ar
    26    19    20    1
    27    20    21    1
    28    20    22    1
    29    20    23    1
    30    19    14   ar
    31    11     3    1
    32     9     5   ar
    33    30    24   ar
@<TRIPOS>MOLECULE
*****
 30 33 0 0 0
SMALL
GASTEIGER

@<TRIPOS>ATOM
      1 C           6.9404   -4.3557   21.7028 C.2     1  UNL1        0.2490
      2 O           7.7067   -5.4178   20.9714 O.2     1  UNL1       -0.2699
      3 N           6.9638   -4.3120   23.2021 N.am    1  UNL1       -0.2715
      4 C           6.1975   -3.2500   23.9335 C.3     1  UNL1        0.1426
      5 C           6.2210   -3.2063   25.4327 C.ar    1  UNL1        0.1159
      6 N           5.5691   -2.2844   26.4202 N.ar    1  UNL1       -0.1314
      7 N           5.9558   -2.7331   27.7983 N.ar    1  UNL1       -0.0576
      8 N           6.8468   -3.9322   27.6625 N.ar    1  UNL1       -0.1813
      9 C           7.0106   -4.2246   26.2004 C.ar    1  UNL1        0.0837
     10 C           7.7769   -5.2866   25.4690 C.3     1  UNL1        0.0671
     11 C           7.7535   -5.3303   23.9698 C.3     1  UNL1        0.0820
     12 C           8.5197   -6.3924   23.2384 C.3     1  UNL1        0.0219
     13 C           8.3080   -1.9346   20.5768 C.3     1  UNL1        0.0327
     14 C           6.8346   -2.1269   20.3721 C.ar    1  UNL1        0.0042
     15 C           6.1508   -3.3374   20.9351 C.ar    1  UNL1        0.0526
     16 C           4.6773   -3.5296   20.7303 C.ar    1  UNL1        0.0249
     17 C           3.8877   -2.5113   19.9626 C.ar    1  UNL1        0.0989
     18 N           4.5715   -1.3007   19.3996 N.ar    1  UNL1       -0.2402
     19 C           6.0449   -1.1085   19.6043 C.ar    1  UNL1        0.1488
     20 C           6.7287    0.1020   19.0413 C.3     1  UNL1        0.4345
     21 F           7.4125    1.3126   18.4783 F       1  UNL1       -0.1644
     22 F           6.5246    0.8219   20.3413 F       1  UNL1       -0.1644
     23 F           6.9328   -0.6179   17.7413 F       1  UNL1       -0.1644
     24 C           7.4652   -4.7033   28.7906 C.ar    1  UNL1        0.2543
     25 N           6.6314   -5.1027   29.9719 N.ar    1  UNL1       -0.2060
     26 C           7.2499   -5.8739   31.1001 C.ar    1  UNL1        0.1332
     27 C           8.7020   -6.2457   31.0471 C.ar    1  UNL1        0.1784
     28 F           9.3204   -7.0169   32.1752 F       1  UNL1       -0.2009
     29 C           9.5358   -5.8463   29.8657 C.ar    1  UNL1        0.1332
     30 N           8.9174   -5.0752   28.7376 N.ar    1  UNL1       -0.2060
@<TRIPOS>BOND
     1    13    14    1
     2    14    15   ar
     3    15     1    1
     4     1     2    2
     5     1     3   am
     6     3     4    1
     7     4     5    1
     8     5     6   ar
     9     6     7   ar
    10     7     8   ar
    11     8    24    1
    12    24    25   ar
    13    25    26   ar
    14    26    27   ar
    15    27    28    1
    16    27    29   ar
    17    29    30   ar
    18     8     9   ar
    19     9    10    1
    20    10    11    1
    21    11    12    1
    22    15    16   ar
    23    16    17   ar
    24    17    18   ar
    25    18    19   ar
    26    19    20    1
    27    20    21    1
    28    20    22    1
    29    20    23    1
    30    19    14   ar
    31    11     3    1
    32     9     5   ar
    33    30    24   ar
