@<TRIPOS>MOLECULE
*****
 29 31 0 0 0
SMALL
GASTEIGER

@<TRIPOS>ATOM
      1 N           7.4656   -4.5372   26.7635 N.pl3   1  UNL1       -0.3040
      2 C           7.5837   -3.3884   25.8062 C.3     1  UNL1        0.1123
      3 C           7.9056   -3.6443   24.3637 C.3     1  UNL1        0.1149
      4 N           8.1093   -5.0489   23.8784 N.am    1  UNL1       -0.2744
      5 C           8.4312   -5.3048   22.4358 C.2     1  UNL1        0.2506
      6 O           8.6349   -6.7094   21.9506 O.2     1  UNL1       -0.2727
      7 C           7.9912   -6.1977   24.8356 C.3     1  UNL1        0.1149
      8 C           7.6693   -5.9418   26.2782 C.3     1  UNL1        0.1123
      9 C           6.9684   -5.1267   30.6565 C.ar    1  UNL1        0.1504
     10 C           7.2902   -5.3826   29.2139 C.ar    1  UNL1        0.0523
     11 C           7.1437   -4.2813   28.2061 C.ar    1  UNL1        0.0510
     12 C           6.6753   -2.9243   28.6407 C.ar    1  UNL1        0.0156
     13 C           6.3535   -2.6684   30.0832 C.ar    1  UNL1        0.0157
     14 C           6.5000   -3.7697   31.0911 C.ar    1  UNL1        0.0916
     15 CL          6.1782   -3.5138   32.5337 Cl      1  UNL1       -0.0791
     16 C           8.4465   -6.8888   31.8650 C.3     1  UNL1        0.2525
     17 O           7.1149   -6.2280   31.6643 O.3     1  UNL1       -0.4705
     18 C           8.5493   -4.1560   21.4786 C.3     1  UNL1        0.2116
     19 N           7.4010   -3.8088   20.5782 N.ar    1  UNL1       -0.2447
     20 N           6.0816   -4.5199   20.5180 N.ar    1  UNL1       -0.1642
     21 C           5.2355   -3.8402   19.4825 C.ar    1  UNL1        0.1837
     22 C           6.0321   -2.7091   18.9027 C.ar    1  UNL1        0.0941
     23 CL          5.5712   -1.7634   17.8334 Cl      1  UNL1       -0.0795
     24 C           7.3704   -2.6897   19.5798 C.ar    1  UNL1        0.0685
     25 C           8.4827   -1.7213   19.3066 C.3     1  UNL1        0.0527
     26 C           3.8383   -4.2242   19.0949 C.3     1  UNL1        0.4373
     27 F           2.4410   -4.6083   18.7073 F       1  UNL1       -0.1643
     28 F           3.3015   -3.0660   19.8825 F       1  UNL1       -0.1643
     29 F           4.3751   -5.3825   18.3073 F       1  UNL1       -0.1643
@<TRIPOS>BOND
     1    16    17    1
     2    17     9    1
     3     9    10   ar
     4    10    11   ar
     5    11     1    1
     6     1     2    1
     7     2     3    1
     8     3     4    1
     9     4     5   am
    10     5     6    2
    11     5    18    1
    12    18    19    1
    13    19    20   ar
    14    20    21   ar
    15    21    26    1
    16    26    27    1
    17    26    28    1
    18    26    29    1
    19    21    22   ar
    20    22    23    1
    21    22    24   ar
    22    24    25    1
    23     4     7    1
    24     7     8    1
    25    11    12   ar
    26    12    13   ar
    27    13    14   ar
    28    14    15    1
    29    14     9   ar
    30     8     1    1
    31    24    19   ar
@<TRIPOS>MOLECULE
*****
 29 31 0 0 0
SMALL
GASTEIGER

@<TRIPOS>ATOM
      1 N           6.8699   -3.7004   27.6442 N.pl3   1  UNL1       -0.3040
      2 C           7.1499   -2.6594   26.6013 C.3     1  UNL1        0.1123
      3 C           7.5029   -3.0740   25.2036 C.3     1  UNL1        0.1149
      4 N           7.5759   -4.5297   24.8489 N.am    1  UNL1       -0.2744
      5 C           7.9289   -4.9442   23.4512 C.2     1  UNL1        0.2506
      6 O           8.0018   -6.3998   23.0966 O.2     1  UNL1       -0.2727
      7 C           7.2958   -5.5707   25.8919 C.3     1  UNL1        0.1149
      8 C           6.9428   -5.1560   27.2896 C.3     1  UNL1        0.1123
      9 C           5.4280   -1.5858   30.6773 C.ar    1  UNL1        0.1504
     10 C           5.7810   -2.0005   29.2797 C.ar    1  UNL1        0.0523
     11 C           6.5169   -3.2858   29.0420 C.ar    1  UNL1        0.0510
     12 C           6.8998   -4.1564   30.2018 C.ar    1  UNL1        0.0156
     13 C           6.5467   -3.7417   31.5995 C.ar    1  UNL1        0.0157
     14 C           5.8109   -2.4565   31.8372 C.ar    1  UNL1        0.0916
     15 CL          5.4578   -2.0418   33.2349 Cl      1  UNL1       -0.0791
     16 C           3.1939   -0.2707   30.8481 C.3     1  UNL1        0.2525
     17 O           4.6921   -0.3006   30.9151 O.3     1  UNL1       -0.4705
     18 C           8.2089   -3.9032   22.4082 C.3     1  UNL1        0.2116
     19 N           7.2531   -3.7067   21.2691 N.ar    1  UNL1       -0.2447
     20 N           5.9033   -4.3460   21.1305 N.ar    1  UNL1       -0.1642
     21 C           5.2952   -3.8708   19.8443 C.ar    1  UNL1        0.1837
     22 C           6.2692   -2.9377   19.1879 C.ar    1  UNL1        0.0941
     23 CL          6.0683   -2.2303   17.8806 Cl      1  UNL1       -0.0795
     24 C           7.4792   -2.8363   20.0685 C.ar    1  UNL1        0.0685
     25 C           8.7009   -2.0097   19.7963 C.3     1  UNL1        0.0527
     26 C           3.9493   -4.2603   19.3085 C.3     1  UNL1        0.4373
     27 F           2.6035   -4.6497   18.7727 F       1  UNL1       -0.1643
     28 F           3.3419   -3.0505   19.9548 F       1  UNL1       -0.1643
     29 F           4.5567   -5.4700   18.6622 F       1  UNL1       -0.1643
@<TRIPOS>BOND
     1    16    17    1
     2    17     9    1
     3     9    10   ar
     4    10    11   ar
     5    11     1    1
     6     1     2    1
     7     2     3    1
     8     3     4    1
     9     4     5   am
    10     5     6    2
    11     5    18    1
    12    18    19    1
    13    19    20   ar
    14    20    21   ar
    15    21    26    1
    16    26    27    1
    17    26    28    1
    18    26    29    1
    19    21    22   ar
    20    22    23    1
    21    22    24   ar
    22    24    25    1
    23     4     7    1
    24     7     8    1
    25    11    12   ar
    26    12    13   ar
    27    13    14   ar
    28    14    15    1
    29    14     9   ar
    30     8     1    1
    31    24    19   ar
@<TRIPOS>MOLECULE
*****
 29 31 0 0 0
SMALL
GASTEIGER

@<TRIPOS>ATOM
      1 N         -16.7423   -6.0492   18.0485 N.pl3   1  UNL1       -0.3040
      2 C         -15.5990   -5.5503   17.2154 C.3     1  UNL1        0.1123
      3 C         -14.7353   -4.4324   17.7196 C.3     1  UNL1        0.1149
      4 N         -15.0150   -3.8132   19.0570 N.am    1  UNL1       -0.2744
      5 C         -14.1513   -2.6953   19.5613 C.2     1  UNL1        0.2506
      6 O         -14.4310   -2.0763   20.8986 O.2     1  UNL1       -0.2727
      7 C         -16.1583   -4.3121   19.8901 C.3     1  UNL1        0.1149
      8 C         -17.0219   -5.4301   19.3858 C.3     1  UNL1        0.1123
      9 C         -18.3034   -9.6694   17.5933 C.ar    1  UNL1        0.1504
     10 C         -17.4398   -8.5514   18.0975 C.ar    1  UNL1        0.0523
     11 C         -17.6059   -7.1672   17.5441 C.ar    1  UNL1        0.0510
     12 C         -18.6356   -6.9009   16.4864 C.ar    1  UNL1        0.0156
     13 C         -19.4992   -8.0189   15.9822 C.ar    1  UNL1        0.0157
     14 C         -19.3331   -9.4031   16.5356 C.ar    1  UNL1        0.0916
     15 CL        -20.1967  -10.5211   16.0313 Cl      1  UNL1       -0.0791
     16 C         -16.8523  -11.4453   18.8141 C.3     1  UNL1        0.2525
     17 O         -18.1372  -11.0536   18.1467 O.3     1  UNL1       -0.4705
     18 C         -13.0080   -2.1964   18.7282 C.3     1  UNL1        0.2116
     19 N         -11.8609   -3.1077   18.4064 N.ar    1  UNL1       -0.2447
     20 N         -11.5558   -4.4128   19.0800 N.ar    1  UNL1       -0.1642
     21 C         -10.3239   -4.9856   18.4443 C.ar    1  UNL1        0.1837
     22 C          -9.8675   -4.0346   17.3778 C.ar    1  UNL1        0.0941
     23 CL         -8.6712   -4.2128   16.4906 Cl      1  UNL1       -0.0795
     24 C         -10.8175   -2.8740   17.3544 C.ar    1  UNL1        0.0685
     25 C         -10.7380   -1.6879   16.4396 C.3     1  UNL1        0.0527
     26 C          -9.6640   -6.2819   18.8108 C.3     1  UNL1        0.4373
     27 F          -9.0042   -7.5782   19.1773 F       1  UNL1       -0.1643
     28 F          -8.8657   -5.5769   19.8671 F       1  UNL1       -0.1643
     29 F         -10.4624   -6.9869   17.7546 F       1  UNL1       -0.1643
@<TRIPOS>BOND
     1    16    17    1
     2    17     9    1
     3     9    10   ar
     4    10    11   ar
     5    11     1    1
     6     1     2    1
     7     2     3    1
     8     3     4    1
     9     4     5   am
    10     5     6    2
    11     5    18    1
    12    18    19    1
    13    19    20   ar
    14    20    21   ar
    15    21    26    1
    16    26    27    1
    17    26    28    1
    18    26    29    1
    19    21    22   ar
    20    22    23    1
    21    22    24   ar
    22    24    25    1
    23     4     7    1
    24     7     8    1
    25    11    12   ar
    26    12    13   ar
    27    13    14   ar
    28    14    15    1
    29    14     9   ar
    30     8     1    1
    31    24    19   ar
@<TRIPOS>MOLECULE
*****
 29 31 0 0 0
SMALL
GASTEIGER

@<TRIPOS>ATOM
      1 N         -12.4251   -2.2124   18.5342 N.pl3   1  UNL1       -0.3040
      2 C         -13.8580   -2.0522   18.9478 C.3     1  UNL1        0.1123
      3 C         -14.5273   -0.7149   18.8311 C.3     1  UNL1        0.1149
      4 N         -13.7637    0.4623   18.3007 N.am    1  UNL1       -0.2744
      5 C         -14.4330    1.7996   18.1840 C.2     1  UNL1        0.2506
      6 O         -13.6694    2.9766   17.6536 O.2     1  UNL1       -0.2727
      7 C         -12.3308    0.3020   17.8870 C.3     1  UNL1        0.1149
      8 C         -11.6615   -1.0353   18.0038 C.3     1  UNL1        0.1123
      9 C         -11.9145   -6.1348   18.8575 C.ar    1  UNL1        0.1504
     10 C         -12.5837   -4.7974   18.7408 C.ar    1  UNL1        0.0523
     11 C         -11.7558   -3.5498   18.6509 C.ar    1  UNL1        0.0510
     12 C         -10.2588   -3.6395   18.6777 C.ar    1  UNL1        0.0156
     13 C          -9.5896   -4.9768   18.7944 C.ar    1  UNL1        0.0157
     14 C         -10.4174   -6.2245   18.8843 C.ar    1  UNL1        0.0916
     15 CL         -9.7482   -7.5618   19.0011 Cl      1  UNL1       -0.0791
     16 C         -13.4882   -7.8759   17.7433 C.3     1  UNL1        0.2525
     17 O         -12.7423   -7.3824   18.9474 O.3     1  UNL1       -0.4705
     18 C         -15.8659    1.9598   18.5977 C.3     1  UNL1        0.2116
     19 N         -16.1984    2.4457   19.9773 N.ar    1  UNL1       -0.2447
     20 N         -15.7028    3.7126   20.6091 N.ar    1  UNL1       -0.1642
     21 C         -16.2829    3.7999   21.9896 C.ar    1  UNL1        0.1837
     22 C         -17.1371    2.5868   22.2110 C.ar    1  UNL1        0.0941
     23 CL        -17.9081    2.2670   23.4572 Cl      1  UNL1       -0.0795
     24 C         -17.0848    1.7499   20.9673 C.ar    1  UNL1        0.0685
     25 C         -17.7944    0.4461   20.7515 C.3     1  UNL1        0.0527
     26 C         -16.0498    4.9060   22.9756 C.3     1  UNL1        0.4373
     27 F         -15.8168    6.0121   23.9616 F       1  UNL1       -0.1643
     28 F         -14.6416    4.4300   23.1767 F       1  UNL1       -0.1643
     29 F         -17.4580    5.3820   22.7745 F       1  UNL1       -0.1643
@<TRIPOS>BOND
     1    16    17    1
     2    17     9    1
     3     9    10   ar
     4    10    11   ar
     5    11     1    1
     6     1     2    1
     7     2     3    1
     8     3     4    1
     9     4     5   am
    10     5     6    2
    11     5    18    1
    12    18    19    1
    13    19    20   ar
    14    20    21   ar
    15    21    26    1
    16    26    27    1
    17    26    28    1
    18    26    29    1
    19    21    22   ar
    20    22    23    1
    21    22    24   ar
    22    24    25    1
    23     4     7    1
    24     7     8    1
    25    11    12   ar
    26    12    13   ar
    27    13    14   ar
    28    14    15    1
    29    14     9   ar
    30     8     1    1
    31    24    19   ar
@<TRIPOS>MOLECULE
*****
 29 31 0 0 0
SMALL
GASTEIGER

@<TRIPOS>ATOM
      1 N           6.6131   -3.3075   26.3602 N.pl3   1  UNL1       -0.3040
      2 C           6.5478   -1.9669   25.6906 C.3     1  UNL1        0.1123
      3 C           6.5849   -1.8735   24.1940 C.3     1  UNL1        0.1149
      4 N           6.6873   -3.1207   23.3670 N.am    1  UNL1       -0.2744
      5 C           6.7244   -3.0273   21.8704 C.2     1  UNL1        0.2506
      6 O           6.8269   -4.2745   21.0434 O.2     1  UNL1       -0.2727
      7 C           6.7527   -4.4614   24.0366 C.3     1  UNL1        0.1149
      8 C           6.7156   -4.5548   25.5333 C.3     1  UNL1        0.1123
      9 C           6.7953   -4.8087   30.0295 C.ar    1  UNL1        0.1504
     10 C           6.8324   -4.7152   28.5329 C.ar    1  UNL1        0.0523
     11 C           6.5760   -3.4009   27.8569 C.ar    1  UNL1        0.0510
     12 C           6.2826   -2.1801   28.6775 C.ar    1  UNL1        0.0156
     13 C           6.2456   -2.2736   30.1741 C.ar    1  UNL1        0.0157
     14 C           6.5019   -3.5878   30.8501 C.ar    1  UNL1        0.0916
     15 CL          6.4648   -3.6812   32.3468 Cl      1  UNL1       -0.0791
     16 C           8.4322   -6.4647   31.1818 C.3     1  UNL1        0.2525
     17 O           7.0516   -6.1229   30.7055 O.3     1  UNL1       -0.4705
     18 C           6.6591   -1.6866   21.2007 C.3     1  UNL1        0.2116
     19 N           5.5268   -1.3674   20.2702 N.ar    1  UNL1       -0.2447
     20 N           4.1739   -0.8578   20.6701 N.ar    1  UNL1       -0.1642
     21 C           3.3595   -0.6772   19.4234 C.ar    1  UNL1        0.1837
     22 C           4.2091   -1.0752   18.2530 C.ar    1  UNL1        0.0941
     23 CL          3.7924   -1.0509   16.8123 Cl      1  UNL1       -0.0795
     24 C           5.5485   -1.5018   18.7764 C.ar    1  UNL1        0.0685
     25 C           6.7065   -1.9790   17.9508 C.3     1  UNL1        0.0527
     26 C           1.9440   -0.1850   19.3586 C.3     1  UNL1        0.4373
     27 F           0.5285    0.3072   19.2937 F       1  UNL1       -0.1643
     28 F           1.4762   -1.4417   20.0309 F       1  UNL1       -0.1643
     29 F           2.4118    1.0716   18.6863 F       1  UNL1       -0.1643
@<TRIPOS>BOND
     1    16    17    1
     2    17     9    1
     3     9    10   ar
     4    10    11   ar
     5    11     1    1
     6     1     2    1
     7     2     3    1
     8     3     4    1
     9     4     5   am
    10     5     6    2
    11     5    18    1
    12    18    19    1
    13    19    20   ar
    14    20    21   ar
    15    21    26    1
    16    26    27    1
    17    26    28    1
    18    26    29    1
    19    21    22   ar
    20    22    23    1
    21    22    24   ar
    22    24    25    1
    23     4     7    1
    24     7     8    1
    25    11    12   ar
    26    12    13   ar
    27    13    14   ar
    28    14    15    1
    29    14     9   ar
    30     8     1    1
    31    24    19   ar
@<TRIPOS>MOLECULE
*****
 29 31 0 0 0
SMALL
GASTEIGER

@<TRIPOS>ATOM
      1 N         -12.4201   -2.6942   18.5598 N.pl3   1  UNL1       -0.3040
      2 C         -13.9133   -2.6616   18.6994 C.3     1  UNL1        0.1123
      3 C         -14.6446   -1.3538   18.6308 C.3     1  UNL1        0.1149
      4 N         -13.8827   -0.0785   18.4226 N.am    1  UNL1       -0.2744
      5 C         -14.6140    1.2294   18.3540 C.2     1  UNL1        0.2506
      6 O         -13.8521    2.5046   18.1458 O.2     1  UNL1       -0.2727
      7 C         -12.3896   -0.1111   18.2830 C.3     1  UNL1        0.1149
      8 C         -11.6583   -1.4190   18.3516 C.3     1  UNL1        0.1123
      9 C         -11.6846   -6.5914   18.4150 C.ar    1  UNL1        0.1504
     10 C         -12.4158   -5.2836   18.3464 C.ar    1  UNL1        0.0523
     11 C         -11.6889   -4.0022   18.6284 C.ar    1  UNL1        0.0510
     12 C         -10.2307   -4.0287   18.9791 C.ar    1  UNL1        0.0156
     13 C          -9.4995   -5.3365   19.0477 C.ar    1  UNL1        0.0157
     14 C         -10.2265   -6.6179   18.7656 C.ar    1  UNL1        0.0916
     15 CL         -9.4952   -7.9259   18.8342 Cl      1  UNL1       -0.0791
     16 C         -13.8937   -7.9572   18.3476 C.3     1  UNL1        0.2525
     17 O         -12.4116   -7.8728   18.1329 O.3     1  UNL1       -0.4705
     18 C         -16.1071    1.2620   18.4936 C.3     1  UNL1        0.2116
     19 N         -16.7357    1.9497   19.6691 N.ar    1  UNL1       -0.2447
     20 N         -17.2000    1.2883   20.9328 N.ar    1  UNL1       -0.1642
     21 C         -17.7615    2.3494   21.8321 C.ar    1  UNL1        0.1837
     22 C         -17.6442    3.6667   21.1242 C.ar    1  UNL1        0.0941
     23 CL        -18.0838    4.9973   21.6591 Cl      1  UNL1       -0.0795
     24 C         -17.0102    3.4196   19.7874 C.ar    1  UNL1        0.0685
     25 C         -16.7044    4.4599   18.7509 C.3     1  UNL1        0.0527
     26 C         -18.3390    2.1315   23.1992 C.3     1  UNL1        0.4373
     27 F         -18.9165    1.9136   24.5664 F       1  UNL1       -0.1643
     28 F         -19.7233    2.2432   22.6323 F       1  UNL1       -0.1643
     29 F         -16.9547    2.0198   23.7661 F       1  UNL1       -0.1643
@<TRIPOS>BOND
     1    16    17    1
     2    17     9    1
     3     9    10   ar
     4    10    11   ar
     5    11     1    1
     6     1     2    1
     7     2     3    1
     8     3     4    1
     9     4     5   am
    10     5     6    2
    11     5    18    1
    12    18    19    1
    13    19    20   ar
    14    20    21   ar
    15    21    26    1
    16    26    27    1
    17    26    28    1
    18    26    29    1
    19    21    22   ar
    20    22    23    1
    21    22    24   ar
    22    24    25    1
    23     4     7    1
    24     7     8    1
    25    11    12   ar
    26    12    13   ar
    27    13    14   ar
    28    14    15    1
    29    14     9   ar
    30     8     1    1
    31    24    19   ar
@<TRIPOS>MOLECULE
*****
 29 31 0 0 0
SMALL
GASTEIGER

@<TRIPOS>ATOM
      1 N          -5.5253  -19.0413   20.8778 N.pl3   1  UNL1       -0.3040
      2 C          -6.1369  -18.7524   22.2166 C.3     1  UNL1        0.1123
      3 C          -7.6134  -18.9229   22.4191 C.3     1  UNL1        0.1149
      4 N          -8.4782  -19.3823   21.2828 N.am    1  UNL1       -0.2744
      5 C          -9.9546  -19.5528   21.4853 C.2     1  UNL1        0.2506
      6 O         -10.8194  -20.0121   20.3490 O.2     1  UNL1       -0.2727
      7 C          -7.8665  -19.6711   19.9440 C.3     1  UNL1        0.1149
      8 C          -6.3900  -19.5006   19.7415 C.3     1  UNL1        0.1123
      9 C          -2.0386  -18.3299   19.1208 C.ar    1  UNL1        0.1504
     10 C          -3.5150  -18.5004   19.3233 C.ar    1  UNL1        0.0523
     11 C          -4.0487  -18.8708   20.6753 C.ar    1  UNL1        0.0510
     12 C          -3.1061  -19.0707   21.8248 C.ar    1  UNL1        0.0156
     13 C          -1.6297  -18.9002   21.6223 C.ar    1  UNL1        0.0157
     14 C          -1.0959  -18.5298   20.2703 C.ar    1  UNL1        0.0916
     15 CL          0.3806  -18.3593   20.0678 Cl      1  UNL1       -0.0791
     16 C          -2.3213  -17.0999   16.8499 C.3     1  UNL1        0.2525
     17 O          -1.5048  -17.9595   17.7688 O.3     1  UNL1       -0.4705
     18 C         -10.5663  -19.2639   22.8241 C.3     1  UNL1        0.2116
     19 N          -9.9954  -18.1817   23.6918 N.ar    1  UNL1       -0.2447
     20 N          -9.4120  -18.3656   25.0614 N.ar    1  UNL1       -0.1642
     21 C          -8.9637  -17.0232   25.5583 C.ar    1  UNL1        0.1837
     22 C          -9.2699  -16.0096   24.4958 C.ar    1  UNL1        0.0941
     23 CL         -8.9881  -14.5384   24.5732 Cl      1  UNL1       -0.0795
     24 C          -9.9076  -16.7257   23.3422 C.ar    1  UNL1        0.0685
     25 C         -10.3753  -16.0961   22.0636 C.3     1  UNL1        0.0527
     26 C          -8.3217  -16.7434   26.8848 C.3     1  UNL1        0.4373
     27 F          -7.6798  -16.4637   28.2114 F       1  UNL1       -0.1643
     28 F          -7.2118  -16.0091   26.1928 F       1  UNL1       -0.1643
     29 F          -9.4317  -17.4777   27.5768 F       1  UNL1       -0.1643
@<TRIPOS>BOND
     1    16    17    1
     2    17     9    1
     3     9    10   ar
     4    10    11   ar
     5    11     1    1
     6     1     2    1
     7     2     3    1
     8     3     4    1
     9     4     5   am
    10     5     6    2
    11     5    18    1
    12    18    19    1
    13    19    20   ar
    14    20    21   ar
    15    21    26    1
    16    26    27    1
    17    26    28    1
    18    26    29    1
    19    21    22   ar
    20    22    23    1
    21    22    24   ar
    22    24    25    1
    23     4     7    1
    24     7     8    1
    25    11    12   ar
    26    12    13   ar
    27    13    14   ar
    28    14    15    1
    29    14     9   ar
    30     8     1    1
    31    24    19   ar
@<TRIPOS>MOLECULE
*****
 29 31 0 0 0
SMALL
GASTEIGER

@<TRIPOS>ATOM
      1 N           1.3247    1.7035   23.9890 N.pl3   1  UNL1       -0.3040
      2 C           2.6831    1.3429   23.4649 C.3     1  UNL1        0.1123
      3 C           2.8921    1.1511   21.9920 C.3     1  UNL1        0.1149
      4 N           1.7427    1.3199   21.0431 N.am    1  UNL1       -0.2744
      5 C           1.9517    1.1281   19.5702 C.2     1  UNL1        0.2506
      6 O           0.8022    1.2969   18.6214 O.2     1  UNL1       -0.2727
      7 C           0.3842    1.6805   21.5672 C.3     1  UNL1        0.1149
      8 C           0.1752    1.8723   23.0402 C.3     1  UNL1        0.1123
      9 C          -0.2944    1.4895   27.6060 C.ar    1  UNL1        0.1504
     10 C          -0.0854    1.2978   26.1331 C.ar    1  UNL1        0.0523
     11 C           1.1157    1.8953   25.4620 C.ar    1  UNL1        0.0510
     12 C           2.1078    2.6845   26.2637 C.ar    1  UNL1        0.0156
     13 C           1.8988    2.8762   27.7366 C.ar    1  UNL1        0.0157
     14 C           0.6977    2.2788   28.4078 C.ar    1  UNL1        0.0916
     15 CL          0.4887    2.4706   29.8808 Cl      1  UNL1       -0.0791
     16 C          -1.4120   -0.4772   28.8837 C.3     1  UNL1        0.2525
     17 O          -1.4955    0.8921   28.2772 O.3     1  UNL1       -0.4705
     18 C           3.3101    0.7675   19.0461 C.3     1  UNL1        0.2116
     19 N           3.8544   -0.6136   19.2606 N.ar    1  UNL1       -0.2447
     20 N           3.0457   -1.8482   19.5285 N.ar    1  UNL1       -0.1642
     21 C           3.9944   -3.0004   19.6783 C.ar    1  UNL1        0.1837
     22 C           5.3896   -2.4778   19.5030 C.ar    1  UNL1        0.0941
     23 CL          6.6499   -3.2881   19.5735 Cl      1  UNL1       -0.0795
     24 C           5.3030   -1.0028   19.2448 C.ar    1  UNL1        0.0685
     25 C           6.4616   -0.0790   19.0118 C.3     1  UNL1        0.0527
     26 C           3.6148   -4.4249   19.9549 C.3     1  UNL1        0.4373
     27 F           3.2351   -5.8495   20.2315 F       1  UNL1       -0.1643
     28 F           3.0268   -4.5353   18.5793 F       1  UNL1       -0.1643
     29 F           4.2027   -4.3146   21.3305 F       1  UNL1       -0.1643
@<TRIPOS>BOND
     1    16    17    1
     2    17     9    1
     3     9    10   ar
     4    10    11   ar
     5    11     1    1
     6     1     2    1
     7     2     3    1
     8     3     4    1
     9     4     5   am
    10     5     6    2
    11     5    18    1
    12    18    19    1
    13    19    20   ar
    14    20    21   ar
    15    21    26    1
    16    26    27    1
    17    26    28    1
    18    26    29    1
    19    21    22   ar
    20    22    23    1
    21    22    24   ar
    22    24    25    1
    23     4     7    1
    24     7     8    1
    25    11    12   ar
    26    12    13   ar
    27    13    14   ar
    28    14    15    1
    29    14     9   ar
    30     8     1    1
    31    24    19   ar
@<TRIPOS>MOLECULE
*****
 29 31 0 0 0
SMALL
GASTEIGER

@<TRIPOS>ATOM
      1 N           2.2313    0.0285   20.7554 N.pl3   1  UNL1       -0.3040
      2 C           1.6836    1.1430   21.5968 C.3     1  UNL1        0.1123
      3 C           0.8272    2.2038   20.9714 C.3     1  UNL1        0.1149
      4 N           0.5183    2.1501   19.5045 N.am    1  UNL1       -0.2744
      5 C          -0.3382    3.2108   18.8790 C.2     1  UNL1        0.2506
      6 O          -0.6470    3.1571   17.4122 O.2     1  UNL1       -0.2727
      7 C           1.0659    1.0356   18.6631 C.3     1  UNL1        0.1149
      8 C           1.9225   -0.0252   19.2886 C.3     1  UNL1        0.1123
      9 C           4.3909   -3.2721   21.1938 C.ar    1  UNL1        0.1504
     10 C           3.5345   -2.2113   20.5683 C.ar    1  UNL1        0.0523
     11 C           3.0878   -1.0323   21.3810 C.ar    1  UNL1        0.0510
     12 C           3.4976   -0.9140   22.8190 C.ar    1  UNL1        0.0156
     13 C           4.3540   -1.9747   23.4444 C.ar    1  UNL1        0.0157
     14 C           4.8007   -3.1538   22.6318 C.ar    1  UNL1        0.0916
     15 CL          5.6572   -4.2146   23.2574 Cl      1  UNL1       -0.0791
     16 C           4.7155   -4.4214   18.8865 C.3     1  UNL1        0.2525
     17 O           4.8376   -4.4511   20.3812 O.3     1  UNL1       -0.4705
     18 C          -0.8858    4.3253   19.7204 C.3     1  UNL1        0.2116
     19 N          -2.1936    4.1531   20.4345 N.ar    1  UNL1       -0.2447
     20 N          -2.3713    3.9287   21.9069 N.ar    1  UNL1       -0.1642
     21 C          -3.8409    3.8119   22.1839 C.ar    1  UNL1        0.1837
     22 C          -4.5714    3.9640   20.8827 C.ar    1  UNL1        0.0941
     23 CL         -6.0589    3.9141   20.6955 Cl      1  UNL1       -0.0795
     24 C          -3.5533    4.1749   19.8015 C.ar    1  UNL1        0.0685
     25 C          -3.8440    4.3728   18.3433 C.3     1  UNL1        0.0527
     26 C          -4.4695    3.5831   23.5265 C.3     1  UNL1        0.4373
     27 F          -5.0982    3.3543   24.8691 F       1  UNL1       -0.1643
     28 F          -3.9684    4.9191   23.9889 F       1  UNL1       -0.1643
     29 F          -4.9707    2.2470   23.0641 F       1  UNL1       -0.1643
@<TRIPOS>BOND
     1    16    17    1
     2    17     9    1
     3     9    10   ar
     4    10    11   ar
     5    11     1    1
     6     1     2    1
     7     2     3    1
     8     3     4    1
     9     4     5   am
    10     5     6    2
    11     5    18    1
    12    18    19    1
    13    19    20   ar
    14    20    21   ar
    15    21    26    1
    16    26    27    1
    17    26    28    1
    18    26    29    1
    19    21    22   ar
    20    22    23    1
    21    22    24   ar
    22    24    25    1
    23     4     7    1
    24     7     8    1
    25    11    12   ar
    26    12    13   ar
    27    13    14   ar
    28    14    15    1
    29    14     9   ar
    30     8     1    1
    31    24    19   ar
