@<TRIPOS>MOLECULE
*****
 26 29 0 0 0
SMALL
GASTEIGER

@<TRIPOS>ATOM
      1 C          -2.7934  -19.0995   21.3307 C.ar    1  UNL1       -0.0209
      2 C          -4.0401  -19.8409   20.9490 C.ar    1  UNL1       -0.0041
      3 C          -5.3725  -19.3830   21.4640 C.ar    1  UNL1        0.0048
      4 C          -5.4580  -18.1836   22.3607 C.ar    1  UNL1        0.0623
      5 C          -4.2112  -17.4422   22.7424 C.ar    1  UNL1        0.0771
      6 C          -2.8789  -17.9001   22.2274 C.ar    1  UNL1        0.0125
      7 N          -4.2967  -16.2427   23.6391 N.am    1  UNL1       -0.1721
      8 C          -5.6290  -15.7848   24.1542 C.2     1  UNL1        0.3160
      9 O          -5.7145  -14.5854   25.0509 O.2     1  UNL1       -0.2638
     10 C          -6.8758  -16.5263   23.7724 C.2     1  UNL1        0.2907
     11 N          -8.3184  -16.3113   24.1228 N.2     1  UNL1       -0.0256
     12 C          -9.1245  -17.3779   23.4425 C.2     1  UNL1        0.3765
     13 N          -8.1800  -18.2520   22.6718 N.2     1  UNL1       -0.0302
     14 C          -6.7903  -17.7257   22.8757 C.2     1  UNL1        0.2419
     15 C         -10.6136  -17.5416   23.5195 C.ar    1  UNL1        0.0989
     16 C         -11.5088  -16.6516   22.7094 C.ar    1  UNL1        0.0085
     17 C         -12.9978  -16.8153   22.7864 C.ar    1  UNL1        0.0003
     18 C         -13.5916  -17.8690   23.6735 C.ar    1  UNL1        0.0009
     19 C         -12.6964  -18.7590   24.4837 C.ar    1  UNL1        0.0116
     20 C         -11.2074  -18.5953   24.4067 C.ar    1  UNL1        0.0651
     21 CL        -10.3120  -19.4854   25.2168 Cl      1  UNL1       -0.0820
     22 C          -1.4611  -19.5574   20.8156 C.3     1  UNL1        0.0264
     23 C          -0.4212  -18.5494   20.4250 C.3     1  UNL1        0.0047
     24 C          -0.7176  -17.5429   19.3530 C.3     1  UNL1        0.0003
     25 C          -3.0647  -17.0405   18.3585 C.3     1  UNL1        0.0000
     26 C          -1.7847  -17.8223   18.3364 C.3     1  UNL1        0.0000
@<TRIPOS>BOND
     1    25    26    1
     2    26    24    1
     3    24    23    1
     4    23    22    1
     5    22     1    1
     6     1     2   ar
     7     2     3   ar
     8     3     4   ar
     9     4     5   ar
    10     5     6   ar
    11     5     7    2
    12     7     8    1
    13     8     9    2
    14     8    10    1
    15    10    11    2
    16    11    12    1
    17    12    15    1
    18    15    16   ar
    19    16    17   ar
    20    17    18   ar
    21    18    19   ar
    22    19    20   ar
    23    20    21    1
    24    12    13    2
    25    13    14    1
    26     6     1   ar
    27    14    10    1
    28    14     4    2
    29    20    15   ar
@<TRIPOS>MOLECULE
*****
 26 29 0 0 0
SMALL
GASTEIGER

@<TRIPOS>ATOM
      1 C         -10.5936  -18.2736   23.7756 C.ar    1  UNL1       -0.0209
      2 C          -9.8625  -19.0323   22.7080 C.ar    1  UNL1       -0.0041
      3 C          -8.4141  -18.7464   22.4429 C.ar    1  UNL1        0.0048
      4 C          -7.6967  -17.7017   23.2454 C.ar    1  UNL1        0.0623
      5 C          -8.4278  -16.9430   24.3130 C.ar    1  UNL1        0.0771
      6 C          -9.8762  -17.2289   24.5781 C.ar    1  UNL1        0.0125
      7 N          -7.7104  -15.8983   25.1156 N.am    1  UNL1       -0.1721
      8 C          -6.2620  -15.6123   24.8505 C.2     1  UNL1        0.3160
      9 O          -5.5446  -14.5677   25.6529 O.2     1  UNL1       -0.2638
     10 C          -5.5309  -16.3712   23.7828 C.2     1  UNL1        0.2907
     11 N          -4.1125  -16.3079   23.2991 N.2     1  UNL1       -0.0256
     12 C          -3.9532  -17.3136   22.1975 C.2     1  UNL1        0.3765
     13 N          -5.2732  -17.9983   22.0005 N.2     1  UNL1       -0.0302
     14 C          -6.2483  -17.4158   22.9803 C.2     1  UNL1        0.2419
     15 C          -2.6948  -17.5866   21.4281 C.ar    1  UNL1        0.0989
     16 C          -1.7214  -16.4763   21.1641 C.ar    1  UNL1        0.0085
     17 C          -0.4630  -16.7493   20.3947 C.ar    1  UNL1        0.0003
     18 C          -0.1782  -18.1326   19.8892 C.ar    1  UNL1        0.0009
     19 C          -1.1516  -19.2428   20.1532 C.ar    1  UNL1        0.0116
     20 C          -2.4100  -18.9698   20.9226 C.ar    1  UNL1        0.0651
     21 CL         -3.3835  -20.0801   21.1866 Cl      1  UNL1       -0.0820
     22 C         -12.0420  -18.5595   24.0407 C.3     1  UNL1        0.0264
     23 C         -13.1039  -17.7877   23.3150 C.3     1  UNL1        0.0047
     24 C         -12.7338  -16.5765   22.5113 C.3     1  UNL1        0.0003
     25 C         -11.1067  -16.2275   20.5160 C.3     1  UNL1        0.0000
     26 C         -12.4219  -16.7123   21.0504 C.3     1  UNL1        0.0000
@<TRIPOS>BOND
     1    25    26    1
     2    26    24    1
     3    24    23    1
     4    23    22    1
     5    22     1    1
     6     1     2   ar
     7     2     3   ar
     8     3     4   ar
     9     4     5   ar
    10     5     6   ar
    11     5     7    2
    12     7     8    1
    13     8     9    2
    14     8    10    1
    15    10    11    2
    16    11    12    1
    17    12    15    1
    18    15    16   ar
    19    16    17   ar
    20    17    18   ar
    21    18    19   ar
    22    19    20   ar
    23    20    21    1
    24    12    13    2
    25    13    14    1
    26     6     1   ar
    27    14    10    1
    28    14     4    2
    29    20    15   ar
@<TRIPOS>MOLECULE
*****
 26 29 0 0 0
SMALL
GASTEIGER

@<TRIPOS>ATOM
      1 C         -11.1726  -18.8401   23.7261 C.ar    1  UNL1       -0.0209
      2 C          -9.8767  -18.3243   24.2779 C.ar    1  UNL1       -0.0041
      3 C          -8.6308  -18.3823   23.4448 C.ar    1  UNL1        0.0048
      4 C          -8.6807  -18.9561   22.0598 C.ar    1  UNL1        0.0623
      5 C          -9.9766  -19.4718   21.5079 C.ar    1  UNL1        0.0771
      6 C         -11.2226  -19.4138   22.3411 C.ar    1  UNL1        0.0125
      7 N         -10.0266  -20.0456   20.1229 N.am    1  UNL1       -0.1721
      8 C          -8.7807  -20.1036   19.2897 C.2     1  UNL1        0.3160
      9 O          -8.8306  -20.6774   17.9047 O.2     1  UNL1       -0.2638
     10 C          -7.4847  -19.5878   19.8416 C.2     1  UNL1        0.2907
     11 N          -6.1044  -19.5138   19.2590 N.2     1  UNL1       -0.0256
     12 C          -5.2014  -18.8942   20.2841 C.2     1  UNL1        0.3765
     13 N          -6.0236  -18.5854   21.5001 N.2     1  UNL1       -0.0302
     14 C          -7.4347  -19.0141   21.2266 C.2     1  UNL1        0.2419
     15 C          -3.7338  -18.6299   20.1216 C.ar    1  UNL1        0.0989
     16 C          -3.2191  -18.0087   18.8571 C.ar    1  UNL1        0.0085
     17 C          -1.7515  -17.7444   18.6947 C.ar    1  UNL1        0.0003
     18 C          -0.7987  -18.1014   19.7968 C.ar    1  UNL1        0.0009
     19 C          -1.3134  -18.7226   21.0613 C.ar    1  UNL1        0.0116
     20 C          -2.7809  -18.9869   21.2238 C.ar    1  UNL1        0.0651
     21 CL         -3.2957  -19.6081   22.4884 Cl      1  UNL1       -0.0820
     22 C         -12.4186  -18.7821   24.5593 C.3     1  UNL1        0.0264
     23 C         -13.5635  -17.9100   24.1367 C.3     1  UNL1        0.0047
     24 C         -13.4866  -17.1424   22.8503 C.3     1  UNL1        0.0003
     25 C         -11.5582  -15.9551   21.5768 C.3     1  UNL1        0.0000
     26 C         -12.5307  -15.9940   22.7183 C.3     1  UNL1        0.0000
@<TRIPOS>BOND
     1    25    26    1
     2    26    24    1
     3    24    23    1
     4    23    22    1
     5    22     1    1
     6     1     2   ar
     7     2     3   ar
     8     3     4   ar
     9     4     5   ar
    10     5     6   ar
    11     5     7    2
    12     7     8    1
    13     8     9    2
    14     8    10    1
    15    10    11    2
    16    11    12    1
    17    12    15    1
    18    15    16   ar
    19    16    17   ar
    20    17    18   ar
    21    18    19   ar
    22    19    20   ar
    23    20    21    1
    24    12    13    2
    25    13    14    1
    26     6     1   ar
    27    14    10    1
    28    14     4    2
    29    20    15   ar
@<TRIPOS>MOLECULE
*****
 26 29 0 0 0
SMALL
GASTEIGER

@<TRIPOS>ATOM
      1 C          -4.1345  -19.4969   20.9267 C.ar    1  UNL1       -0.0209
      2 C          -5.4020  -20.2386   20.6214 C.ar    1  UNL1       -0.0041
      3 C          -6.6980  -19.7913   21.2300 C.ar    1  UNL1        0.0048
      4 C          -6.7264  -18.6022   22.1440 C.ar    1  UNL1        0.0623
      5 C          -5.4589  -17.8605   22.4493 C.ar    1  UNL1        0.0771
      6 C          -4.1630  -18.3078   21.8406 C.ar    1  UNL1        0.0125
      7 N          -5.4873  -16.6714   23.3633 N.am    1  UNL1       -0.1721
      8 C          -6.7832  -16.2241   23.9720 C.2     1  UNL1        0.3160
      9 O          -6.8117  -15.0351   24.8859 O.2     1  UNL1       -0.2638
     10 C          -8.0508  -16.9659   23.6666 C.2     1  UNL1        0.2907
     11 N          -9.4671  -16.7601   24.1156 N.2     1  UNL1       -0.0256
     12 C         -10.3140  -17.8220   23.4791 C.2     1  UNL1        0.3765
     13 N          -9.4211  -18.6840   22.6368 N.2     1  UNL1       -0.0302
     14 C          -8.0223  -18.1549   22.7526 C.2     1  UNL1        0.2419
     15 C         -11.7941  -17.9920   23.6543 C.ar    1  UNL1        0.0989
     16 C         -12.3469  -18.4347   24.9765 C.ar    1  UNL1        0.0085
     17 C         -13.8269  -18.6047   25.1516 C.ar    1  UNL1        0.0003
     18 C         -14.7541  -18.3319   24.0045 C.ar    1  UNL1        0.0009
     19 C         -14.2013  -17.8891   22.6823 C.ar    1  UNL1        0.0116
     20 C         -12.7213  -17.7192   22.5072 C.ar    1  UNL1        0.0651
     21 CL        -12.1684  -17.2764   21.1849 Cl      1  UNL1       -0.0820
     22 C          -2.8386  -19.9442   20.3180 C.3     1  UNL1        0.0264
     23 C          -2.0520  -19.0040   19.4535 C.3     1  UNL1        0.0047
     24 C          -0.8705  -18.2744   20.0207 C.3     1  UNL1        0.0003
     25 C          -1.6635  -16.2414   21.4307 C.3     1  UNL1        0.0000
     26 C          -0.9384  -16.7918   20.2385 C.3     1  UNL1        0.0000
@<TRIPOS>BOND
     1    25    26    1
     2    26    24    1
     3    24    23    1
     4    23    22    1
     5    22     1    1
     6     1     2   ar
     7     2     3   ar
     8     3     4   ar
     9     4     5   ar
    10     5     6   ar
    11     5     7    2
    12     7     8    1
    13     8     9    2
    14     8    10    1
    15    10    11    2
    16    11    12    1
    17    12    15    1
    18    15    16   ar
    19    16    17   ar
    20    17    18   ar
    21    18    19   ar
    22    19    20   ar
    23    20    21    1
    24    12    13    2
    25    13    14    1
    26     6     1   ar
    27    14    10    1
    28    14     4    2
    29    20    15   ar
@<TRIPOS>MOLECULE
*****
 26 29 0 0 0
SMALL
GASTEIGER

@<TRIPOS>ATOM
      1 C         -10.6971   -4.6375   18.7115 C.ar    1  UNL1       -0.0209
      2 C         -11.9730   -4.9769   19.4233 C.ar    1  UNL1       -0.0041
      3 C         -13.0367   -3.9333   19.5947 C.ar    1  UNL1        0.0048
      4 C         -12.8244   -2.5502   19.0543 C.ar    1  UNL1        0.0623
      5 C         -11.5484   -2.2108   18.3426 C.ar    1  UNL1        0.0771
      6 C         -10.4848   -3.2545   18.1712 C.ar    1  UNL1        0.0125
      7 N         -11.3361   -0.8277   17.8021 N.am    1  UNL1       -0.1721
      8 C         -12.3997    0.2160   17.9735 C.2     1  UNL1        0.3160
      9 O         -12.1874    1.5990   17.4332 O.2     1  UNL1       -0.2638
     10 C         -13.6758   -0.1235   18.6853 C.2     1  UNL1        0.2907
     11 N         -14.8948    0.6906   19.0032 N.2     1  UNL1       -0.0256
     12 C         -15.8606   -0.1893   19.7402 C.2     1  UNL1        0.3765
     13 N         -15.2384   -1.5472   19.8776 N.2     1  UNL1       -0.0302
     14 C         -13.8881   -1.5066   19.2257 C.2     1  UNL1        0.2419
     15 C         -17.2114    0.2173   20.2501 C.ar    1  UNL1        0.0989
     16 C         -17.3285    1.2948   21.2870 C.ar    1  UNL1        0.0085
     17 C         -18.6793    1.7013   21.7969 C.ar    1  UNL1        0.0003
     18 C         -19.9130    1.0305   21.2697 C.ar    1  UNL1        0.0009
     19 C         -19.7960   -0.0470   20.2328 C.ar    1  UNL1        0.0116
     20 C         -18.4452   -0.4536   19.7229 C.ar    1  UNL1        0.0651
     21 CL        -18.3280   -1.5311   18.6859 Cl      1  UNL1       -0.0820
     22 C          -9.6334   -5.6812   18.5401 C.3     1  UNL1        0.0264
     23 C          -9.9391   -7.1194   18.8366 C.3     1  UNL1        0.0047
     24 C         -10.2704   -8.0619   17.7177 C.3     1  UNL1        0.0003
     25 C         -12.7983   -7.7783   17.1889 C.3     1  UNL1        0.0000
     26 C         -11.3650   -7.7219   16.7500 C.3     1  UNL1        0.0000
@<TRIPOS>BOND
     1    25    26    1
     2    26    24    1
     3    24    23    1
     4    23    22    1
     5    22     1    1
     6     1     2   ar
     7     2     3   ar
     8     3     4   ar
     9     4     5   ar
    10     5     6   ar
    11     5     7    2
    12     7     8    1
    13     8     9    2
    14     8    10    1
    15    10    11    2
    16    11    12    1
    17    12    15    1
    18    15    16   ar
    19    16    17   ar
    20    17    18   ar
    21    18    19   ar
    22    19    20   ar
    23    20    21    1
    24    12    13    2
    25    13    14    1
    26     6     1   ar
    27    14    10    1
    28    14     4    2
    29    20    15   ar
@<TRIPOS>MOLECULE
*****
 26 29 0 0 0
SMALL
GASTEIGER

@<TRIPOS>ATOM
      1 C           3.3779   -0.2821   18.8784 C.ar    1  UNL1       -0.0209
      2 C           2.2550   -0.8231   19.7129 C.ar    1  UNL1       -0.0041
      3 C           1.0901    0.0548   20.0626 C.ar    1  UNL1        0.0048
      4 C           1.0480    1.4736   19.5778 C.ar    1  UNL1        0.0623
      5 C           2.1709    2.0146   18.7433 C.ar    1  UNL1        0.0771
      6 C           3.3358    1.1367   18.3936 C.ar    1  UNL1        0.0125
      7 N           2.1289    3.4335   18.2585 N.am    1  UNL1       -0.1721
      8 C           0.9640    4.3114   18.6082 C.2     1  UNL1        0.3160
      9 O           0.9219    5.7302   18.1234 O.2     1  UNL1       -0.2638
     10 C          -0.1589    3.7703   19.4428 C.2     1  UNL1        0.2907
     11 N          -1.4281    4.3938   19.9432 N.2     1  UNL1       -0.0256
     12 C          -2.1705    3.3602   20.7373 C.2     1  UNL1        0.3765
     13 N          -1.3601    2.0980   20.7276 N.2     1  UNL1       -0.0302
     14 C          -0.1169    2.3515   19.9276 C.2     1  UNL1        0.2419
     15 C          -3.4914    3.5547   21.4210 C.ar    1  UNL1        0.0989
     16 C          -3.5651    3.5725   22.9191 C.ar    1  UNL1        0.0085
     17 C          -4.8859    3.7670   23.6028 C.ar    1  UNL1        0.0003
     18 C          -6.1331    3.9438   22.7884 C.ar    1  UNL1        0.0009
     19 C          -6.0595    3.9260   21.2903 C.ar    1  UNL1        0.0116
     20 C          -4.7386    3.7315   20.6067 C.ar    1  UNL1        0.0651
     21 CL         -4.6649    3.7137   19.1085 Cl      1  UNL1       -0.0820
     22 C           4.5428   -1.1600   18.5287 C.3     1  UNL1        0.0264
     23 C           4.9343   -2.2851   19.4401 C.3     1  UNL1        0.0047
     24 C           5.4598   -3.5673   18.8658 C.3     1  UNL1        0.0003
     25 C           3.1263   -4.6686   19.1697 C.3     1  UNL1        0.0000
     26 C           4.5761   -4.7777   18.8005 C.3     1  UNL1        0.0000
@<TRIPOS>BOND
     1    25    26    1
     2    26    24    1
     3    24    23    1
     4    23    22    1
     5    22     1    1
     6     1     2   ar
     7     2     3   ar
     8     3     4   ar
     9     4     5   ar
    10     5     6   ar
    11     5     7    2
    12     7     8    1
    13     8     9    2
    14     8    10    1
    15    10    11    2
    16    11    12    1
    17    12    15    1
    18    15    16   ar
    19    16    17   ar
    20    17    18   ar
    21    18    19   ar
    22    19    20   ar
    23    20    21    1
    24    12    13    2
    25    13    14    1
    26     6     1   ar
    27    14    10    1
    28    14     4    2
    29    20    15   ar
@<TRIPOS>MOLECULE
*****
 26 29 0 0 0
SMALL
GASTEIGER

@<TRIPOS>ATOM
      1 C          -0.8551    2.6424   25.3260 C.ar    1  UNL1       -0.0209
      2 C           0.1456    1.5360   25.4821 C.ar    1  UNL1       -0.0041
      3 C           0.8227    0.9611   24.2733 C.ar    1  UNL1        0.0048
      4 C           0.4990    1.4925   22.9085 C.ar    1  UNL1        0.0623
      5 C          -0.5017    2.5989   22.7525 C.ar    1  UNL1        0.0771
      6 C          -1.1788    3.1738   23.9613 C.ar    1  UNL1        0.0125
      7 N          -0.8255    3.1305   21.3876 N.am    1  UNL1       -0.1721
      8 C          -0.1484    2.5556   20.1789 C.2     1  UNL1        0.3160
      9 O          -0.4721    3.0871   18.8141 O.2     1  UNL1       -0.2638
     10 C           0.8523    1.4491   20.3350 C.2     1  UNL1        0.2907
     11 N           1.6735    0.6902   19.3352 N.2     1  UNL1       -0.0256
     12 C           2.5048   -0.3104   20.0821 C.2     1  UNL1        0.3765
     13 N           2.1973   -0.1698   21.5435 N.2     1  UNL1       -0.0302
     14 C           1.1760    0.9176   21.6998 C.2     1  UNL1        0.2419
     15 C           3.4735   -1.2811   19.4742 C.ar    1  UNL1        0.0989
     16 C           3.2033   -2.7548   19.5464 C.ar    1  UNL1        0.0085
     17 C           4.1720   -3.7254   18.9386 C.ar    1  UNL1        0.0003
     18 C           5.4108   -3.2224   18.2586 C.ar    1  UNL1        0.0009
     19 C           5.6809   -1.7487   18.1865 C.ar    1  UNL1        0.0116
     20 C           4.7123   -0.7781   18.7943 C.ar    1  UNL1        0.0651
     21 CL          4.9824    0.6957   18.7221 Cl      1  UNL1       -0.0820
     22 C          -1.5321    3.2173   26.5348 C.3     1  UNL1        0.0264
     23 C          -2.5643    4.2938   26.3753 C.3     1  UNL1        0.0047
     24 C          -4.0212    3.9614   26.5061 C.3     1  UNL1        0.0003
     25 C          -4.8351    3.2110   24.1556 C.3     1  UNL1        0.0000
     26 C          -4.9386    4.1357   25.3322 C.3     1  UNL1        0.0000
@<TRIPOS>BOND
     1    25    26    1
     2    26    24    1
     3    24    23    1
     4    23    22    1
     5    22     1    1
     6     1     2   ar
     7     2     3   ar
     8     3     4   ar
     9     4     5   ar
    10     5     6   ar
    11     5     7    2
    12     7     8    1
    13     8     9    2
    14     8    10    1
    15    10    11    2
    16    11    12    1
    17    12    15    1
    18    15    16   ar
    19    16    17   ar
    20    17    18   ar
    21    18    19   ar
    22    19    20   ar
    23    20    21    1
    24    12    13    2
    25    13    14    1
    26     6     1   ar
    27    14    10    1
    28    14     4    2
    29    20    15   ar
@<TRIPOS>MOLECULE
*****
 26 29 0 0 0
SMALL
GASTEIGER

@<TRIPOS>ATOM
      1 C           2.5875   -0.1632   19.1081 C.ar    1  UNL1       -0.0209
      2 C           2.2738   -0.3811   20.5587 C.ar    1  UNL1       -0.0041
      3 C           1.2431    0.4701   21.2392 C.ar    1  UNL1        0.0048
      4 C           0.5261    1.5392   20.4692 C.ar    1  UNL1        0.0623
      5 C           0.8398    1.7570   19.0187 C.ar    1  UNL1        0.0771
      6 C           1.8704    0.9058   18.3381 C.ar    1  UNL1        0.0125
      7 N           0.1227    2.8261   18.2486 N.am    1  UNL1       -0.1721
      8 C          -0.9080    3.6773   18.9291 C.2     1  UNL1        0.3160
      9 O          -1.6250    4.7464   18.1591 O.2     1  UNL1       -0.2638
     10 C          -1.2216    3.4594   20.3797 C.2     1  UNL1        0.2907
     11 N          -2.1813    4.1376   21.3119 N.2     1  UNL1       -0.0256
     12 C          -2.0575    3.4876   22.6581 C.2     1  UNL1        0.3765
     13 N          -1.0212    2.4078   22.5579 N.2     1  UNL1       -0.0302
     14 C          -0.5046    2.3904   21.1497 C.2     1  UNL1        0.2419
     15 C          -2.8337    3.8533   23.8885 C.ar    1  UNL1        0.0989
     16 C          -2.1506    4.5533   25.0257 C.ar    1  UNL1        0.0085
     17 C          -2.9268    4.9190   26.2561 C.ar    1  UNL1        0.0003
     18 C          -4.3861    4.5846   26.3492 C.ar    1  UNL1        0.0009
     19 C          -5.0692    3.8846   25.2120 C.ar    1  UNL1        0.0116
     20 C          -4.2930    3.5190   23.9816 C.ar    1  UNL1        0.0651
     21 CL         -4.9761    2.8189   22.8443 Cl      1  UNL1       -0.0820
     22 C           3.6182   -1.0145   18.4276 C.3     1  UNL1        0.0264
     23 C           4.2381   -2.1689   19.1575 C.3     1  UNL1        0.0047
     24 C           4.9127   -3.2667   18.3894 C.3     1  UNL1        0.0003
     25 C           3.4873   -5.0435   19.6390 C.3     1  UNL1        0.0000
     26 C           4.6207   -4.7009   18.7180 C.3     1  UNL1        0.0000
@<TRIPOS>BOND
     1    25    26    1
     2    26    24    1
     3    24    23    1
     4    23    22    1
     5    22     1    1
     6     1     2   ar
     7     2     3   ar
     8     3     4   ar
     9     4     5   ar
    10     5     6   ar
    11     5     7    2
    12     7     8    1
    13     8     9    2
    14     8    10    1
    15    10    11    2
    16    11    12    1
    17    12    15    1
    18    15    16   ar
    19    16    17   ar
    20    17    18   ar
    21    18    19   ar
    22    19    20   ar
    23    20    21    1
    24    12    13    2
    25    13    14    1
    26     6     1   ar
    27    14    10    1
    28    14     4    2
    29    20    15   ar
@<TRIPOS>MOLECULE
*****
 26 29 0 0 0
SMALL
GASTEIGER

@<TRIPOS>ATOM
      1 C         -10.6300   -4.9743   18.9176 C.ar    1  UNL1       -0.0209
      2 C         -10.2159   -3.5884   18.5205 C.ar    1  UNL1       -0.0041
      3 C         -11.2210   -2.4749   18.5252 C.ar    1  UNL1        0.0048
      4 C         -12.6402   -2.7474   18.9271 C.ar    1  UNL1        0.0623
      5 C         -13.0544   -4.1333   19.3242 C.ar    1  UNL1        0.0771
      6 C         -12.0492   -5.2467   19.3194 C.ar    1  UNL1        0.0125
      7 N         -14.4736   -4.4058   19.7261 N.am    1  UNL1       -0.1721
      8 C         -15.4787   -3.2924   19.7309 C.2     1  UNL1        0.3160
      9 O         -16.8979   -3.5649   20.1328 O.2     1  UNL1       -0.2638
     10 C         -15.0646   -1.9064   19.3338 C.2     1  UNL1        0.2907
     11 N         -15.8277   -0.6183   19.2426 N.2     1  UNL1       -0.0256
     12 C         -14.8800    0.4503   18.7843 C.2     1  UNL1        0.3765
     13 N         -13.5313   -0.1774   18.5923 N.2     1  UNL1       -0.0302
     14 C         -13.6454   -1.6340   18.9319 C.2     1  UNL1        0.2419
     15 C         -15.2213    1.8934   18.5578 C.ar    1  UNL1        0.0989
     16 C         -15.5114    2.7878   19.7264 C.ar    1  UNL1        0.0085
     17 C         -15.8527    4.2308   19.4999 C.ar    1  UNL1        0.0003
     18 C         -15.9037    4.7793   18.1047 C.ar    1  UNL1        0.0009
     19 C         -15.6135    3.8849   16.9361 C.ar    1  UNL1        0.0116
     20 C         -15.2723    2.4419   17.1626 C.ar    1  UNL1        0.0651
     21 CL        -14.9821    1.5474   15.9940 Cl      1  UNL1       -0.0820
     22 C          -9.6249   -6.0877   18.9128 C.3     1  UNL1        0.0264
     23 C         -10.0842   -7.5123   18.8149 C.3     1  UNL1        0.0047
     24 C         -10.2920   -8.1426   17.4697 C.3     1  UNL1        0.0003
     25 C         -12.8010   -7.9116   16.8360 C.3     1  UNL1        0.0000
     26 C         -11.3573   -7.6190   16.5526 C.3     1  UNL1        0.0000
@<TRIPOS>BOND
     1    25    26    1
     2    26    24    1
     3    24    23    1
     4    23    22    1
     5    22     1    1
     6     1     2   ar
     7     2     3   ar
     8     3     4   ar
     9     4     5   ar
    10     5     6   ar
    11     5     7    2
    12     7     8    1
    13     8     9    2
    14     8    10    1
    15    10    11    2
    16    11    12    1
    17    12    15    1
    18    15    16   ar
    19    16    17   ar
    20    17    18   ar
    21    18    19   ar
    22    19    20   ar
    23    20    21    1
    24    12    13    2
    25    13    14    1
    26     6     1   ar
    27    14    10    1
    28    14     4    2
    29    20    15   ar
