@<TRIPOS>MOLECULE
*****
 22 24 0 0 0
SMALL
GASTEIGER

@<TRIPOS>ATOM
      1 C         -10.3168  -17.3439   22.3301 C.3     1  UNL1        0.1894
      2 C          -9.8146  -18.2389   21.2361 C.ar    1  UNL1        0.0172
      3 C          -8.3695  -18.6394   21.1988 C.ar    1  UNL1       -0.0008
      4 C          -7.8673  -19.5344   20.1049 C.ar    1  UNL1       -0.0002
      5 C          -8.8101  -20.0290   19.0483 C.ar    1  UNL1       -0.0000
      6 C         -10.2553  -19.6285   19.0855 C.ar    1  UNL1       -0.0002
      7 C         -10.7575  -18.7335   20.1795 C.ar    1  UNL1       -0.0008
      8 C         -11.4546  -17.7891   23.2004 C.3     1  UNL1        0.0615
      9 C         -12.9047  -17.4700   22.9873 C.3     1  UNL1        0.0224
     10 C         -13.6884  -18.1152   24.0917 C.3     1  UNL1        0.0687
     11 N         -12.7225  -18.8331   24.9873 N.3     1  UNL1       -0.2973
     12 C         -11.3420  -18.6315   24.4363 C.3     1  UNL1        0.0725
     13 H         -12.9447  -19.8284   25.0088 H       1  UNL1        0.1232
     14 O          -9.6813  -16.0038   22.5538 O.3     1  UNL1       -0.4747
     15 CL         -4.6627  -15.6977   23.8655 Cl      1  UNL1       -0.0821
     16 C          -6.1106  -15.6894   24.2573 C.ar    1  UNL1        0.0615
     17 C          -6.4972  -15.5199   25.6966 C.ar    1  UNL1        0.0230
     18 C          -7.9451  -15.5116   26.0884 C.ar    1  UNL1        0.0615
     19 CL         -8.3317  -15.3421   27.5278 Cl      1  UNL1       -0.0821
     20 C          -9.0065  -15.6729   25.0408 C.ar    1  UNL1        0.0483
     21 C          -8.6199  -15.8425   23.6015 C.ar    1  UNL1        0.1405
     22 C          -7.1720  -15.8507   23.2097 C.ar    1  UNL1        0.0483
@<TRIPOS>BOND
     1    15    16    1
     2    16    17   ar
     3    17    18   ar
     4    18    19    1
     5    18    20   ar
     6    20    21   ar
     7    21    14    1
     8     1    14    1
     9     1     2    1
    10     2     3   ar
    11     3     4   ar
    12     4     5   ar
    13     5     6   ar
    14     6     7   ar
    15     1     8    1
    16     8     9    1
    17     9    10    1
    18    10    11    1
    19    11    12    1
    20    21    22   ar
    21    22    16   ar
    22     7     2   ar
    23    12     8    1
    24    11    13    1
@<TRIPOS>MOLECULE
*****
 22 24 0 0 0
SMALL
GASTEIGER

@<TRIPOS>ATOM
      1 C         -10.3045  -17.3483   22.3224 C.3     1  UNL1        0.1894
      2 C          -9.8076  -18.2452   21.2275 C.ar    1  UNL1        0.0172
      3 C         -10.7536  -18.7336   20.1708 C.ar    1  UNL1       -0.0008
      4 C         -10.2568  -19.6304   19.0759 C.ar    1  UNL1       -0.0002
      5 C          -8.8140  -20.0389   19.0377 C.ar    1  UNL1       -0.0000
      6 C          -7.8680  -19.5506   20.0944 C.ar    1  UNL1       -0.0002
      7 C          -8.3648  -18.6537   21.1893 C.ar    1  UNL1       -0.0008
      8 C         -11.4407  -17.7903   23.1964 C.3     1  UNL1        0.0615
      9 C         -12.8909  -17.4697   22.9863 C.3     1  UNL1        0.0224
     10 C         -13.6727  -18.1117   24.0939 C.3     1  UNL1        0.0687
     11 N         -12.7055  -18.8291   24.9884 N.3     1  UNL1       -0.2973
     12 C         -11.3261  -18.6305   24.4337 C.3     1  UNL1        0.0725
     13 H         -12.9290  -19.8240   25.0125 H       1  UNL1        0.1232
     14 O          -9.6651  -16.0096   22.5433 O.3     1  UNL1       -0.4747
     15 CL         -8.3282  -15.3438   27.5202 Cl      1  UNL1       -0.0821
     16 C          -7.9380  -15.5153   26.0821 C.ar    1  UNL1        0.0615
     17 C          -6.4891  -15.5254   25.6942 C.ar    1  UNL1        0.0230
     18 C          -6.0988  -15.6969   24.2561 C.ar    1  UNL1        0.0615
     19 CL         -4.6498  -15.7070   23.8682 Cl      1  UNL1       -0.0821
     20 C          -7.1575  -15.8583   23.2058 C.ar    1  UNL1        0.0483
     21 C          -8.6064  -15.8482   23.5937 C.ar    1  UNL1        0.1405
     22 C          -8.9966  -15.6767   25.0318 C.ar    1  UNL1        0.0483
@<TRIPOS>BOND
     1    15    16    1
     2    16    17   ar
     3    17    18   ar
     4    18    19    1
     5    18    20   ar
     6    20    21   ar
     7    21    14    1
     8     1    14    1
     9     1     2    1
    10     2     3   ar
    11     3     4   ar
    12     4     5   ar
    13     5     6   ar
    14     6     7   ar
    15     1     8    1
    16     8     9    1
    17     9    10    1
    18    10    11    1
    19    11    12    1
    20    21    22   ar
    21    22    16   ar
    22     7     2   ar
    23    12     8    1
    24    11    13    1
@<TRIPOS>MOLECULE
*****
 22 24 0 0 0
SMALL
GASTEIGER

@<TRIPOS>ATOM
      1 C          -7.6961  -18.0756   22.5926 C.3     1  UNL1        0.1894
      2 C          -6.3377  -18.5358   22.1534 C.ar    1  UNL1        0.0172
      3 C          -5.1210  -18.1320   22.9320 C.ar    1  UNL1       -0.0008
      4 C          -3.7625  -18.5922   22.4928 C.ar    1  UNL1       -0.0002
      5 C          -3.6209  -19.4561   21.2749 C.ar    1  UNL1       -0.0000
      6 C          -4.8377  -19.8600   20.4961 C.ar    1  UNL1       -0.0002
      7 C          -6.1961  -19.3998   20.9353 C.ar    1  UNL1       -0.0008
      8 C          -7.8411  -16.8008   23.3698 C.3     1  UNL1        0.0615
      9 C          -8.3391  -16.6796   24.7796 C.3     1  UNL1        0.0224
     10 C          -8.3193  -15.2273   25.1548 C.3     1  UNL1        0.0687
     11 N          -7.8092  -14.4511   23.9769 N.3     1  UNL1       -0.2973
     12 C          -7.5137  -15.4236   22.8738 C.3     1  UNL1        0.0725
     13 H          -6.9585  -13.9507   24.2343 H       1  UNL1        0.1232
     14 O          -8.9095  -18.8901   22.2547 O.3     1  UNL1       -0.4747
     15 CL        -11.9573  -15.7808   19.4185 Cl      1  UNL1       -0.0821
     16 C         -11.7540  -16.6586   20.6178 C.ar    1  UNL1        0.0615
     17 C         -12.8712  -16.8594   21.5983 C.ar    1  UNL1        0.0230
     18 C         -12.6679  -17.7371   22.7975 C.ar    1  UNL1        0.0615
     19 CL        -13.7853  -17.9379   23.7781 Cl      1  UNL1       -0.0821
     20 C         -11.3474  -18.4140   23.0164 C.ar    1  UNL1        0.0483
     21 C         -10.2302  -18.2132   22.0359 C.ar    1  UNL1        0.1405
     22 C         -10.4335  -17.3355   20.8366 C.ar    1  UNL1        0.0483
@<TRIPOS>BOND
     1    15    16    1
     2    16    17   ar
     3    17    18   ar
     4    18    19    1
     5    18    20   ar
     6    20    21   ar
     7    21    14    1
     8     1    14    1
     9     1     2    1
    10     2     3   ar
    11     3     4   ar
    12     4     5   ar
    13     5     6   ar
    14     6     7   ar
    15     1     8    1
    16     8     9    1
    17     9    10    1
    18    10    11    1
    19    11    12    1
    20    21    22   ar
    21    22    16   ar
    22     7     2   ar
    23    12     8    1
    24    11    13    1
@<TRIPOS>MOLECULE
*****
 22 24 0 0 0
SMALL
GASTEIGER

@<TRIPOS>ATOM
      1 C          -7.6206  -18.0274   22.7323 C.3     1  UNL1        0.1894
      2 C          -6.2539  -18.4691   22.2999 C.ar    1  UNL1        0.0172
      3 C          -6.0915  -19.3047   21.0649 C.ar    1  UNL1       -0.0008
      4 C          -4.7247  -19.7464   20.6326 C.ar    1  UNL1       -0.0002
      5 C          -3.5204  -19.3524   21.4353 C.ar    1  UNL1       -0.0000
      6 C          -3.6828  -18.5168   22.6704 C.ar    1  UNL1       -0.0002
      7 C          -5.0495  -18.0751   23.1027 C.ar    1  UNL1       -0.0008
      8 C          -7.7871  -16.7537   23.5069 C.3     1  UNL1        0.0615
      9 C          -8.4307  -16.6195   24.8552 C.3     1  UNL1        0.0224
     10 C          -8.3806  -15.1734   25.2509 C.3     1  UNL1        0.0687
     11 N          -7.7060  -14.4140   24.1471 N.3     1  UNL1       -0.2973
     12 C          -7.3392  -15.3906   23.0693 C.3     1  UNL1        0.0725
     13 H          -6.8651  -13.9596   24.5032 H       1  UNL1        0.1232
     14 O          -8.8209  -18.8594   22.3900 O.3     1  UNL1       -0.4747
     15 CL        -13.7138  -17.8358   23.8083 Cl      1  UNL1       -0.0821
     16 C         -12.5865  -17.6861   22.8302 C.ar    1  UNL1        0.0615
     17 C         -12.7783  -16.8749   21.5831 C.ar    1  UNL1        0.0230
     18 C         -11.6509  -16.7253   20.6050 C.ar    1  UNL1        0.0615
     19 CL        -11.8428  -15.9141   19.3579 Cl      1  UNL1       -0.0821
     20 C         -10.3318  -17.3867   20.8740 C.ar    1  UNL1        0.0483
     21 C         -10.1400  -18.1979   22.1210 C.ar    1  UNL1        0.1405
     22 C         -11.2674  -18.3475   23.0991 C.ar    1  UNL1        0.0483
@<TRIPOS>BOND
     1    15    16    1
     2    16    17   ar
     3    17    18   ar
     4    18    19    1
     5    18    20   ar
     6    20    21   ar
     7    21    14    1
     8     1    14    1
     9     1     2    1
    10     2     3   ar
    11     3     4   ar
    12     4     5   ar
    13     5     6   ar
    14     6     7   ar
    15     1     8    1
    16     8     9    1
    17     9    10    1
    18    10    11    1
    19    11    12    1
    20    21    22   ar
    21    22    16   ar
    22     7     2   ar
    23    12     8    1
    24    11    13    1
@<TRIPOS>MOLECULE
*****
 22 24 0 0 0
SMALL
GASTEIGER

@<TRIPOS>ATOM
      1 C          -6.5749  -18.4806   22.6476 C.3     1  UNL1        0.1894
      2 C          -5.3627  -18.9534   21.9014 C.ar    1  UNL1        0.0172
      3 C          -4.0516  -19.0984   22.6155 C.ar    1  UNL1       -0.0008
      4 C          -2.8394  -19.5712   21.8693 C.ar    1  UNL1       -0.0002
      5 C          -2.9381  -19.8991   20.4089 C.ar    1  UNL1       -0.0000
      6 C          -4.2493  -19.7541   19.6947 C.ar    1  UNL1       -0.0002
      7 C          -5.4615  -19.2813   20.4409 C.ar    1  UNL1       -0.0008
      8 C          -6.6786  -17.0476   23.0787 C.3     1  UNL1        0.0615
      9 C          -7.8407  -16.1331   22.8270 C.3     1  UNL1        0.0224
     10 C          -7.5187  -14.7978   23.4299 C.3     1  UNL1        0.0687
     11 N          -6.1577  -14.8871   24.0543 N.3     1  UNL1       -0.2973
     12 C          -5.6385  -16.2776   23.8372 C.3     1  UNL1        0.0725
     13 H          -6.2220  -14.6938   25.0537 H       1  UNL1        0.1232
     14 O          -7.6835  -19.4407   22.9626 O.3     1  UNL1       -0.4747
     15 CL        -12.6682  -18.2681   23.8447 Cl      1  UNL1       -0.0821
     16 C         -11.5606  -18.5966   22.8879 C.ar    1  UNL1        0.0615
     17 C         -11.8377  -18.6671   21.4155 C.ar    1  UNL1        0.0230
     18 C         -10.7301  -18.9955   20.4587 C.ar    1  UNL1        0.0615
     19 CL        -11.0073  -19.0661   18.9862 Cl      1  UNL1       -0.0821
     20 C          -9.3454  -19.2534   20.9744 C.ar    1  UNL1        0.0483
     21 C          -9.0683  -19.1828   22.4469 C.ar    1  UNL1        0.1405
     22 C         -10.1759  -18.8544   23.4036 C.ar    1  UNL1        0.0483
@<TRIPOS>BOND
     1    15    16    1
     2    16    17   ar
     3    17    18   ar
     4    18    19    1
     5    18    20   ar
     6    20    21   ar
     7    21    14    1
     8     1    14    1
     9     1     2    1
    10     2     3   ar
    11     3     4   ar
    12     4     5   ar
    13     5     6   ar
    14     6     7   ar
    15     1     8    1
    16     8     9    1
    17     9    10    1
    18    10    11    1
    19    11    12    1
    20    21    22   ar
    21    22    16   ar
    22     7     2   ar
    23    12     8    1
    24    11    13    1
@<TRIPOS>MOLECULE
*****
 22 24 0 0 0
SMALL
GASTEIGER

@<TRIPOS>ATOM
      1 C          -6.5961  -18.9654   20.5060 C.3     1  UNL1        0.1894
      2 C          -7.3227  -19.9363   19.6231 C.ar    1  UNL1        0.0172
      3 C          -6.7763  -21.3181   19.4187 C.ar    1  UNL1       -0.0008
      4 C          -7.5029  -22.2889   18.5357 C.ar    1  UNL1       -0.0002
      5 C          -8.7759  -21.8779   17.8572 C.ar    1  UNL1       -0.0000
      6 C          -9.3224  -20.4959   18.0616 C.ar    1  UNL1       -0.0002
      7 C          -8.5958  -19.5251   18.9445 C.ar    1  UNL1       -0.0008
      8 C          -5.1295  -19.1417   20.7670 C.3     1  UNL1        0.0615
      9 C          -4.5040  -19.4866   22.0860 C.3     1  UNL1        0.0224
     10 C          -3.0188  -19.5620   21.8890 C.3     1  UNL1        0.0687
     11 N          -2.7266  -19.2637   20.4483 N.3     1  UNL1       -0.2973
     12 C          -4.0310  -19.0039   19.7549 C.3     1  UNL1        0.0725
     13 H          -2.2585  -20.0611   20.0177 H       1  UNL1        0.1232
     14 O          -7.3361  -17.8185   21.1279 O.3     1  UNL1       -0.4747
     15 CL        -12.1395  -16.5086   22.6151 Cl      1  UNL1       -0.0821
     16 C         -10.9537  -17.4222   22.7109 C.ar    1  UNL1        0.0615
     17 C         -10.9839  -18.5946   23.6461 C.ar    1  UNL1        0.0230
     18 C          -9.7981  -19.5082   23.7419 C.ar    1  UNL1        0.0615
     19 CL         -9.8283  -20.6807   24.6772 Cl      1  UNL1       -0.0821
     20 C          -8.5822  -19.2496   22.9026 C.ar    1  UNL1        0.0483
     21 C          -8.5520  -18.0772   21.9674 C.ar    1  UNL1        0.1405
     22 C          -9.7378  -17.1635   21.8715 C.ar    1  UNL1        0.0483
@<TRIPOS>BOND
     1    15    16    1
     2    16    17   ar
     3    17    18   ar
     4    18    19    1
     5    18    20   ar
     6    20    21   ar
     7    21    14    1
     8     1    14    1
     9     1     2    1
    10     2     3   ar
    11     3     4   ar
    12     4     5   ar
    13     5     6   ar
    14     6     7   ar
    15     1     8    1
    16     8     9    1
    17     9    10    1
    18    10    11    1
    19    11    12    1
    20    21    22   ar
    21    22    16   ar
    22     7     2   ar
    23    12     8    1
    24    11    13    1
@<TRIPOS>MOLECULE
*****
 22 24 0 0 0
SMALL
GASTEIGER

@<TRIPOS>ATOM
      1 C          -6.8196  -18.0015   23.0000 C.3     1  UNL1        0.1894
      2 C          -5.3788  -18.1515   22.6106 C.ar    1  UNL1        0.0172
      3 C          -4.3161  -17.4137   23.3695 C.ar    1  UNL1       -0.0008
      4 C          -2.8753  -17.5637   22.9801 C.ar    1  UNL1       -0.0002
      5 C          -2.4973  -18.4515   21.8317 C.ar    1  UNL1       -0.0000
      6 C          -3.5601  -19.1893   21.0726 C.ar    1  UNL1       -0.0002
      7 C          -5.0009  -19.0393   21.4620 C.ar    1  UNL1       -0.0008
      8 C          -7.3073  -16.7101   23.5870 C.3     1  UNL1        0.0615
      9 C          -8.2141  -16.5678   24.7734 C.3     1  UNL1        0.0224
     10 C          -8.4411  -15.1040   25.0103 C.3     1  UNL1        0.0687
     11 N          -7.6746  -14.3418   23.9703 N.3     1  UNL1       -0.2973
     12 C          -6.9739  -15.3344   23.0906 C.3     1  UNL1        0.0725
     13 H          -6.9899  -13.7345   24.4207 H       1  UNL1        0.1232
     14 O          -7.7727  -19.1428   22.8025 O.3     1  UNL1       -0.4747
     15 CL         -9.1953  -20.4343   17.9746 Cl      1  UNL1       -0.0821
     16 C          -9.4869  -19.7439   19.2740 C.ar    1  UNL1        0.0615
     17 C         -10.7813  -19.0089   19.4588 C.ar    1  UNL1        0.0230
     18 C         -11.0728  -18.3185   20.7581 C.ar    1  UNL1        0.0615
     19 CL        -12.3673  -17.5834   20.9429 Cl      1  UNL1       -0.0821
     20 C         -10.0700  -18.3631   21.8727 C.ar    1  UNL1        0.0483
     21 C          -8.7756  -19.0981   21.6879 C.ar    1  UNL1        0.1405
     22 C          -8.4840  -19.7885   20.3885 C.ar    1  UNL1        0.0483
@<TRIPOS>BOND
     1    15    16    1
     2    16    17   ar
     3    17    18   ar
     4    18    19    1
     5    18    20   ar
     6    20    21   ar
     7    21    14    1
     8     1    14    1
     9     1     2    1
    10     2     3   ar
    11     3     4   ar
    12     4     5   ar
    13     5     6   ar
    14     6     7   ar
    15     1     8    1
    16     8     9    1
    17     9    10    1
    18    10    11    1
    19    11    12    1
    20    21    22   ar
    21    22    16   ar
    22     7     2   ar
    23    12     8    1
    24    11    13    1
@<TRIPOS>MOLECULE
*****
 22 24 0 0 0
SMALL
GASTEIGER

@<TRIPOS>ATOM
      1 C          -8.3079  -17.3425   21.7846 C.3     1  UNL1        0.1894
      2 C          -9.7977  -17.4652   21.6594 C.ar    1  UNL1        0.0172
      3 C         -10.4848  -18.7278   22.0876 C.ar    1  UNL1       -0.0008
      4 C         -11.9745  -18.8505   21.9624 C.ar    1  UNL1       -0.0002
      5 C         -12.7771  -17.7106   21.4090 C.ar    1  UNL1       -0.0000
      6 C         -12.0899  -16.4478   20.9807 C.ar    1  UNL1       -0.0002
      7 C         -10.6002  -16.3251   21.1059 C.ar    1  UNL1       -0.0008
      8 C          -7.4236  -18.4773   21.3602 C.3     1  UNL1        0.0615
      9 C          -7.5871  -19.3065   20.1209 C.3     1  UNL1        0.0224
     10 C          -6.4851  -20.3239   20.0952 C.3     1  UNL1        0.0687
     11 N          -5.6407  -20.1235   21.3188 N.3     1  UNL1       -0.2973
     12 C          -6.2207  -18.9823   22.1005 C.3     1  UNL1        0.0725
     13 H          -4.6825  -19.9046   21.0460 H       1  UNL1        0.1232
     14 O          -7.7025  -16.0849   22.3342 O.3     1  UNL1       -0.4747
     15 CL         -9.1223  -16.8629   27.2717 Cl      1  UNL1       -0.0821
     16 C          -8.1252  -16.3591   26.2707 C.ar    1  UNL1        0.0615
     17 C          -6.8409  -15.7405   26.7375 C.ar    1  UNL1        0.0230
     18 C          -5.8438  -15.2367   25.7365 C.ar    1  UNL1        0.0615
     19 CL         -4.5595  -14.6180   26.2033 Cl      1  UNL1       -0.0821
     20 C          -6.1310  -15.3515   24.2687 C.ar    1  UNL1        0.0483
     21 C          -7.4153  -15.9701   23.8020 C.ar    1  UNL1        0.1405
     22 C          -8.4124  -16.4739   24.8030 C.ar    1  UNL1        0.0483
@<TRIPOS>BOND
     1    15    16    1
     2    16    17   ar
     3    17    18   ar
     4    18    19    1
     5    18    20   ar
     6    20    21   ar
     7    21    14    1
     8     1    14    1
     9     1     2    1
    10     2     3   ar
    11     3     4   ar
    12     4     5   ar
    13     5     6   ar
    14     6     7   ar
    15     1     8    1
    16     8     9    1
    17     9    10    1
    18    10    11    1
    19    11    12    1
    20    21    22   ar
    21    22    16   ar
    22     7     2   ar
    23    12     8    1
    24    11    13    1
@<TRIPOS>MOLECULE
*****
 22 24 0 0 0
SMALL
GASTEIGER

@<TRIPOS>ATOM
      1 C         -12.0802   -5.4036   17.4577 C.3     1  UNL1        0.1894
      2 C         -11.7342   -3.9548   17.6347 C.ar    1  UNL1        0.0172
      3 C         -10.9254   -3.2439   16.5905 C.ar    1  UNL1       -0.0008
      4 C         -10.5794   -1.7951   16.7675 C.ar    1  UNL1       -0.0002
      5 C         -11.0421   -1.0573   17.9888 C.ar    1  UNL1       -0.0000
      6 C         -11.8508   -1.7682   19.0331 C.ar    1  UNL1       -0.0002
      7 C         -12.1969   -3.2170   18.8561 C.ar    1  UNL1       -0.0008
      8 C         -11.0963   -6.4637   17.8554 C.3     1  UNL1        0.0615
      9 C         -10.0309   -6.3295   18.9028 C.3     1  UNL1        0.0224
     10 C          -9.2812   -7.6270   18.9702 C.3     1  UNL1        0.0687
     11 N          -9.8832   -8.5630   17.9645 N.3     1  UNL1       -0.2973
     12 C         -11.0050   -7.8441   17.2755 C.3     1  UNL1        0.0725
     13 H         -10.2420   -9.3934   18.4358 H       1  UNL1        0.1232
     14 O         -13.4101   -5.7923   16.8831 O.3     1  UNL1       -0.4747
     15 CL        -17.6018   -3.9463   19.3371 Cl      1  UNL1       -0.0821
     16 C         -16.6806   -5.0861   19.0174 C.ar    1  UNL1        0.0615
     17 C         -16.9340   -6.4427   19.6051 C.ar    1  UNL1        0.0230
     18 C         -16.0127   -7.5825   19.2854 C.ar    1  UNL1        0.0615
     19 CL        -16.2662   -8.9392   19.8731 Cl      1  UNL1       -0.0821
     20 C         -14.8381   -7.3657   18.3781 C.ar    1  UNL1        0.0483
     21 C         -14.5848   -6.0091   17.7904 C.ar    1  UNL1        0.1405
     22 C         -15.5060   -4.8693   18.1101 C.ar    1  UNL1        0.0483
@<TRIPOS>BOND
     1    15    16    1
     2    16    17   ar
     3    17    18   ar
     4    18    19    1
     5    18    20   ar
     6    20    21   ar
     7    21    14    1
     8     1    14    1
     9     1     2    1
    10     2     3   ar
    11     3     4   ar
    12     4     5   ar
    13     5     6   ar
    14     6     7   ar
    15     1     8    1
    16     8     9    1
    17     9    10    1
    18    10    11    1
    19    11    12    1
    20    21    22   ar
    21    22    16   ar
    22     7     2   ar
    23    12     8    1
    24    11    13    1
