@<TRIPOS>MOLECULE
*****
 18 19 0 0 0
SMALL
GASTEIGER

@<TRIPOS>ATOM
      1 C         -10.4599  -18.7457   20.6503 C.ar    1  UNL1        0.1386
      2 C          -9.9688  -19.4893   19.4437 C.ar    1  UNL1        0.0369
      3 C          -8.4998  -19.7278   19.2563 C.ar    1  UNL1        0.0047
      4 C          -7.5219  -19.2228   20.2754 C.ar    1  UNL1        0.0211
      5 C          -8.0131  -18.4792   21.4820 C.ar    1  UNL1        0.0047
      6 C          -9.4821  -18.2407   21.6694 C.ar    1  UNL1        0.0369
      7 C          -6.0529  -19.4613   20.0880 C.ar    1  UNL1        0.1194
      8 C          -5.3294  -20.7503   20.3429 C.ar    1  UNL1        0.1002
      9 C          -3.8788  -20.5384   20.0252 C.ar    1  UNL1        0.3166
     10 N          -3.7058  -19.1183   19.5739 N.ar    1  UNL1       -0.0722
     11 C          -2.4157  -18.4766   19.1571 C.3     1  UNL1        0.4352
     12 N          -5.0495  -18.4527   19.6128 N.ar    1  UNL1       -0.1601
     13 H          -5.2394  -17.5179   19.3691 H       1  UNL1        0.2366
     14 O         -11.9289  -18.5072   20.8377 O.3     1  UNL1       -0.4755
     15 C         -12.4184  -17.1657   21.2967 C.3     1  UNL1        0.2054
     16 C         -12.7167  -16.9324   22.7481 C.3     1  UNL1        0.0473
     17 C         -14.1899  -18.2061   24.4678 C.3     1  UNL1        0.0001
     18 C         -12.9257  -18.0990   23.6677 C.3     1  UNL1        0.0038
@<TRIPOS>UNITY_ATOM_ATTR
10 1
charge 1
@<TRIPOS>BOND
     1    17    18    1
     2    18    16    1
     3    16    15    1
     4    15    14    1
     5    14     1    1
     6     1     2   ar
     7     2     3   ar
     8     3     4   ar
     9     4     7    1
    10     7     8   ar
    11     8     9   ar
    12     9    10   ar
    13    10    11    1
    14    10    12   ar
    15     4     5   ar
    16     5     6   ar
    17     6     1   ar
    18    12     7   ar
    19    12    13    1
@<TRIPOS>MOLECULE
*****
 18 19 0 0 0
SMALL
GASTEIGER

@<TRIPOS>ATOM
      1 C          -3.4813  -19.8667   21.1924 C.ar    1  UNL1        0.1386
      2 C          -4.4104  -20.4715   20.1821 C.ar    1  UNL1        0.0369
      3 C          -5.8914  -20.2708   20.3104 C.ar    1  UNL1        0.0047
      4 C          -6.4432  -19.4653   21.4491 C.ar    1  UNL1        0.0211
      5 C          -5.5140  -18.8606   22.4595 C.ar    1  UNL1        0.0047
      6 C          -4.0331  -19.0613   22.3311 C.ar    1  UNL1        0.0369
      7 C          -7.9241  -19.2646   21.5775 C.ar    1  UNL1        0.1194
      8 C          -8.7826  -19.7361   22.7136 C.ar    1  UNL1        0.1002
      9 C         -10.1957  -19.3201   22.4306 C.ar    1  UNL1        0.3166
     10 N         -10.2106  -18.5915   21.1195 N.ar    1  UNL1       -0.0722
     11 C         -11.4174  -18.0009   20.4527 C.3     1  UNL1        0.4352
     12 N          -8.8067  -18.5572   20.5923 N.ar    1  UNL1       -0.1601
     13 H          -8.5156  -18.1432   19.7479 H       1  UNL1        0.2366
     14 O          -2.0003  -20.0674   21.0641 O.3     1  UNL1       -0.4755
     15 C          -1.1864  -19.1294   20.2229 C.3     1  UNL1        0.2054
     16 C          -1.7061  -17.7567   19.9135 C.3     1  UNL1        0.0473
     17 C          -2.1669  -16.0726   21.8375 C.3     1  UNL1        0.0001
     18 C          -1.2747  -16.5861   20.7465 C.3     1  UNL1        0.0038
@<TRIPOS>UNITY_ATOM_ATTR
10 1
charge 1
@<TRIPOS>BOND
     1    17    18    1
     2    18    16    1
     3    16    15    1
     4    15    14    1
     5    14     1    1
     6     1     2   ar
     7     2     3   ar
     8     3     4   ar
     9     4     7    1
    10     7     8   ar
    11     8     9   ar
    12     9    10   ar
    13    10    11    1
    14    10    12   ar
    15     4     5   ar
    16     5     6   ar
    17     6     1   ar
    18    12     7   ar
    19    12    13    1
@<TRIPOS>MOLECULE
*****
 18 19 0 0 0
SMALL
GASTEIGER

@<TRIPOS>ATOM
      1 C          -9.5702  -19.3759   21.3410 C.ar    1  UNL1        0.1386
      2 C          -9.0862  -19.4713   19.9245 C.ar    1  UNL1        0.0369
      3 C          -7.6173  -19.4057   19.6278 C.ar    1  UNL1        0.0047
      4 C          -6.6325  -19.2446   20.7476 C.ar    1  UNL1        0.0211
      5 C          -7.1165  -19.1492   22.1641 C.ar    1  UNL1        0.0047
      6 C          -8.5854  -19.2149   22.4608 C.ar    1  UNL1        0.0369
      7 C          -5.1636  -19.1790   20.4509 C.ar    1  UNL1        0.1194
      8 C          -4.0930  -19.9949   21.1128 C.ar    1  UNL1        0.1002
      9 C          -2.7751  -19.6060   20.5112 C.ar    1  UNL1        0.3166
     10 N          -3.0311  -18.5498   19.4774 N.ar    1  UNL1       -0.0722
     11 C          -1.9933  -17.8758   18.6297 C.3     1  UNL1        0.4352
     12 N          -4.5073  -18.2858   19.4401 N.ar    1  UNL1       -0.1601
     13 H          -4.9650  -17.6398   18.8550 H       1  UNL1        0.2366
     14 O         -11.0391  -19.4416   21.6377 O.3     1  UNL1       -0.4755
     15 C         -11.7218  -18.2850   22.3057 C.3     1  UNL1        0.2054
     16 C         -11.9815  -17.0225   21.5385 C.3     1  UNL1        0.0473
     17 C         -11.6546  -15.6654   19.3473 C.3     1  UNL1        0.0001
     18 C         -11.7478  -16.9834   20.0573 C.3     1  UNL1        0.0038
@<TRIPOS>UNITY_ATOM_ATTR
10 1
charge 1
@<TRIPOS>BOND
     1    17    18    1
     2    18    16    1
     3    16    15    1
     4    15    14    1
     5    14     1    1
     6     1     2   ar
     7     2     3   ar
     8     3     4   ar
     9     4     7    1
    10     7     8   ar
    11     8     9   ar
    12     9    10   ar
    13    10    11    1
    14    10    12   ar
    15     4     5   ar
    16     5     6   ar
    17     6     1   ar
    18    12     7   ar
    19    12    13    1
@<TRIPOS>MOLECULE
*****
 18 19 0 0 0
SMALL
GASTEIGER

@<TRIPOS>ATOM
      1 C          -4.1947  -17.7145   23.0637 C.ar    1  UNL1        0.1386
      2 C          -5.0180  -18.7208   22.3158 C.ar    1  UNL1        0.0369
      3 C          -6.5018  -18.5360   22.1964 C.ar    1  UNL1        0.0047
      4 C          -7.1622  -17.3449   22.8249 C.ar    1  UNL1        0.0211
      5 C          -6.3389  -16.3387   23.5728 C.ar    1  UNL1        0.0047
      6 C          -4.8551  -16.5234   23.6922 C.ar    1  UNL1        0.0369
      7 C          -8.6460  -17.1602   22.7055 C.ar    1  UNL1        0.1194
      8 C          -9.6476  -17.3326   23.8086 C.ar    1  UNL1        0.1002
      9 C         -11.0094  -17.0495   23.2469 C.ar    1  UNL1        0.3166
     10 N         -10.8494  -16.7021   21.7965 N.ar    1  UNL1       -0.0722
     11 C         -11.9557  -16.3484   20.8473 C.3     1  UNL1        0.4352
     12 N          -9.3887  -16.7705   21.4619 N.ar    1  UNL1       -0.1601
     13 H          -8.9879  -16.5911   20.5808 H       1  UNL1        0.2366
     14 O          -2.7109  -17.8993   23.1831 O.3     1  UNL1       -0.4755
     15 C          -1.9748  -18.7294   22.1737 C.3     1  UNL1        0.2054
     16 C          -1.3675  -18.0782   20.9665 C.3     1  UNL1        0.0473
     17 C          -3.1971  -18.2463   19.1295 C.3     1  UNL1        0.0001
     18 C          -2.2486  -17.4199   19.9465 C.3     1  UNL1        0.0038
@<TRIPOS>UNITY_ATOM_ATTR
10 1
charge 1
@<TRIPOS>BOND
     1    17    18    1
     2    18    16    1
     3    16    15    1
     4    15    14    1
     5    14     1    1
     6     1     2   ar
     7     2     3   ar
     8     3     4   ar
     9     4     7    1
    10     7     8   ar
    11     8     9   ar
    12     9    10   ar
    13    10    11    1
    14    10    12   ar
    15     4     5   ar
    16     5     6   ar
    17     6     1   ar
    18    12     7   ar
    19    12    13    1
@<TRIPOS>MOLECULE
*****
 18 19 0 0 0
SMALL
GASTEIGER

@<TRIPOS>ATOM
      1 C          -8.6748  -18.8260   21.2555 C.ar    1  UNL1        0.1386
      2 C          -7.9995  -19.3713   20.0322 C.ar    1  UNL1        0.0369
      3 C          -6.5020  -19.3902   19.9477 C.ar    1  UNL1        0.0047
      4 C          -5.6798  -18.8639   21.0865 C.ar    1  UNL1        0.0211
      5 C          -6.3551  -18.3185   22.3098 C.ar    1  UNL1        0.0047
      6 C          -7.8526  -18.2996   22.3943 C.ar    1  UNL1        0.0369
      7 C          -4.1823  -18.8828   21.0019 C.ar    1  UNL1        0.1194
      8 C          -3.2959  -20.0503   21.3201 C.ar    1  UNL1        0.1002
      9 C          -1.8741  -19.6267   21.0992 C.ar    1  UNL1        0.3166
     10 N          -1.8816  -18.1973   20.6445 N.ar    1  UNL1       -0.0722
     11 C          -0.6746  -17.3724   20.3089 C.3     1  UNL1        0.4352
     12 N          -3.3082  -17.7376   20.5844 N.ar    1  UNL1       -0.1601
     13 H          -3.6166  -16.8415   20.3177 H       1  UNL1        0.2366
     14 O         -10.1723  -18.8070   21.3400 O.3     1  UNL1       -0.4755
     15 C         -10.8998  -19.9326   22.0136 C.3     1  UNL1        0.2054
     16 C         -10.6442  -20.2309   23.4613 C.3     1  UNL1        0.0473
     17 C         -10.0185  -18.5989   25.3836 C.3     1  UNL1        0.0001
     18 C         -11.0561  -19.2452   24.5143 C.3     1  UNL1        0.0038
@<TRIPOS>UNITY_ATOM_ATTR
10 1
charge 1
@<TRIPOS>BOND
     1    17    18    1
     2    18    16    1
     3    16    15    1
     4    15    14    1
     5    14     1    1
     6     1     2   ar
     7     2     3   ar
     8     3     4   ar
     9     4     7    1
    10     7     8   ar
    11     8     9   ar
    12     9    10   ar
    13    10    11    1
    14    10    12   ar
    15     4     5   ar
    16     5     6   ar
    17     6     1   ar
    18    12     7   ar
    19    12    13    1
@<TRIPOS>MOLECULE
*****
 18 19 0 0 0
SMALL
GASTEIGER

@<TRIPOS>ATOM
      1 C          -6.2525  -19.0172   22.1655 C.ar    1  UNL1        0.1386
      2 C          -7.3612  -20.0174   22.0227 C.ar    1  UNL1        0.0369
      3 C          -8.7843  -19.5956   22.2387 C.ar    1  UNL1        0.0047
      4 C          -9.0989  -18.1735   22.5974 C.ar    1  UNL1        0.0211
      5 C          -7.9902  -17.1733   22.7402 C.ar    1  UNL1        0.0047
      6 C          -6.5670  -17.5952   22.5243 C.ar    1  UNL1        0.0369
      7 C         -10.5220  -17.7517   22.8134 C.ar    1  UNL1        0.1194
      8 C         -11.1544  -16.4898   22.3055 C.ar    1  UNL1        0.1002
      9 C         -12.5859  -16.4759   22.7534 C.ar    1  UNL1        0.3166
     10 N         -12.8383  -17.7291   23.5380 N.ar    1  UNL1       -0.0722
     11 C         -14.1380  -18.1245   24.1740 C.3     1  UNL1        0.4352
     12 N         -11.5628  -18.5176   23.5751 N.ar    1  UNL1       -0.1601
     13 H         -11.4317  -19.3854   24.0211 H       1  UNL1        0.2366
     14 O          -4.8294  -19.4391   21.9496 O.3     1  UNL1       -0.4755
     15 C          -4.4593  -20.2348   20.7331 C.3     1  UNL1        0.2054
     16 C          -3.4398  -19.7025   19.7702 C.3     1  UNL1        0.0473
     17 C          -2.3159  -17.5577   18.8286 C.3     1  UNL1        0.0001
     18 C          -2.8320  -18.3494   19.9934 C.3     1  UNL1        0.0038
@<TRIPOS>UNITY_ATOM_ATTR
10 1
charge 1
@<TRIPOS>BOND
     1    17    18    1
     2    18    16    1
     3    16    15    1
     4    15    14    1
     5    14     1    1
     6     1     2   ar
     7     2     3   ar
     8     3     4   ar
     9     4     7    1
    10     7     8   ar
    11     8     9   ar
    12     9    10   ar
    13    10    11    1
    14    10    12   ar
    15     4     5   ar
    16     5     6   ar
    17     6     1   ar
    18    12     7   ar
    19    12    13    1
@<TRIPOS>MOLECULE
*****
 18 19 0 0 0
SMALL
GASTEIGER

@<TRIPOS>ATOM
      1 C         -12.5655   -4.3724   18.1147 C.ar    1  UNL1        0.1386
      2 C         -12.9827   -4.6800   19.5223 C.ar    1  UNL1        0.0369
      3 C         -13.9889   -5.7605   19.7872 C.ar    1  UNL1        0.0047
      4 C         -14.5779   -6.5334   18.6445 C.ar    1  UNL1        0.0211
      5 C         -14.1607   -6.2258   17.2370 C.ar    1  UNL1        0.0047
      6 C         -13.1545   -5.1453   16.9721 C.ar    1  UNL1        0.0369
      7 C         -15.5841   -7.6139   18.9094 C.ar    1  UNL1        0.1194
      8 C         -16.8705   -7.4548   19.6642 C.ar    1  UNL1        0.1002
      9 C         -17.5620   -8.7858   19.6873 C.ar    1  UNL1        0.3166
     10 N         -16.7029   -9.7674   18.9468 N.ar    1  UNL1       -0.0722
     11 C         -17.0119  -11.2185   18.7258 C.3     1  UNL1        0.4352
     12 N         -15.4805   -9.0431   18.4660 N.ar    1  UNL1       -0.1601
     13 H         -14.7401   -9.4367   17.9501 H       1  UNL1        0.2366
     14 O         -11.5593   -3.2920   17.8499 O.3     1  UNL1       -0.4755
     15 C         -10.0976   -3.5630   18.0496 C.3     1  UNL1        0.2054
     16 C          -9.5524   -4.9416   17.8214 C.3     1  UNL1        0.0473
     17 C         -10.2191   -7.2614   18.7829 C.3     1  UNL1        0.0001
     18 C          -9.5346   -5.9364   18.9440 C.3     1  UNL1        0.0038
@<TRIPOS>UNITY_ATOM_ATTR
10 1
charge 1
@<TRIPOS>BOND
     1    17    18    1
     2    18    16    1
     3    16    15    1
     4    15    14    1
     5    14     1    1
     6     1     2   ar
     7     2     3   ar
     8     3     4   ar
     9     4     7    1
    10     7     8   ar
    11     8     9   ar
    12     9    10   ar
    13    10    11    1
    14    10    12   ar
    15     4     5   ar
    16     5     6   ar
    17     6     1   ar
    18    12     7   ar
    19    12    13    1
@<TRIPOS>MOLECULE
*****
 18 19 0 0 0
SMALL
GASTEIGER

@<TRIPOS>ATOM
      1 C         -10.8480   -5.6809   18.2859 C.ar    1  UNL1        0.1386
      2 C         -11.1001   -6.9174   17.4750 C.ar    1  UNL1        0.0369
      3 C         -12.3846   -7.6741   17.6409 C.ar    1  UNL1        0.0047
      4 C         -13.4169   -7.1944   18.6177 C.ar    1  UNL1        0.0211
      5 C         -13.1648   -5.9580   19.4286 C.ar    1  UNL1        0.0047
      6 C         -11.8803   -5.2012   19.2626 C.ar    1  UNL1        0.0369
      7 C         -14.7014   -7.9511   18.7836 C.ar    1  UNL1        0.1194
      8 C         -15.9955   -7.3903   19.2941 C.ar    1  UNL1        0.1002
      9 C         -17.0112   -8.4941   19.2942 C.ar    1  UNL1        0.3166
     10 N         -16.3448   -9.7372   18.7837 N.ar    1  UNL1       -0.0722
     11 C         -16.9922  -11.0801   18.6178 C.3     1  UNL1        0.4352
     12 N         -14.9172   -9.4016   18.4681 N.ar    1  UNL1       -0.1601
     13 H         -14.2407  -10.0241   18.1158 H       1  UNL1        0.2366
     14 O          -9.5635   -4.9242   18.1199 O.3     1  UNL1       -0.4755
     15 C          -9.1329   -4.4672   16.7577 C.3     1  UNL1        0.2054
     16 C          -9.5050   -3.0971   16.2738 C.3     1  UNL1        0.0473
     17 C         -11.0071   -1.6875   17.8572 C.3     1  UNL1        0.0001
     18 C         -10.8452   -2.5182   16.6187 C.3     1  UNL1        0.0038
@<TRIPOS>UNITY_ATOM_ATTR
10 1
charge 1
@<TRIPOS>BOND
     1    17    18    1
     2    18    16    1
     3    16    15    1
     4    15    14    1
     5    14     1    1
     6     1     2   ar
     7     2     3   ar
     8     3     4   ar
     9     4     7    1
    10     7     8   ar
    11     8     9   ar
    12     9    10   ar
    13    10    11    1
    14    10    12   ar
    15     4     5   ar
    16     5     6   ar
    17     6     1   ar
    18    12     7   ar
    19    12    13    1
@<TRIPOS>MOLECULE
*****
 18 19 0 0 0
SMALL
GASTEIGER

@<TRIPOS>ATOM
      1 C         -12.5690   -5.8276   19.2418 C.ar    1  UNL1        0.1386
      2 C         -13.8349   -5.2371   19.7884 C.ar    1  UNL1        0.0369
      3 C         -15.1218   -6.0018   19.6924 C.ar    1  UNL1        0.0047
      4 C         -15.1428   -7.3569   19.0497 C.ar    1  UNL1        0.0211
      5 C         -13.8769   -7.9474   18.5030 C.ar    1  UNL1        0.0047
      6 C         -12.5900   -7.1828   18.5991 C.ar    1  UNL1        0.0369
      7 C         -16.4297   -8.1216   18.9536 C.ar    1  UNL1        0.1194
      8 C         -17.4212   -8.3216   20.0612 C.ar    1  UNL1        0.1002
      9 C         -18.5553   -9.1441   19.5252 C.ar    1  UNL1        0.3166
     10 N         -18.2647   -9.4524   18.0863 N.ar    1  UNL1       -0.0722
     11 C         -19.1350  -10.2522   17.1628 C.3     1  UNL1        0.4352
     12 N         -16.9510   -8.8204   17.7330 N.ar    1  UNL1       -0.1601
     13 H         -16.5086   -8.8578   16.8543 H       1  UNL1        0.2366
     14 O         -11.2821   -5.0630   19.3379 O.3     1  UNL1       -0.4755
     15 C         -10.0103   -5.6671   18.8207 C.3     1  UNL1        0.2054
     16 C          -9.5843   -5.4196   17.4039 C.3     1  UNL1        0.0473
     17 C         -10.3294   -2.9764   16.9289 C.3     1  UNL1        0.0001
     18 C          -9.2591   -4.0271   16.9509 C.3     1  UNL1        0.0038
@<TRIPOS>UNITY_ATOM_ATTR
10 1
charge 1
@<TRIPOS>BOND
     1    17    18    1
     2    18    16    1
     3    16    15    1
     4    15    14    1
     5    14     1    1
     6     1     2   ar
     7     2     3   ar
     8     3     4   ar
     9     4     7    1
    10     7     8   ar
    11     8     9   ar
    12     9    10   ar
    13    10    11    1
    14    10    12   ar
    15     4     5   ar
    16     5     6   ar
    17     6     1   ar
    18    12     7   ar
    19    12    13    1
