@<TRIPOS>MOLECULE
*****
 31 33 0 0 0
SMALL
GASTEIGER

@<TRIPOS>ATOM
      1 C          -5.4563  -15.9772   25.9371 C.ar    1  UNL1        0.1724
      2 C          -4.2647  -16.8330   26.2492 C.ar    1  UNL1        0.0402
      3 C          -3.4807  -17.4620   25.1358 C.ar    1  UNL1        0.0078
      4 C          -3.8885  -17.2352   23.7102 C.ar    1  UNL1        0.0566
      5 C          -5.0802  -16.3795   23.3981 C.ar    1  UNL1        0.0445
      6 C          -5.8641  -15.7504   24.5116 C.ar    1  UNL1        0.1722
      7 C          -3.1045  -17.8643   22.5968 C.2     1  UNL1        0.2459
      8 O          -2.6092  -19.2737   22.7314 O.2     1  UNL1       -0.2701
      9 N          -2.8159  -17.0839   21.3487 N.am    1  UNL1       -0.3021
     10 H          -3.1410  -16.1588   21.2604 H       1  UNL1        0.1497
     11 C          -2.0320  -17.7129   20.2353 C.3     1  UNL1        0.0778
     12 C          -0.5735  -17.4008   20.0755 C.3     1  UNL1        0.0217
     13 C          -2.7065  -18.6539   19.2816 C.3     1  UNL1        0.0653
     14 C          -4.0258  -19.2696   19.6426 C.ar    1  UNL1        0.0607
     15 C          -4.1231  -20.7468   19.8841 C.ar    1  UNL1        0.0148
     16 C          -5.4425  -21.3624   20.2450 C.ar    1  UNL1        0.0028
     17 C          -6.6645  -20.5009   20.3646 C.ar    1  UNL1        0.0207
     18 C          -6.5672  -19.0237   20.1231 C.ar    1  UNL1        0.0984
     19 N          -5.2479  -18.4080   19.7622 N.ar    1  UNL1       -0.2481
     20 C          -7.5563  -15.9357   27.4663 C.3     1  UNL1        0.2526
     21 O          -6.2403  -15.3482   27.0506 O.3     1  UNL1       -0.4684
     22 O          -7.0559  -14.8946   24.1994 O.3     1  UNL1       -0.4760
     23 C          -8.2378  -15.4850   23.4891 C.3     1  UNL1        0.1688
     24 C          -9.2760  -16.2426   24.2626 C.3     1  UNL1        0.0609
     25 C         -10.4579  -16.8330   23.5523 C.3     1  UNL1        0.0758
     26 N         -10.6017  -16.6657   22.0686 N.3     1  UNL1       -0.2737
     27 C          -9.5635  -15.9081   21.2952 C.3     1  UNL1        0.0758
     28 C          -8.3815  -15.3177   22.0055 C.3     1  UNL1        0.0609
     29 C         -11.7836  -17.2561   21.3584 C.3     1  UNL1        0.0576
     30 C         -12.9859  -17.6955   22.1403 C.3     1  UNL1        0.0173
     31 C         -11.7632  -17.4071   19.8661 C.3     1  UNL1        0.0173
@<TRIPOS>BOND
     1    20    21    1
     2    21     1    1
     3     1     2   ar
     4     2     3   ar
     5     3     4   ar
     6     4     7    1
     7     7     8    2
     8     7     9   am
     9     9    11    1
    10    11    12    1
    11    11    13    1
    12    13    14    1
    13    14    15   ar
    14    15    16   ar
    15    16    17   ar
    16    17    18   ar
    17    18    19   ar
    18     4     5   ar
    19     5     6   ar
    20     6    22    1
    21    22    23    1
    22    23    24    1
    23    24    25    1
    24    25    26    1
    25    26    29    1
    26    29    30    1
    27    29    31    1
    28    26    27    1
    29    27    28    1
    30     6     1   ar
    31    28    23    1
    32    19    14   ar
    33     9    10    1
@<TRIPOS>MOLECULE
*****
 31 33 0 0 0
SMALL
GASTEIGER

@<TRIPOS>ATOM
      1 C          -6.5360  -15.5484   25.2286 C.ar    1  UNL1        0.1724
      2 C          -7.9859  -15.2077   25.0510 C.ar    1  UNL1        0.0402
      3 C          -8.7531  -15.7740   23.8931 C.ar    1  UNL1        0.0078
      4 C          -8.0703  -16.6810   22.9127 C.ar    1  UNL1        0.0566
      5 C          -6.6204  -17.0217   23.0903 C.ar    1  UNL1        0.0445
      6 C          -5.8532  -16.4554   24.2482 C.ar    1  UNL1        0.1722
      7 C          -8.8375  -17.2473   21.7548 C.2     1  UNL1        0.2459
      8 O          -9.7641  -16.3690   20.9676 O.2     1  UNL1       -0.2701
      9 N          -8.6780  -18.6920   21.3841 N.am    1  UNL1       -0.3021
     10 H          -8.0698  -19.2685   21.9008 H       1  UNL1        0.1497
     11 C          -9.4452  -19.2583   20.2262 C.3     1  UNL1        0.0778
     12 C          -8.7254  -19.6520   18.9704 C.3     1  UNL1        0.0217
     13 C         -10.9319  -19.4309   20.3241 C.3     1  UNL1        0.0653
     14 C         -11.6572  -18.9981   21.5637 C.ar    1  UNL1        0.0607
     15 C         -12.7625  -17.9882   21.4720 C.ar    1  UNL1        0.0148
     16 C         -13.4878  -17.5554   22.7116 C.ar    1  UNL1        0.0028
     17 C         -13.1078  -18.1325   24.0429 C.ar    1  UNL1        0.0207
     18 C         -12.0026  -19.1425   24.1346 C.ar    1  UNL1        0.0984
     19 N         -11.2773  -19.5752   22.8950 N.ar    1  UNL1       -0.2481
     20 C          -6.4752  -14.6659   27.6714 C.3     1  UNL1        0.2526
     21 O          -5.7689  -14.9821   26.3865 O.3     1  UNL1       -0.4684
     22 O          -4.4032  -16.7962   24.4258 O.3     1  UNL1       -0.4760
     23 C          -3.5461  -17.0753   23.2269 C.3     1  UNL1        0.1688
     24 C          -2.8781  -15.9442   22.5027 C.3     1  UNL1        0.0609
     25 C          -2.0211  -16.2233   21.3038 C.3     1  UNL1        0.0758
     26 N          -1.8319  -17.6336   20.8290 N.3     1  UNL1       -0.2737
     27 C          -2.4999  -18.7647   21.5531 C.3     1  UNL1        0.0758
     28 C          -3.3570  -18.4856   22.7520 C.3     1  UNL1        0.0609
     29 C          -0.9749  -17.9127   19.6300 C.3     1  UNL1        0.0576
     30 C          -1.6042  -18.0626   18.2767 C.3     1  UNL1        0.0173
     31 C           0.5116  -18.0420   19.7844 C.3     1  UNL1        0.0173
@<TRIPOS>BOND
     1    20    21    1
     2    21     1    1
     3     1     2   ar
     4     2     3   ar
     5     3     4   ar
     6     4     7    1
     7     7     8    2
     8     7     9   am
     9     9    11    1
    10    11    12    1
    11    11    13    1
    12    13    14    1
    13    14    15   ar
    14    15    16   ar
    15    16    17   ar
    16    17    18   ar
    17    18    19   ar
    18     4     5   ar
    19     5     6   ar
    20     6    22    1
    21    22    23    1
    22    23    24    1
    23    24    25    1
    24    25    26    1
    25    26    29    1
    26    29    30    1
    27    29    31    1
    28    26    27    1
    29    27    28    1
    30     6     1   ar
    31    28    23    1
    32    19    14   ar
    33     9    10    1
@<TRIPOS>MOLECULE
*****
 31 33 0 0 0
SMALL
GASTEIGER

@<TRIPOS>ATOM
      1 C          -7.0280  -15.4320   26.0714 C.ar    1  UNL1        0.1724
      2 C          -8.5249  -15.4438   26.1674 C.ar    1  UNL1        0.0402
      3 C          -9.3500  -15.8231   24.9736 C.ar    1  UNL1        0.0078
      4 C          -8.6784  -16.1907   23.6838 C.ar    1  UNL1        0.0566
      5 C          -7.1815  -16.1789   23.5877 C.ar    1  UNL1        0.0445
      6 C          -6.3564  -15.7996   24.7815 C.ar    1  UNL1        0.1722
      7 C          -9.5036  -16.5701   22.4900 C.2     1  UNL1        0.2459
      8 O          -9.2262  -15.9421   21.1563 O.2     1  UNL1       -0.2701
      9 N         -10.6061  -17.5775   22.6298 N.am    1  UNL1       -0.3021
     10 H         -10.7881  -17.9897   23.5051 H       1  UNL1        0.1497
     11 C         -11.4313  -17.9568   21.4360 C.3     1  UNL1        0.0778
     12 C         -12.7368  -17.2652   21.1763 C.3     1  UNL1        0.0217
     13 C         -10.9510  -19.0278   20.5020 C.3     1  UNL1        0.0653
     14 C          -9.5003  -19.4088   20.4803 C.ar    1  UNL1        0.0607
     15 C          -8.7821  -19.5523   19.1713 C.ar    1  UNL1        0.0148
     16 C          -7.3315  -19.9333   19.1495 C.ar    1  UNL1        0.0028
     17 C          -6.5991  -20.1707   20.4368 C.ar    1  UNL1        0.0207
     18 C          -7.3173  -20.0272   21.7458 C.ar    1  UNL1        0.0984
     19 N          -8.7679  -19.6462   21.7675 N.ar    1  UNL1       -0.2481
     20 C          -6.6765  -13.9723   28.1917 C.3     1  UNL1        0.2526
     21 O          -6.2028  -15.0526   27.2652 O.3     1  UNL1       -0.4684
     22 O          -4.8594  -15.7878   24.6855 O.3     1  UNL1       -0.4760
     23 C          -4.1765  -16.4637   23.5337 C.3     1  UNL1        0.1688
     24 C          -3.2997  -15.6700   22.6110 C.3     1  UNL1        0.0609
     25 C          -2.6167  -16.3459   21.4592 C.3     1  UNL1        0.0758
     26 N          -2.8105  -17.8156   21.2300 N.3     1  UNL1       -0.2737
     27 C          -3.6873  -18.6093   22.1526 C.3     1  UNL1        0.0758
     28 C          -4.3703  -17.9334   23.3045 C.3     1  UNL1        0.0609
     29 C          -2.1276  -18.4915   20.0782 C.3     1  UNL1        0.0576
     30 C          -2.9027  -19.4104   19.1811 C.3     1  UNL1        0.0173
     31 C          -0.6695  -18.2485   19.8235 C.3     1  UNL1        0.0173
@<TRIPOS>BOND
     1    20    21    1
     2    21     1    1
     3     1     2   ar
     4     2     3   ar
     5     3     4   ar
     6     4     7    1
     7     7     8    2
     8     7     9   am
     9     9    11    1
    10    11    12    1
    11    11    13    1
    12    13    14    1
    13    14    15   ar
    14    15    16   ar
    15    16    17   ar
    16    17    18   ar
    17    18    19   ar
    18     4     5   ar
    19     5     6   ar
    20     6    22    1
    21    22    23    1
    22    23    24    1
    23    24    25    1
    24    25    26    1
    25    26    29    1
    26    29    30    1
    27    29    31    1
    28    26    27    1
    29    27    28    1
    30     6     1   ar
    31    28    23    1
    32    19    14   ar
    33     9    10    1
@<TRIPOS>MOLECULE
*****
 31 33 0 0 0
SMALL
GASTEIGER

@<TRIPOS>ATOM
      1 C           0.4344    1.5592   21.4383 C.ar    1  UNL1        0.1724
      2 C           0.1919    0.6537   20.2673 C.ar    1  UNL1        0.0402
      3 C           1.1064   -0.5085   20.0159 C.ar    1  UNL1        0.0078
      4 C           2.2633   -0.7651   20.9354 C.ar    1  UNL1        0.0566
      5 C           2.5058    0.1404   22.1064 C.ar    1  UNL1        0.0445
      6 C           1.5913    1.3025   22.3578 C.ar    1  UNL1        0.1722
      7 C           3.1778   -1.9272   20.6839 C.2     1  UNL1        0.2459
      8 O           4.1823   -2.3296   21.7227 O.2     1  UNL1       -0.2701
      9 N           3.0877   -2.6870   19.3938 N.am    1  UNL1       -0.3021
     10 H           2.4284   -2.4229   18.7120 H       1  UNL1        0.1497
     11 C           4.0021   -3.8491   19.1423 C.3     1  UNL1        0.0778
     12 C           3.6937   -5.1895   19.7411 C.3     1  UNL1        0.0217
     13 C           5.2250   -3.6710   18.2922 C.3     1  UNL1        0.0653
     14 C           6.0341   -2.4122   18.3965 C.ar    1  UNL1        0.0607
     15 C           6.9974   -2.2318   19.5321 C.ar    1  UNL1        0.0148
     16 C           7.8065   -0.9730   19.6364 C.ar    1  UNL1        0.0028
     17 C           7.6524    0.1052   18.6051 C.ar    1  UNL1        0.0207
     18 C           6.6891   -0.0752   17.4696 C.ar    1  UNL1        0.0984
     19 N           5.8800   -1.3340   17.3653 N.ar    1  UNL1       -0.2481
     20 C          -0.6408    3.7883   20.6478 C.3     1  UNL1        0.2526
     21 O          -0.4801    2.7213   21.6897 O.3     1  UNL1       -0.4684
     22 O           1.8339    2.2081   23.5289 O.3     1  UNL1       -0.4760
     23 C           1.2842    1.8524   24.8784 C.3     1  UNL1        0.1688
     24 C          -0.1756    2.0416   25.1673 C.3     1  UNL1        0.0609
     25 C          -0.7253    1.6860   26.5168 C.3     1  UNL1        0.0758
     26 N           0.1847    1.1412   27.5775 N.3     1  UNL1       -0.2737
     27 C           1.6444    0.9520   27.2887 C.3     1  UNL1        0.0758
     28 C           2.1942    1.3076   25.9391 C.3     1  UNL1        0.0609
     29 C          -0.3650    0.7855   28.9271 C.3     1  UNL1        0.0576
     30 C           0.1836    1.4446   30.1579 C.3     1  UNL1        0.0173
     31 C          -1.4634   -0.2291   29.0459 C.3     1  UNL1        0.0173
@<TRIPOS>BOND
     1    20    21    1
     2    21     1    1
     3     1     2   ar
     4     2     3   ar
     5     3     4   ar
     6     4     7    1
     7     7     8    2
     8     7     9   am
     9     9    11    1
    10    11    12    1
    11    11    13    1
    12    13    14    1
    13    14    15   ar
    14    15    16   ar
    15    16    17   ar
    16    17    18   ar
    17    18    19   ar
    18     4     5   ar
    19     5     6   ar
    20     6    22    1
    21    22    23    1
    22    23    24    1
    23    24    25    1
    24    25    26    1
    25    26    29    1
    26    29    30    1
    27    29    31    1
    28    26    27    1
    29    27    28    1
    30     6     1   ar
    31    28    23    1
    32    19    14   ar
    33     9    10    1
@<TRIPOS>MOLECULE
*****
 31 33 0 0 0
SMALL
GASTEIGER

@<TRIPOS>ATOM
      1 C          -6.7373  -15.2860   25.7899 C.ar    1  UNL1        0.1724
      2 C          -8.2351  -15.2604   25.8668 C.ar    1  UNL1        0.0402
      3 C          -9.0542  -15.6851   24.6841 C.ar    1  UNL1        0.0078
      4 C          -8.3755  -16.1355   23.4246 C.ar    1  UNL1        0.0566
      5 C          -6.8777  -16.1611   23.3477 C.ar    1  UNL1        0.0445
      6 C          -6.0586  -15.7364   24.5304 C.ar    1  UNL1        0.1722
      7 C          -9.1945  -16.5602   22.2419 C.2     1  UNL1        0.2459
      8 O          -8.8121  -17.7855   21.4658 O.2     1  UNL1       -0.2701
      9 N         -10.3961  -15.7596   21.8353 N.am    1  UNL1       -0.3021
     10 H         -10.6471  -14.9554   22.3447 H       1  UNL1        0.1497
     11 C         -11.2152  -16.1844   20.6526 C.3     1  UNL1        0.0778
     12 C         -11.0331  -15.5008   19.3298 C.3     1  UNL1        0.0217
     13 C         -12.2162  -17.2926   20.7927 C.3     1  UNL1        0.0653
     14 C         -12.5427  -17.8413   22.1500 C.ar    1  UNL1        0.0607
     15 C         -11.5907  -18.7817   22.8277 C.ar    1  UNL1        0.0148
     16 C         -11.9172  -19.3303   24.1850 C.ar    1  UNL1        0.0028
     17 C         -13.1957  -18.9386   24.8647 C.ar    1  UNL1        0.0207
     18 C         -14.1477  -17.9982   24.1870 C.ar    1  UNL1        0.0984
     19 N         -13.8212  -17.4495   22.8297 N.ar    1  UNL1       -0.2481
     20 C          -6.5628  -14.1127   28.1014 C.3     1  UNL1        0.2526
     21 O          -5.9182  -14.8613   26.9726 O.3     1  UNL1       -0.4684
     22 O          -4.5608  -15.7620   24.4535 O.3     1  UNL1       -0.4760
     23 C          -3.8801  -16.4638   23.3159 C.3     1  UNL1        0.1688
     24 C          -4.1199  -17.9266   23.0858 C.3     1  UNL1        0.0609
     25 C          -3.4392  -18.6283   21.9483 C.3     1  UNL1        0.0758
     26 N          -2.5187  -17.8674   21.0407 N.3     1  UNL1       -0.2737
     27 C          -2.2789  -16.4047   21.2707 C.3     1  UNL1        0.0758
     28 C          -2.9596  -15.7029   22.4083 C.3     1  UNL1        0.0609
     29 C          -1.8381  -18.5692   19.9031 C.3     1  UNL1        0.0576
     30 C          -0.3699  -18.3693   19.6692 C.3     1  UNL1        0.0173
     31 C          -2.6255  -19.4710   18.9993 C.3     1  UNL1        0.0173
@<TRIPOS>BOND
     1    20    21    1
     2    21     1    1
     3     1     2   ar
     4     2     3   ar
     5     3     4   ar
     6     4     7    1
     7     7     8    2
     8     7     9   am
     9     9    11    1
    10    11    12    1
    11    11    13    1
    12    13    14    1
    13    14    15   ar
    14    15    16   ar
    15    16    17   ar
    16    17    18   ar
    17    18    19   ar
    18     4     5   ar
    19     5     6   ar
    20     6    22    1
    21    22    23    1
    22    23    24    1
    23    24    25    1
    24    25    26    1
    25    26    29    1
    26    29    30    1
    27    29    31    1
    28    26    27    1
    29    27    28    1
    30     6     1   ar
    31    28    23    1
    32    19    14   ar
    33     9    10    1
@<TRIPOS>MOLECULE
*****
 31 33 0 0 0
SMALL
GASTEIGER

@<TRIPOS>ATOM
      1 C           6.6141   -3.0408   26.6576 C.ar    1  UNL1        0.1724
      2 C           6.9328   -4.3566   26.0119 C.ar    1  UNL1        0.0402
      3 C           6.6390   -4.5686   24.5563 C.ar    1  UNL1        0.0078
      4 C           6.0264   -3.4647   23.7464 C.ar    1  UNL1        0.0566
      5 C           5.7077   -2.1488   24.3920 C.ar    1  UNL1        0.0445
      6 C           6.0015   -1.9369   25.8476 C.ar    1  UNL1        0.1722
      7 C           5.7326   -3.6766   22.2908 C.2     1  UNL1        0.2459
      8 O           6.7466   -4.3452   21.4106 O.2     1  UNL1       -0.2701
      9 N           4.4248   -3.2200   21.7154 N.am    1  UNL1       -0.3021
     10 H           3.7593   -2.7811   22.2931 H       1  UNL1        0.1497
     11 C           4.1310   -3.4319   20.2598 C.3     1  UNL1        0.0778
     12 C           3.7658   -4.7981   19.7596 C.3     1  UNL1        0.0217
     13 C           4.2023   -2.2777   19.3045 C.3     1  UNL1        0.0653
     14 C           3.1124   -1.2473   19.2903 C.ar    1  UNL1        0.0607
     15 C           3.1189   -0.1629   18.2541 C.ar    1  UNL1        0.0148
     16 C           2.0289    0.8675   18.2400 C.ar    1  UNL1        0.0028
     17 C           0.9324    0.8135   19.2620 C.ar    1  UNL1        0.0207
     18 C           0.9259   -0.2710   20.2983 C.ar    1  UNL1        0.0984
     19 N           2.0158   -1.3014   20.3124 N.ar    1  UNL1       -0.2481
     20 C           6.5823   -3.9030   29.1082 C.3     1  UNL1        0.2526
     21 O           6.9079   -2.8288   28.1132 O.3     1  UNL1       -0.4684
     22 O           5.6827   -0.6209   26.4932 O.3     1  UNL1       -0.4760
     23 C           4.2695   -0.2969   26.8776 C.3     1  UNL1        0.1688
     24 C           3.4653    0.6563   26.0441 C.3     1  UNL1        0.0609
     25 C           2.0520    0.9803   26.4285 C.3     1  UNL1        0.0758
     26 N           1.4430    0.3511   27.6463 N.3     1  UNL1       -0.2737
     27 C           2.2471   -0.6021   28.4798 C.3     1  UNL1        0.0758
     28 C           3.6604   -0.9262   28.0954 C.3     1  UNL1        0.0609
     29 C           0.0297    0.6751   28.0307 C.3     1  UNL1        0.0576
     30 C          -0.5914    1.9660   27.5858 C.3     1  UNL1        0.0173
     31 C          -0.7624   -0.2918   28.8599 C.3     1  UNL1        0.0173
@<TRIPOS>BOND
     1    20    21    1
     2    21     1    1
     3     1     2   ar
     4     2     3   ar
     5     3     4   ar
     6     4     7    1
     7     7     8    2
     8     7     9   am
     9     9    11    1
    10    11    12    1
    11    11    13    1
    12    13    14    1
    13    14    15   ar
    14    15    16   ar
    15    16    17   ar
    16    17    18   ar
    17    18    19   ar
    18     4     5   ar
    19     5     6   ar
    20     6    22    1
    21    22    23    1
    22    23    24    1
    23    24    25    1
    24    25    26    1
    25    26    29    1
    26    29    30    1
    27    29    31    1
    28    26    27    1
    29    27    28    1
    30     6     1   ar
    31    28    23    1
    32    19    14   ar
    33     9    10    1
@<TRIPOS>MOLECULE
*****
 31 33 0 0 0
SMALL
GASTEIGER

@<TRIPOS>ATOM
      1 C           4.2646   -1.0590   18.1604 C.ar    1  UNL1        0.1724
      2 C           3.9572    0.3689   17.8190 C.ar    1  UNL1        0.0402
      3 C           2.7971    1.0625   18.4695 C.ar    1  UNL1        0.0078
      4 C           1.9444    0.3282   19.4613 C.ar    1  UNL1        0.0566
      5 C           2.2518   -1.0997   19.8026 C.ar    1  UNL1        0.0445
      6 C           3.4119   -1.7933   19.1521 C.ar    1  UNL1        0.1722
      7 C           0.7843    1.0218   20.1117 C.2     1  UNL1        0.2459
      8 O          -0.3195    0.2168   20.7310 O.2     1  UNL1       -0.2701
      9 N           0.7280    2.5203   20.1429 N.am    1  UNL1       -0.3021
     10 H           1.4524    3.0487   19.7364 H       1  UNL1        0.1497
     11 C          -0.4322    3.2139   20.7933 C.3     1  UNL1        0.0778
     12 C          -1.7623    3.2598   20.1015 C.3     1  UNL1        0.0217
     13 C          -0.2621    3.8616   22.1355 C.3     1  UNL1        0.0653
     14 C          -0.2105    3.0175   23.3744 C.ar    1  UNL1        0.0607
     15 C          -1.2076    3.2367   24.4734 C.ar    1  UNL1        0.0148
     16 C          -1.1560    2.3927   25.7123 C.ar    1  UNL1        0.0028
     17 C          -0.1073    1.3294   25.8522 C.ar    1  UNL1        0.0207
     18 C           0.8898    1.1102   24.7533 C.ar    1  UNL1        0.0984
     19 N           0.8382    1.9542   23.5144 N.ar    1  UNL1       -0.2481
     20 C           6.8280   -1.3879   17.8943 C.3     1  UNL1        0.2526
     21 O           5.4247   -1.7526   17.5099 O.3     1  UNL1       -0.4684
     22 O           3.7193   -3.2213   19.4935 O.3     1  UNL1       -0.4760
     23 C           4.7223   -3.5376   20.5631 C.3     1  UNL1        0.1688
     24 C           4.3399   -3.4186   22.0087 C.3     1  UNL1        0.0609
     25 C           5.3428   -3.7349   23.0782 C.3     1  UNL1        0.0758
     26 N           6.7282   -4.1701   22.7023 N.3     1  UNL1       -0.2737
     27 C           7.1106   -4.2890   21.2568 C.3     1  UNL1        0.0758
     28 C           6.1076   -3.9727   20.1871 C.3     1  UNL1        0.0609
     29 C           7.7312   -4.4863   23.7718 C.3     1  UNL1        0.0576
     30 C           8.1034   -5.9120   24.0531 C.3     1  UNL1        0.0173
     31 C           8.3620   -3.3770   24.5601 C.3     1  UNL1        0.0173
@<TRIPOS>BOND
     1    20    21    1
     2    21     1    1
     3     1     2   ar
     4     2     3   ar
     5     3     4   ar
     6     4     7    1
     7     7     8    2
     8     7     9   am
     9     9    11    1
    10    11    12    1
    11    11    13    1
    12    13    14    1
    13    14    15   ar
    14    15    16   ar
    15    16    17   ar
    16    17    18   ar
    17    18    19   ar
    18     4     5   ar
    19     5     6   ar
    20     6    22    1
    21    22    23    1
    22    23    24    1
    23    24    25    1
    24    25    26    1
    25    26    29    1
    26    29    30    1
    27    29    31    1
    28    26    27    1
    29    27    28    1
    30     6     1   ar
    31    28    23    1
    32    19    14   ar
    33     9    10    1
@<TRIPOS>MOLECULE
*****
 31 33 0 0 0
SMALL
GASTEIGER

@<TRIPOS>ATOM
      1 C           0.5254    1.0607   21.3802 C.ar    1  UNL1        0.1724
      2 C           0.4314    0.0434   20.2820 C.ar    1  UNL1        0.0402
      3 C           1.5300   -0.9604   20.0934 C.ar    1  UNL1        0.0078
      4 C           2.7225   -0.9469   21.0032 C.ar    1  UNL1        0.0566
      5 C           2.8165    0.0704   22.1014 C.ar    1  UNL1        0.0445
      6 C           1.7179    1.0742   22.2900 C.ar    1  UNL1        0.1722
      7 C           3.8211   -1.9507   20.8146 C.2     1  UNL1        0.2459
      8 O           3.5771   -3.1852   19.9983 O.2     1  UNL1       -0.2701
      9 N           5.1637   -1.7200   21.4424 N.am    1  UNL1       -0.3021
     10 H           5.3239   -0.9097   21.9782 H       1  UNL1        0.1497
     11 C           6.2623   -2.7238   21.2539 C.3     1  UNL1        0.0778
     12 C           7.2289   -2.5731   20.1167 C.3     1  UNL1        0.0217
     13 C           6.3943   -3.8782   22.2024 C.3     1  UNL1        0.0653
     14 C           6.3925   -3.6366   23.6828 C.ar    1  UNL1        0.0607
     15 C           7.0234   -4.6358   24.6066 C.ar    1  UNL1        0.0148
     16 C           7.0216   -4.3942   26.0870 C.ar    1  UNL1        0.0028
     17 C           6.3889   -3.1533   26.6436 C.ar    1  UNL1        0.0207
     18 C           5.7580   -2.1541   25.7198 C.ar    1  UNL1        0.0984
     19 N           5.7598   -2.3957   24.2394 N.ar    1  UNL1       -0.2481
     20 C          -1.0987    2.8312   20.3916 C.3     1  UNL1        0.2526
     21 O          -0.5732    2.0645   21.5688 O.3     1  UNL1       -0.4684
     22 O           1.8119    2.0915   23.3883 O.3     1  UNL1       -0.4760
     23 C           1.2756    1.7740   24.7526 C.3     1  UNL1        0.1688
     24 C           2.1798    1.1886   25.7965 C.3     1  UNL1        0.0609
     25 C           1.6435    0.8710   27.1608 C.3     1  UNL1        0.0758
     26 N           0.2028    1.1389   27.4814 N.3     1  UNL1       -0.2737
     27 C          -0.7015    1.7244   26.4376 C.3     1  UNL1        0.0758
     28 C          -0.1651    2.0419   25.0732 C.3     1  UNL1        0.0609
     29 C          -0.3336    0.8214   28.8457 C.3     1  UNL1        0.0576
     30 C           0.2564    1.4825   30.0561 C.3     1  UNL1        0.0173
     31 C          -1.4599   -0.1572   28.9997 C.3     1  UNL1        0.0173
@<TRIPOS>BOND
     1    20    21    1
     2    21     1    1
     3     1     2   ar
     4     2     3   ar
     5     3     4   ar
     6     4     7    1
     7     7     8    2
     8     7     9   am
     9     9    11    1
    10    11    12    1
    11    11    13    1
    12    13    14    1
    13    14    15   ar
    14    15    16   ar
    15    16    17   ar
    16    17    18   ar
    17    18    19   ar
    18     4     5   ar
    19     5     6   ar
    20     6    22    1
    21    22    23    1
    22    23    24    1
    23    24    25    1
    24    25    26    1
    25    26    29    1
    26    29    30    1
    27    29    31    1
    28    26    27    1
    29    27    28    1
    30     6     1   ar
    31    28    23    1
    32    19    14   ar
    33     9    10    1
@<TRIPOS>MOLECULE
*****
 31 33 0 0 0
SMALL
GASTEIGER

@<TRIPOS>ATOM
      1 C           7.8686   -6.3476   25.1814 C.ar    1  UNL1        0.1724
      2 C           7.6206   -7.0552   26.4805 C.ar    1  UNL1        0.0402
      3 C           7.5694   -6.2759   27.7612 C.ar    1  UNL1        0.0078
      4 C           7.7661   -4.7890   27.7427 C.ar    1  UNL1        0.0566
      5 C           8.0141   -4.0814   26.4436 C.ar    1  UNL1        0.0445
      6 C           8.0653   -4.8607   25.1630 C.ar    1  UNL1        0.1722
      7 C           7.7149   -4.0097   29.0234 C.2     1  UNL1        0.2459
      8 O           8.9849   -3.5266   29.6587 O.2     1  UNL1       -0.2701
      9 N           6.3936   -3.7136   29.6688 N.am    1  UNL1       -0.3021
     10 H           5.5600   -4.0307   29.2518 H       1  UNL1        0.1497
     11 C           6.3424   -2.9343   30.9494 C.3     1  UNL1        0.0778
     12 C           6.7774   -3.5740   32.2346 C.3     1  UNL1        0.0217
     13 C           5.8562   -1.5153   30.9450 C.3     1  UNL1        0.0653
     14 C           4.6357   -1.1431   30.1563 C.ar    1  UNL1        0.0607
     15 C           3.3980   -0.6782   30.8647 C.ar    1  UNL1        0.0148
     16 C           2.1775   -0.3060   30.0761 C.ar    1  UNL1        0.0028
     17 C           2.1948   -0.3988   28.5791 C.ar    1  UNL1        0.0207
     18 C           3.4325   -0.8637   27.8707 C.ar    1  UNL1        0.0984
     19 N           4.6530   -1.2359   28.6593 N.ar    1  UNL1       -0.2481
     20 C           9.2436   -7.4794   23.2898 C.3     1  UNL1        0.2526
     21 O           7.9198   -7.1269   23.9008 O.3     1  UNL1       -0.4684
     22 O           8.3133   -4.1530   23.8638 O.3     1  UNL1       -0.4760
     23 C           7.1892   -3.9565   22.8903 C.3     1  UNL1        0.1688
     24 C           5.7914   -3.7437   23.3916 C.3     1  UNL1        0.0609
     25 C           4.6673   -3.5472   22.4181 C.3     1  UNL1        0.0758
     26 N           4.9409   -3.5635   20.9433 N.3     1  UNL1       -0.2737
     27 C           6.3385   -3.7762   20.4420 C.3     1  UNL1        0.0758
     28 C           7.4627   -3.9727   21.4155 C.3     1  UNL1        0.0609
     29 C           3.8168   -3.3670   19.9698 C.3     1  UNL1        0.0576
     30 C           3.1393   -2.0326   19.8657 C.3     1  UNL1        0.0173
     31 C           3.3700   -4.5047   19.1004 C.3     1  UNL1        0.0173
@<TRIPOS>BOND
     1    20    21    1
     2    21     1    1
     3     1     2   ar
     4     2     3   ar
     5     3     4   ar
     6     4     7    1
     7     7     8    2
     8     7     9   am
     9     9    11    1
    10    11    12    1
    11    11    13    1
    12    13    14    1
    13    14    15   ar
    14    15    16   ar
    15    16    17   ar
    16    17    18   ar
    17    18    19   ar
    18     4     5   ar
    19     5     6   ar
    20     6    22    1
    21    22    23    1
    22    23    24    1
    23    24    25    1
    24    25    26    1
    25    26    29    1
    26    29    30    1
    27    29    31    1
    28    26    27    1
    29    27    28    1
    30     6     1   ar
    31    28    23    1
    32    19    14   ar
    33     9    10    1
