@<TRIPOS>MOLECULE
*****
 29 32 0 0 0
SMALL
GASTEIGER

@<TRIPOS>ATOM
      1 C          -7.9005  -15.2216   27.2734 C.3     1  UNL1        0.2226
      2 C          -8.4853  -16.5951   27.1271 C.3     1  UNL1        0.1200
      3 C         -10.2156  -17.8956   23.1819 C.3     1  UNL1        0.0087
      4 C         -10.1748  -18.8537   24.3353 C.3     1  UNL1        0.0178
      5 C          -9.5981  -18.4202   25.6503 C.3     1  UNL1        0.0722
      6 N          -9.0621  -17.0286   25.8120 N.3     1  UNL1       -0.2696
      7 C          -9.1028  -16.0705   24.6586 C.3     1  UNL1        0.0722
      8 C          -9.6796  -16.5039   23.3436 C.3     1  UNL1        0.0178
      9 C         -10.7923  -18.3290   21.8668 C.3     1  UNL1        0.0475
     10 C         -11.5523  -15.7147   19.1004 C.ar    1  UNL1        0.1747
     11 N         -10.6159  -16.6710   19.7776 N.ar    1  UNL1       -0.2285
     12 C         -11.3503  -17.3085   20.9196 C.ar    1  UNL1        0.0776
     13 C         -12.7406  -16.7462   20.9482 C.ar    1  UNL1        0.0885
     14 N         -12.8655  -15.7612   19.8239 N.ar    1  UNL1       -0.3340
     15 H         -13.6684  -15.2372   19.6001 H       1  UNL1        0.1675
     16 O          -6.4192  -15.0199   27.1489 O.3     1  UNL1       -0.4740
     17 C          -5.6727  -15.6329   26.0013 C.ar    1  UNL1        0.1386
     18 C          -5.8724  -15.1076   24.6105 C.ar    1  UNL1        0.0366
     19 C          -5.1259  -15.7205   23.4630 C.ar    1  UNL1        0.0002
     20 C          -4.1797  -16.8588   23.7061 C.ar    1  UNL1       -0.0059
     21 C          -3.9800  -17.3841   25.0969 C.ar    1  UNL1        0.0002
     22 C          -4.7266  -16.7711   26.2445 C.ar    1  UNL1        0.0366
     23 C          -3.4332  -17.4718   22.5585 C.3     1  UNL1        0.0991
     24 N          -4.0511  -18.5911   21.7741 N.3     1  UNL1       -0.2690
     25 C          -3.2500  -19.3030   20.7246 C.3     1  UNL1        0.0724
     26 C          -3.8679  -20.4223   19.9402 C.3     1  UNL1        0.0174
     27 C          -5.2869  -20.8297   20.2052 C.3     1  UNL1        0.0029
     28 C          -6.0881  -20.1178   21.2546 C.3     1  UNL1        0.0174
     29 C          -5.4702  -18.9985   22.0390 C.3     1  UNL1        0.0724
@<TRIPOS>BOND
     1    10    11   ar
     2    11    12   ar
     3    12     9    1
     4     9     3    1
     5     3     4    1
     6     4     5    1
     7     5     6    1
     8     6     2    1
     9     2     1    1
    10     1    16    1
    11    16    17    1
    12    17    18   ar
    13    18    19   ar
    14    19    20   ar
    15    20    23    1
    16    23    24    1
    17    24    25    1
    18    25    26    1
    19    26    27    1
    20    27    28    1
    21    28    29    1
    22    20    21   ar
    23    21    22   ar
    24     6     7    1
    25     7     8    1
    26    12    13   ar
    27    13    14   ar
    28    14    10   ar
    29     8     3    1
    30    22    17   ar
    31    29    24    1
    32    14    15    1
@<TRIPOS>MOLECULE
*****
 29 32 0 0 0
SMALL
GASTEIGER

@<TRIPOS>ATOM
      1 C          -2.7598  -20.5114   20.6713 C.3     1  UNL1        0.2226
      2 C          -3.9378  -20.1489   19.8164 C.3     1  UNL1        0.1200
      3 C          -7.9697  -19.4908   21.7032 C.3     1  UNL1        0.0087
      4 C          -7.5724  -18.7042   20.4895 C.3     1  UNL1        0.0178
      5 C          -6.2284  -18.9236   19.8605 C.3     1  UNL1        0.0722
      6 N          -5.2818  -19.9295   20.4454 N.3     1  UNL1       -0.2696
      7 C          -5.6792  -20.7161   21.6592 C.3     1  UNL1        0.0722
      8 C          -7.0232  -20.4967   22.2881 C.3     1  UNL1        0.0178
      9 C          -9.3138  -19.2714   22.3322 C.3     1  UNL1        0.0475
     10 C         -11.3682  -16.1677   21.2318 C.ar    1  UNL1        0.1747
     11 N         -10.2547  -16.7889   22.0219 N.ar    1  UNL1       -0.2285
     12 C         -10.2594  -18.2638   21.7488 C.ar    1  UNL1        0.0776
     13 C         -11.3758  -18.5541   20.7899 C.ar    1  UNL1        0.0885
     14 N         -12.0611  -17.2587   20.4704 N.ar    1  UNL1       -0.3340
     15 H         -12.8305  -17.1445   19.8668 H       1  UNL1        0.1675
     16 O          -1.9952  -19.4387   21.3888 O.3     1  UNL1       -0.4740
     17 C          -2.7270  -18.2963   22.0287 C.ar    1  UNL1        0.1386
     18 C          -3.7805  -18.5652   23.0621 C.ar    1  UNL1        0.0366
     19 C          -4.5123  -17.4229   23.7020 C.ar    1  UNL1        0.0002
     20 C          -4.1906  -16.0116   23.3084 C.ar    1  UNL1       -0.0059
     21 C          -3.1372  -15.7427   22.2750 C.ar    1  UNL1        0.0002
     22 C          -2.4054  -16.8851   21.6351 C.ar    1  UNL1        0.0366
     23 C          -4.9224  -14.8692   23.9483 C.3     1  UNL1        0.0991
     24 N          -6.0530  -15.1397   24.8963 N.3     1  UNL1       -0.2690
     25 C          -7.4591  -15.2266   24.3813 C.3     1  UNL1        0.0724
     26 C          -8.5897  -15.4971   25.3293 C.3     1  UNL1        0.0174
     27 C          -8.3142  -15.6806   26.7923 C.3     1  UNL1        0.0029
     28 C          -6.9080  -15.5936   27.3073 C.3     1  UNL1        0.0174
     29 C          -5.7775  -15.3232   26.3593 C.3     1  UNL1        0.0724
@<TRIPOS>BOND
     1    10    11   ar
     2    11    12   ar
     3    12     9    1
     4     9     3    1
     5     3     4    1
     6     4     5    1
     7     5     6    1
     8     6     2    1
     9     2     1    1
    10     1    16    1
    11    16    17    1
    12    17    18   ar
    13    18    19   ar
    14    19    20   ar
    15    20    23    1
    16    23    24    1
    17    24    25    1
    18    25    26    1
    19    26    27    1
    20    27    28    1
    21    28    29    1
    22    20    21   ar
    23    21    22   ar
    24     6     7    1
    25     7     8    1
    26    12    13   ar
    27    13    14   ar
    28    14    10   ar
    29     8     3    1
    30    22    17   ar
    31    29    24    1
    32    14    15    1
@<TRIPOS>MOLECULE
*****
 29 32 0 0 0
SMALL
GASTEIGER

@<TRIPOS>ATOM
      1 C          -8.0586  -15.3764   27.2651 C.3     1  UNL1        0.2226
      2 C          -8.5866  -16.7576   27.0129 C.3     1  UNL1        0.1200
      3 C         -10.3435  -17.7972   23.0026 C.3     1  UNL1        0.0087
      4 C          -9.8315  -16.4111   23.2605 C.3     1  UNL1        0.0178
      5 C          -9.2459  -16.0646   24.5973 C.3     1  UNL1        0.0722
      6 N          -9.1723  -17.1042   25.6761 N.3     1  UNL1       -0.2696
      7 C          -9.6843  -18.4902   25.4182 C.3     1  UNL1        0.0722
      8 C         -10.2699  -18.8368   24.0815 C.3     1  UNL1        0.0178
      9 C         -10.9292  -18.1438   21.6658 C.3     1  UNL1        0.0475
     10 C          -8.1435  -19.5121   19.3350 C.ar    1  UNL1        0.1747
     11 N          -8.5774  -18.7264   20.5368 N.ar    1  UNL1       -0.2285
     12 C         -10.0739  -18.7911   20.6174 C.ar    1  UNL1        0.0776
     13 C         -10.5648  -19.6168   19.4653 C.ar    1  UNL1        0.0885
     14 N          -9.3718  -20.0625   18.6727 N.ar    1  UNL1       -0.3340
     15 H          -9.3914  -20.6185   17.8605 H       1  UNL1        0.1675
     16 O          -6.5806  -15.1218   27.2376 O.3     1  UNL1       -0.4740
     17 C          -5.7502  -15.6459   26.1037 C.ar    1  UNL1        0.1386
     18 C          -5.9309  -15.0900   24.7223 C.ar    1  UNL1        0.0366
     19 C          -5.1005  -15.6141   23.5884 C.ar    1  UNL1        0.0002
     20 C          -4.0894  -16.6943   23.8359 C.ar    1  UNL1       -0.0059
     21 C          -3.9088  -17.2502   25.2174 C.ar    1  UNL1        0.0002
     22 C          -4.7393  -16.7260   26.3513 C.ar    1  UNL1        0.0366
     23 C          -3.2591  -17.2184   22.7021 C.3     1  UNL1        0.0991
     24 N          -3.7774  -18.3367   21.8473 N.3     1  UNL1       -0.2690
     25 C          -4.9201  -19.1809   22.3284 C.3     1  UNL1        0.0724
     26 C          -5.4384  -20.2992   21.4736 C.3     1  UNL1        0.0174
     27 C          -4.8140  -20.5734   20.1376 C.3     1  UNL1        0.0029
     28 C          -3.6713  -19.7292   19.6564 C.3     1  UNL1        0.0174
     29 C          -3.1530  -18.6109   20.5113 C.3     1  UNL1        0.0724
@<TRIPOS>BOND
     1    10    11   ar
     2    11    12   ar
     3    12     9    1
     4     9     3    1
     5     3     4    1
     6     4     5    1
     7     5     6    1
     8     6     2    1
     9     2     1    1
    10     1    16    1
    11    16    17    1
    12    17    18   ar
    13    18    19   ar
    14    19    20   ar
    15    20    23    1
    16    23    24    1
    17    24    25    1
    18    25    26    1
    19    26    27    1
    20    27    28    1
    21    28    29    1
    22    20    21   ar
    23    21    22   ar
    24     6     7    1
    25     7     8    1
    26    12    13   ar
    27    13    14   ar
    28    14    10   ar
    29     8     3    1
    30    22    17   ar
    31    29    24    1
    32    14    15    1
@<TRIPOS>MOLECULE
*****
 29 32 0 0 0
SMALL
GASTEIGER

@<TRIPOS>ATOM
      1 C          -6.6009  -15.6125   27.4671 C.3     1  UNL1        0.2226
      2 C          -5.9074  -15.0509   26.2615 C.3     1  UNL1        0.1200
      3 C          -4.1210  -17.8221   23.1989 C.3     1  UNL1        0.0087
      4 C          -3.4766  -17.6772   24.5457 C.3     1  UNL1        0.0178
      5 C          -4.0721  -16.7535   25.5665 C.3     1  UNL1        0.0722
      6 N          -5.3119  -15.9747   25.2406 N.3     1  UNL1       -0.2696
      7 C          -5.9563  -16.1196   23.8939 C.3     1  UNL1        0.0722
      8 C          -5.3609  -17.0433   22.8730 C.3     1  UNL1        0.0178
      9 C          -3.5256  -18.7459   22.1780 C.3     1  UNL1        0.0475
     10 C          -0.3205  -18.2619   20.0431 C.ar    1  UNL1        0.1747
     11 N          -1.2257  -19.1260   20.8701 N.ar    1  UNL1       -0.2285
     12 C          -2.3804  -18.2843   21.3263 C.ar    1  UNL1        0.0776
     13 C          -2.1889  -16.9000   20.7813 C.ar    1  UNL1        0.0885
     14 N          -0.9158  -16.8861   19.9882 N.ar    1  UNL1       -0.3340
     15 H          -0.5373  -16.1103   19.5148 H       1  UNL1        0.1675
     16 O          -8.0896  -15.7970   27.4579 O.3     1  UNL1       -0.4740
     17 C          -8.7683  -16.3584   26.2438 C.ar    1  UNL1        0.1386
     18 C          -9.1660  -17.8043   26.2081 C.ar    1  UNL1        0.0366
     19 C          -9.8447  -18.3657   24.9940 C.ar    1  UNL1        0.0002
     20 C         -10.1257  -17.4812   23.8155 C.ar    1  UNL1       -0.0059
     21 C          -9.7280  -16.0353   23.8512 C.ar    1  UNL1        0.0002
     22 C          -9.0493  -15.4739   25.0654 C.ar    1  UNL1        0.0366
     23 C         -10.8044  -18.0425   22.6013 C.3     1  UNL1        0.0991
     24 N          -9.9864  -18.6208   21.4849 N.3     1  UNL1       -0.2690
     25 C         -10.6660  -19.2122   20.2856 C.3     1  UNL1        0.0724
     26 C          -9.8480  -19.7904   19.1691 C.3     1  UNL1        0.0174
     27 C          -8.3504  -19.7773   19.2519 C.3     1  UNL1        0.0029
     28 C          -7.6708  -19.1859   20.4512 C.3     1  UNL1        0.0174
     29 C          -8.4888  -18.6077   21.5677 C.3     1  UNL1        0.0724
@<TRIPOS>BOND
     1    10    11   ar
     2    11    12   ar
     3    12     9    1
     4     9     3    1
     5     3     4    1
     6     4     5    1
     7     5     6    1
     8     6     2    1
     9     2     1    1
    10     1    16    1
    11    16    17    1
    12    17    18   ar
    13    18    19   ar
    14    19    20   ar
    15    20    23    1
    16    23    24    1
    17    24    25    1
    18    25    26    1
    19    26    27    1
    20    27    28    1
    21    28    29    1
    22    20    21   ar
    23    21    22   ar
    24     6     7    1
    25     7     8    1
    26    12    13   ar
    27    13    14   ar
    28    14    10   ar
    29     8     3    1
    30    22    17   ar
    31    29    24    1
    32    14    15    1
@<TRIPOS>MOLECULE
*****
 29 32 0 0 0
SMALL
GASTEIGER

@<TRIPOS>ATOM
      1 C          -3.9670  -20.4475   19.7526 C.3     1  UNL1        0.2226
      2 C          -3.0159  -19.9443   20.7976 C.3     1  UNL1        0.1200
      3 C          -4.1989  -16.5048   23.4472 C.3     1  UNL1        0.0087
      4 C          -4.9106  -17.8200   23.5631 C.3     1  UNL1        0.0178
      5 C          -4.5163  -18.9665   22.6799 C.3     1  UNL1        0.0722
      6 N          -3.4102  -18.7977   21.6808 N.3     1  UNL1       -0.2696
      7 C          -2.6985  -17.4824   21.5649 C.3     1  UNL1        0.0722
      8 C          -3.0929  -16.3360   22.4481 C.3     1  UNL1        0.0178
      9 C          -4.5932  -15.3582   24.3304 C.3     1  UNL1        0.0475
     10 C          -7.6923  -15.5554   26.6590 C.ar    1  UNL1        0.1747
     11 N          -6.2171  -15.6964   26.4264 N.ar    1  UNL1       -0.2285
     12 C          -5.9385  -15.3506   24.9937 C.ar    1  UNL1        0.0776
     13 C          -7.2415  -14.9958   24.3407 C.ar    1  UNL1        0.0885
     14 N          -8.3254  -15.1223   25.3699 N.ar    1  UNL1       -0.3340
     15 H          -9.2840  -14.9512   25.2248 H       1  UNL1        0.1675
     16 O          -5.1968  -21.2040   20.1595 O.3     1  UNL1       -0.4740
     17 C          -6.5484  -20.5685   20.0210 C.ar    1  UNL1        0.1386
     18 C          -7.4771  -21.0113   18.9295 C.ar    1  UNL1        0.0366
     19 C          -8.8287  -20.3758   18.7910 C.ar    1  UNL1        0.0002
     20 C          -9.2516  -19.2973   19.7440 C.ar    1  UNL1       -0.0059
     21 C          -8.3229  -18.8545   20.8355 C.ar    1  UNL1        0.0002
     22 C          -6.9712  -19.4901   20.9740 C.ar    1  UNL1        0.0366
     23 C         -10.6032  -18.6618   19.6055 C.3     1  UNL1        0.0991
     24 N         -11.2992  -18.1084   20.8136 N.3     1  UNL1       -0.2690
     25 C         -11.7676  -16.6835   20.8223 C.3     1  UNL1        0.0724
     26 C         -12.4635  -16.1302   22.0304 C.3     1  UNL1        0.0174
     27 C         -12.6911  -17.0017   23.2298 C.3     1  UNL1        0.0029
     28 C         -12.2226  -18.4266   23.2211 C.3     1  UNL1        0.0174
     29 C         -11.5267  -18.9800   22.0130 C.3     1  UNL1        0.0724
@<TRIPOS>BOND
     1    10    11   ar
     2    11    12   ar
     3    12     9    1
     4     9     3    1
     5     3     4    1
     6     4     5    1
     7     5     6    1
     8     6     2    1
     9     2     1    1
    10     1    16    1
    11    16    17    1
    12    17    18   ar
    13    18    19   ar
    14    19    20   ar
    15    20    23    1
    16    23    24    1
    17    24    25    1
    18    25    26    1
    19    26    27    1
    20    27    28    1
    21    28    29    1
    22    20    21   ar
    23    21    22   ar
    24     6     7    1
    25     7     8    1
    26    12    13   ar
    27    13    14   ar
    28    14    10   ar
    29     8     3    1
    30    22    17   ar
    31    29    24    1
    32    14    15    1
@<TRIPOS>MOLECULE
*****
 29 32 0 0 0
SMALL
GASTEIGER

@<TRIPOS>ATOM
      1 C          -3.0901  -20.4155   20.4197 C.3     1  UNL1        0.2226
      2 C          -2.2575  -19.3818   21.1183 C.3     1  UNL1        0.1200
      3 C          -4.2491  -16.0946   23.4588 C.3     1  UNL1        0.0087
      4 C          -3.2389  -15.7572   22.4027 C.3     1  UNL1        0.0178
      5 C          -2.5750  -16.8529   21.6225 C.3     1  UNL1        0.0722
      6 N          -2.9214  -18.2860   21.8985 N.3     1  UNL1       -0.2696
      7 C          -3.9316  -18.6234   22.9547 C.3     1  UNL1        0.0722
      8 C          -4.5955  -17.5277   23.7349 C.3     1  UNL1        0.0178
      9 C          -4.9130  -14.9989   24.2391 C.3     1  UNL1        0.0475
     10 C          -8.3837  -15.6980   25.8296 C.ar    1  UNL1        0.1747
     11 N          -7.5307  -15.3569   24.6439 N.ar    1  UNL1       -0.2285
     12 C          -6.1026  -15.3057   25.0996 C.ar    1  UNL1        0.0776
     13 C          -6.0729  -15.6151   26.5671 C.ar    1  UNL1        0.0885
     14 N          -7.4828  -15.8576   27.0183 N.ar    1  UNL1       -0.3340
     15 H          -7.7669  -16.0821   27.9338 H       1  UNL1        0.1675
     16 O          -4.3602  -20.0145   19.7296 O.3     1  UNL1       -0.4740
     17 C          -5.6346  -19.8985   20.5121 C.ar    1  UNL1        0.1386
     18 C          -5.8663  -20.7804   21.7031 C.ar    1  UNL1        0.0366
     19 C          -7.1407  -20.6644   22.4857 C.ar    1  UNL1        0.0002
     20 C          -8.1834  -19.6664   22.0773 C.ar    1  UNL1       -0.0059
     21 C          -7.9517  -18.7844   20.8862 C.ar    1  UNL1        0.0002
     22 C          -6.6772  -18.9005   20.1037 C.ar    1  UNL1        0.0366
     23 C          -9.4578  -19.5503   22.8598 C.3     1  UNL1        0.0991
     24 N         -10.4594  -18.4902   22.5092 N.3     1  UNL1       -0.2690
     25 C         -11.5762  -18.7991   21.5568 C.3     1  UNL1        0.0724
     26 C         -12.5778  -17.7389   21.2062 C.3     1  UNL1        0.0174
     27 C         -12.4625  -16.3698   21.8080 C.3     1  UNL1        0.0029
     28 C         -11.3456  -16.0609   22.7604 C.3     1  UNL1        0.0174
     29 C         -10.3440  -17.1211   23.1110 C.3     1  UNL1        0.0724
@<TRIPOS>BOND
     1    10    11   ar
     2    11    12   ar
     3    12     9    1
     4     9     3    1
     5     3     4    1
     6     4     5    1
     7     5     6    1
     8     6     2    1
     9     2     1    1
    10     1    16    1
    11    16    17    1
    12    17    18   ar
    13    18    19   ar
    14    19    20   ar
    15    20    23    1
    16    23    24    1
    17    24    25    1
    18    25    26    1
    19    26    27    1
    20    27    28    1
    21    28    29    1
    22    20    21   ar
    23    21    22   ar
    24     6     7    1
    25     7     8    1
    26    12    13   ar
    27    13    14   ar
    28    14    10   ar
    29     8     3    1
    30    22    17   ar
    31    29    24    1
    32    14    15    1
@<TRIPOS>MOLECULE
*****
 29 32 0 0 0
SMALL
GASTEIGER

@<TRIPOS>ATOM
      1 C          -7.3731  -14.8702   27.2512 C.3     1  UNL1        0.2226
      2 C          -8.0331  -16.2158   27.3128 C.3     1  UNL1        0.1200
      3 C         -10.4170  -17.7154   23.8031 C.3     1  UNL1        0.0087
      4 C         -10.1489  -18.6201   24.9691 C.3     1  UNL1        0.0178
      5 C          -9.3543  -18.1202   26.1389 C.3     1  UNL1        0.0722
      6 N          -8.8278  -16.7156   26.1428 N.3     1  UNL1       -0.2696
      7 C          -9.0959  -15.8109   24.9768 C.3     1  UNL1        0.0722
      8 C          -9.8905  -16.3108   23.8070 C.3     1  UNL1        0.0178
      9 C         -11.2117  -18.2152   22.6331 C.3     1  UNL1        0.0475
     10 C         -11.1804  -15.8792   19.5336 C.ar    1  UNL1        0.1747
     11 N         -10.4635  -16.7235   20.5452 N.ar    1  UNL1       -0.2285
     12 C         -11.4885  -17.3073   21.4716 C.ar    1  UNL1        0.0776
     13 C         -12.8389  -16.8239   21.0327 C.ar    1  UNL1        0.0885
     14 N         -12.6485  -15.9412   19.8350 N.ar    1  UNL1       -0.3340
     15 H         -13.3619  -15.4831   19.3345 H       1  UNL1        0.1675
     16 O          -5.9521  -14.7524   26.7852 O.3     1  UNL1       -0.4740
     17 C          -5.4340  -15.6711   25.7187 C.ar    1  UNL1        0.1386
     18 C          -4.3822  -16.6877   26.0507 C.ar    1  UNL1        0.0366
     19 C          -3.8640  -17.6065   24.9842 C.ar    1  UNL1        0.0002
     20 C          -4.3976  -17.5086   23.5857 C.ar    1  UNL1       -0.0059
     21 C          -5.4494  -16.4919   23.2538 C.ar    1  UNL1        0.0002
     22 C          -5.9676  -15.5732   24.3203 C.ar    1  UNL1        0.0366
     23 C          -3.8794  -18.4273   22.5192 C.3     1  UNL1        0.0991
     24 N          -2.7080  -18.0147   21.6781 N.3     1  UNL1       -0.2690
     25 C          -2.0841  -18.9944   20.7289 C.3     1  UNL1        0.0724
     26 C          -0.9127  -18.5818   19.8878 C.3     1  UNL1        0.0174
     27 C          -0.3652  -17.1895   19.9958 C.3     1  UNL1        0.0029
     28 C          -0.9891  -16.2098   20.9449 C.3     1  UNL1        0.0174
     29 C          -2.1605  -16.6224   21.7861 C.3     1  UNL1        0.0724
@<TRIPOS>BOND
     1    10    11   ar
     2    11    12   ar
     3    12     9    1
     4     9     3    1
     5     3     4    1
     6     4     5    1
     7     5     6    1
     8     6     2    1
     9     2     1    1
    10     1    16    1
    11    16    17    1
    12    17    18   ar
    13    18    19   ar
    14    19    20   ar
    15    20    23    1
    16    23    24    1
    17    24    25    1
    18    25    26    1
    19    26    27    1
    20    27    28    1
    21    28    29    1
    22    20    21   ar
    23    21    22   ar
    24     6     7    1
    25     7     8    1
    26    12    13   ar
    27    13    14   ar
    28    14    10   ar
    29     8     3    1
    30    22    17   ar
    31    29    24    1
    32    14    15    1
@<TRIPOS>MOLECULE
*****
 29 32 0 0 0
SMALL
GASTEIGER

@<TRIPOS>ATOM
      1 C          -7.3103  -14.8558   27.2647 C.3     1  UNL1        0.2226
      2 C          -8.1387  -16.1032   27.3526 C.3     1  UNL1        0.1200
      3 C         -10.2856  -17.6399   23.7086 C.3     1  UNL1        0.0087
      4 C          -9.8067  -16.2192   23.7534 C.3     1  UNL1        0.0178
      5 C          -9.0910  -15.7070   24.9681 C.3     1  UNL1        0.0722
      6 N          -8.8544  -16.6155   26.1379 N.3     1  UNL1       -0.2696
      7 C          -9.3333  -18.0362   26.0931 C.3     1  UNL1        0.0722
      8 C         -10.0489  -18.5484   24.8784 C.3     1  UNL1        0.0178
      9 C         -11.0013  -18.1522   22.4938 C.3     1  UNL1        0.0475
     10 C          -8.4617  -19.5197   19.8967 C.ar    1  UNL1        0.1747
     11 N          -8.8648  -19.2430   21.3148 N.ar    1  UNL1       -0.2285
     12 C         -10.2185  -18.5973   21.2942 C.ar    1  UNL1        0.0776
     13 C         -10.6521  -18.4749   19.8635 C.ar    1  UNL1        0.0885
     14 N          -9.5663  -19.0450   18.9997 N.ar    1  UNL1       -0.3340
     15 H          -9.5768  -19.0983   18.0167 H       1  UNL1        0.1675
     16 O          -5.8527  -14.9461   26.9220 O.3     1  UNL1       -0.4740
     17 C          -5.4059  -15.7830   25.7602 C.ar    1  UNL1        0.1386
     18 C          -4.3434  -16.8246   25.9508 C.ar    1  UNL1        0.0366
     19 C          -3.8966  -17.6615   24.7890 C.ar    1  UNL1        0.0002
     20 C          -4.5122  -17.4569   23.4365 C.ar    1  UNL1       -0.0059
     21 C          -5.5746  -16.4153   23.2458 C.ar    1  UNL1        0.0002
     22 C          -6.0214  -15.5784   24.4077 C.ar    1  UNL1        0.0366
     23 C          -4.0653  -18.2938   22.2747 C.3     1  UNL1        0.0991
     24 N          -2.8225  -17.9262   21.5196 N.3     1  UNL1       -0.2690
     25 C          -2.2107  -16.5683   21.6977 C.3     1  UNL1        0.0724
     26 C          -0.9679  -16.2007   20.9426 C.3     1  UNL1        0.0174
     27 C          -0.3368  -17.1910   20.0093 C.3     1  UNL1        0.0029
     28 C          -0.9485  -18.5489   19.8312 C.3     1  UNL1        0.0174
     29 C          -2.1914  -18.9165   20.5863 C.3     1  UNL1        0.0724
@<TRIPOS>BOND
     1    10    11   ar
     2    11    12   ar
     3    12     9    1
     4     9     3    1
     5     3     4    1
     6     4     5    1
     7     5     6    1
     8     6     2    1
     9     2     1    1
    10     1    16    1
    11    16    17    1
    12    17    18   ar
    13    18    19   ar
    14    19    20   ar
    15    20    23    1
    16    23    24    1
    17    24    25    1
    18    25    26    1
    19    26    27    1
    20    27    28    1
    21    28    29    1
    22    20    21   ar
    23    21    22   ar
    24     6     7    1
    25     7     8    1
    26    12    13   ar
    27    13    14   ar
    28    14    10   ar
    29     8     3    1
    30    22    17   ar
    31    29    24    1
    32    14    15    1
@<TRIPOS>MOLECULE
*****
 29 32 0 0 0
SMALL
GASTEIGER

@<TRIPOS>ATOM
      1 C          -2.2164  -20.0544   20.9534 C.3     1  UNL1        0.2226
      2 C          -1.6976  -18.9542   21.8311 C.3     1  UNL1        0.1200
      3 C          -4.5522  -15.9807   23.6363 C.3     1  UNL1        0.0087
      4 C          -4.6458  -17.4309   24.0077 C.3     1  UNL1        0.0178
      5 C          -3.6942  -18.4221   23.4060 C.3     1  UNL1        0.0722
      6 N          -2.6492  -17.9629   22.4328 N.3     1  UNL1       -0.2696
      7 C          -2.5556  -16.5127   22.0614 C.3     1  UNL1        0.0722
      8 C          -3.5071  -15.5216   22.6632 C.3     1  UNL1        0.0178
      9 C          -5.5038  -14.9894   24.2381 C.3     1  UNL1        0.0475
     10 C          -9.2778  -15.6126   24.8965 C.ar    1  UNL1        0.1747
     11 N          -7.8888  -15.3399   25.3929 N.ar    1  UNL1       -0.2285
     12 C          -6.9805  -15.2505   24.2026 C.ar    1  UNL1        0.0776
     13 C          -7.8080  -15.4679   22.9706 C.ar    1  UNL1        0.0885
     14 N          -9.2279  -15.6917   23.3994 N.ar    1  UNL1       -0.3340
     15 H          -9.9927  -15.8609   22.8030 H       1  UNL1        0.1675
     16 O          -3.1235  -19.7315   19.8031 O.3     1  UNL1       -0.4740
     17 C          -4.6112  -19.7464   19.9941 C.ar    1  UNL1        0.1386
     18 C          -5.3482  -18.4639   20.2434 C.ar    1  UNL1        0.0366
     19 C          -6.8359  -18.4788   20.4344 C.ar    1  UNL1        0.0002
     20 C          -7.5866  -19.7761   20.3761 C.ar    1  UNL1       -0.0059
     21 C          -6.8496  -21.0586   20.1268 C.ar    1  UNL1        0.0002
     22 C          -5.3619  -21.0437   19.9358 C.ar    1  UNL1        0.0366
     23 C          -9.0743  -19.7910   20.5671 C.3     1  UNL1        0.0991
     24 N          -9.6592  -19.5229   21.9221 N.3     1  UNL1       -0.2690
     25 C          -8.9829  -20.0565   23.1500 C.3     1  UNL1        0.0724
     26 C          -9.5678  -19.7884   24.5049 C.3     1  UNL1        0.0174
     27 C         -10.8291  -18.9866   24.6321 C.3     1  UNL1        0.0029
     28 C         -11.5055  -18.4530   23.4042 C.3     1  UNL1        0.0174
     29 C         -10.9206  -18.7211   22.0492 C.3     1  UNL1        0.0724
@<TRIPOS>BOND
     1    10    11   ar
     2    11    12   ar
     3    12     9    1
     4     9     3    1
     5     3     4    1
     6     4     5    1
     7     5     6    1
     8     6     2    1
     9     2     1    1
    10     1    16    1
    11    16    17    1
    12    17    18   ar
    13    18    19   ar
    14    19    20   ar
    15    20    23    1
    16    23    24    1
    17    24    25    1
    18    25    26    1
    19    26    27    1
    20    27    28    1
    21    28    29    1
    22    20    21   ar
    23    21    22   ar
    24     6     7    1
    25     7     8    1
    26    12    13   ar
    27    13    14   ar
    28    14    10   ar
    29     8     3    1
    30    22    17   ar
    31    29    24    1
    32    14    15    1
