@<TRIPOS>MOLECULE
*****
 37 40 0 0 0
SMALL
GASTEIGER

@<TRIPOS>ATOM
      1 C           7.5690   -3.9646   24.8444 C.ar    1  UNL1        0.0887
      2 C           6.5899   -4.3321   23.7691 C.ar    1  UNL1        0.0375
      3 C           5.3684   -3.4902   23.5472 C.ar    1  UNL1        0.1088
      4 C           5.1261   -2.2806   24.4006 C.ar    1  UNL1        0.1552
      5 C           6.1053   -1.9130   25.4759 C.ar    1  UNL1        0.0544
      6 C           7.3267   -2.7550   25.6978 C.ar    1  UNL1        0.0703
      7 O           3.9047   -1.4386   24.1787 O.3     1  UNL1       -0.4701
      8 C           3.5555   -0.3525   25.1525 C.3     1  UNL1        0.2525
      9 N           8.3058   -2.3874   26.7730 N.pl3   1  UNL1       -0.2820
     10 C           9.1307   -1.6736   26.6959 C.3     1  UNL1        0.1174
     11 C           8.2074   -3.0253   28.1270 C.2     1  UNL1        0.0815
     12 C           6.9041   -3.6063   28.5894 C.2     1  UNL1        0.0778
     13 N           6.8057   -4.2442   29.9434 N.pl3   1  UNL1       -0.3021
     14 C           7.0581   -5.7145   30.1000 C.3     1  UNL1        0.1123
     15 C           6.4549   -3.4118   31.1410 C.3     1  UNL1        0.1123
     16 N           8.7904   -4.8065   25.0662 N.am    1  UNL1       -0.1741
     17 C           8.6663   -6.1497   25.7224 C.2     1  UNL1        0.2692
     18 O           8.4205   -6.3508   26.7687 O.2     1  UNL1       -0.2680
     19 C           8.7825   -7.3603   23.4265 C.2     1  UNL1        0.0049
     20 C           8.8889   -7.3988   24.9222 C.2     1  UNL1        0.0598
     21 N           4.3893   -3.8578   22.4719 N.pl3   1  UNL1       -0.1745
     22 C           4.5998   -3.3730   21.0682 C.ar    1  UNL1        0.2409
     23 N           4.9172   -4.3514   19.9764 N.ar    1  UNL1       -0.2106
     24 C           5.1277   -3.8666   18.5727 C.ar    1  UNL1        0.1034
     25 C           5.0209   -2.4033   18.2606 C.ar    1  UNL1        0.0400
     26 C           4.7035   -1.4248   19.3524 C.ar    1  UNL1        0.0873
     27 N           4.4930   -1.9097   20.7561 N.ar    1  UNL1       -0.2121
     28 C           4.5967    0.0385   19.0404 C.ar    1  UNL1        0.0364
     29 C           5.7438    0.9909   18.8755 C.ar    1  UNL1        0.0774
     30 N           5.1800    2.3473   18.5717 N.ar    1  UNL1       -0.3240
     31 C           5.9725    3.5982   18.3327 C.3     1  UNL1        0.1305
     32 C           3.6845    2.2333   18.5488 C.ar    1  UNL1        0.0600
     33 C           2.6044    3.2444   18.3017 C.ar    1  UNL1        0.0172
     34 C           1.1639    2.8285   18.3442 C.ar    1  UNL1        0.0015
     35 C           0.8034    1.4016   18.6339 C.ar    1  UNL1        0.0001
     36 C           1.8834    0.3905   18.8811 C.ar    1  UNL1        0.0015
     37 C           3.3240    0.8063   18.8385 C.ar    1  UNL1        0.0187
@<TRIPOS>BOND
     1    19    20    2
     2    20    17    1
     3    17    18    2
     4    17    16   am
     5    16     1    1
     6     1     2   ar
     7     2     3   ar
     8     3    21    1
     9    21    22    1
    10    22    23   ar
    11    23    24   ar
    12    24    25   ar
    13    25    26   ar
    14    26    28    1
    15    28    29   ar
    16    29    30   ar
    17    30    31    1
    18    30    32   ar
    19    32    33   ar
    20    33    34   ar
    21    34    35   ar
    22    35    36   ar
    23    36    37   ar
    24    26    27   ar
    25     3     4   ar
    26     4     7    1
    27     7     8    1
    28     4     5   ar
    29     5     6   ar
    30     6     9    1
    31     9    10    1
    32     9    11    1
    33    11    12    2
    34    12    13    1
    35    13    14    1
    36    13    15    1
    37     6     1   ar
    38    27    22   ar
    39    37    28   ar
    40    37    32   ar
@<TRIPOS>MOLECULE
*****
 37 40 0 0 0
SMALL
GASTEIGER

@<TRIPOS>ATOM
      1 C           3.5805   -0.5997   19.9706 C.ar    1  UNL1        0.0887
      2 C           3.5337   -1.1164   21.3780 C.ar    1  UNL1        0.0375
      3 C           4.3266   -2.3319   21.7576 C.ar    1  UNL1        0.1088
      4 C           5.1664   -3.0306   20.7297 C.ar    1  UNL1        0.1552
      5 C           5.2132   -2.5138   19.3222 C.ar    1  UNL1        0.0544
      6 C           4.4203   -1.2984   18.9427 C.ar    1  UNL1        0.0703
      7 O           5.9593   -4.2460   21.1092 O.3     1  UNL1       -0.4701
      8 C           7.3728   -4.0996   21.5893 C.3     1  UNL1        0.2525
      9 N           4.4672   -0.7817   17.5353 N.pl3   1  UNL1       -0.2820
     10 C           3.7350   -0.9619   16.7433 C.3     1  UNL1        0.1174
     11 C           5.6104    0.0819   17.0911 C.2     1  UNL1        0.0815
     12 C           6.3873    0.8749   18.0997 C.2     1  UNL1        0.0778
     13 N           7.5305    1.7385   17.6554 N.pl3   1  UNL1       -0.3021
     14 C           7.8906    1.8166   16.2014 C.3     1  UNL1        0.1123
     15 C           8.3136    2.5241   18.6652 C.3     1  UNL1        0.1123
     16 N           2.7876    0.6157   19.5911 N.am    1  UNL1       -0.1741
     17 C           1.3377    0.4828   19.2306 C.2     1  UNL1        0.2692
     18 O           0.9051    0.4978   18.2265 O.2     1  UNL1       -0.2680
     19 C           0.4993    0.9702   21.6410 C.2     1  UNL1        0.0049
     20 C           0.3098    0.3072   20.3089 C.2     1  UNL1        0.0598
     21 N           4.2797   -2.8486   23.1650 N.pl3   1  UNL1       -0.1745
     22 C           4.6984   -1.9652   24.3026 C.ar    1  UNL1        0.2409
     23 N           6.1548   -1.7220   24.5667 N.ar    1  UNL1       -0.2106
     24 C           6.5735   -0.8386   25.7043 C.ar    1  UNL1        0.1034
     25 C           5.5358   -0.1984   26.5780 C.ar    1  UNL1        0.0400
     26 C           4.0793   -0.4415   26.3139 C.ar    1  UNL1        0.0873
     27 N           3.6607   -1.3249   25.1763 N.ar    1  UNL1       -0.2121
     28 C           3.0416    0.1987   27.1875 C.ar    1  UNL1        0.0364
     29 C           3.0892    0.3005   28.6833 C.ar    1  UNL1        0.0774
     30 N           1.8511    1.0143   29.1389 N.ar    1  UNL1       -0.3240
     31 C           1.4892    1.3328   30.5594 C.3     1  UNL1        0.1305
     32 C           1.0383    1.3537   27.9248 C.ar    1  UNL1        0.0600
     33 C          -0.2767    2.0567   27.7616 C.ar    1  UNL1        0.0172
     34 C          -0.8558    2.2555   26.3923 C.ar    1  UNL1        0.0015
     35 C          -0.1201    1.7515   25.1863 C.ar    1  UNL1        0.0001
     36 C           1.1949    1.0486   25.3495 C.ar    1  UNL1        0.0015
     37 C           1.7741    0.8497   26.7187 C.ar    1  UNL1        0.0187
@<TRIPOS>BOND
     1    19    20    2
     2    20    17    1
     3    17    18    2
     4    17    16   am
     5    16     1    1
     6     1     2   ar
     7     2     3   ar
     8     3    21    1
     9    21    22    1
    10    22    23   ar
    11    23    24   ar
    12    24    25   ar
    13    25    26   ar
    14    26    28    1
    15    28    29   ar
    16    29    30   ar
    17    30    31    1
    18    30    32   ar
    19    32    33   ar
    20    33    34   ar
    21    34    35   ar
    22    35    36   ar
    23    36    37   ar
    24    26    27   ar
    25     3     4   ar
    26     4     7    1
    27     7     8    1
    28     4     5   ar
    29     5     6   ar
    30     6     9    1
    31     9    10    1
    32     9    11    1
    33    11    12    2
    34    12    13    1
    35    13    14    1
    36    13    15    1
    37     6     1   ar
    38    27    22   ar
    39    37    28   ar
    40    37    32   ar
@<TRIPOS>MOLECULE
*****
 37 40 0 0 0
SMALL
GASTEIGER

@<TRIPOS>ATOM
      1 C           6.2987   -3.2823   25.0429 C.ar    1  UNL1        0.0887
      2 C           6.4005   -3.2057   23.5484 C.ar    1  UNL1        0.0375
      3 C           7.1298   -4.2752   22.7904 C.ar    1  UNL1        0.1088
      4 C           7.7572   -5.4213   23.5271 C.ar    1  UNL1        0.1552
      5 C           7.6554   -5.4979   25.0218 C.ar    1  UNL1        0.0544
      6 C           6.9261   -4.4284   25.7796 C.ar    1  UNL1        0.0703
      7 O           8.4865   -6.4908   22.7693 O.3     1  UNL1       -0.4701
      8 C           9.3097   -7.5044   23.5074 C.3     1  UNL1        0.2525
      9 N           6.8243   -4.5051   27.2742 N.pl3   1  UNL1       -0.2820
     10 C           6.1160   -5.1017   27.8558 C.3     1  UNL1        0.1174
     11 C           7.7604   -3.7062   28.1317 C.2     1  UNL1        0.0815
     12 C           7.7505   -3.8851   29.6210 C.2     1  UNL1        0.0778
     13 N           8.6866   -3.0862   30.4785 N.pl3   1  UNL1       -0.3021
     14 C           9.2121   -3.6669   31.7578 C.3     1  UNL1        0.1123
     15 C           9.0973   -1.7065   30.0568 C.3     1  UNL1        0.1123
     16 N           5.5694   -2.2128   25.8008 N.am    1  UNL1       -0.1741
     17 C           5.4101   -0.8463   25.2032 C.2     1  UNL1        0.2692
     18 O           6.1864   -0.0854   25.0843 O.2     1  UNL1       -0.2680
     19 C           3.4687   -1.0706   23.4912 C.2     1  UNL1        0.0049
     20 C           4.0716   -0.4028   24.6914 C.2     1  UNL1        0.0598
     21 N           7.2316   -4.1985   21.2959 N.pl3   1  UNL1       -0.1745
     22 C           6.0185   -3.8693   20.4773 C.ar    1  UNL1        0.2409
     23 N           5.2112   -4.9706   19.8566 N.ar    1  UNL1       -0.2106
     24 C           3.9981   -4.6415   19.0381 C.ar    1  UNL1        0.1034
     25 C           3.5923   -3.2110   18.8403 C.ar    1  UNL1        0.0400
     26 C           4.3997   -2.1096   19.4610 C.ar    1  UNL1        0.0873
     27 N           5.6127   -2.4389   20.2795 N.ar    1  UNL1       -0.2121
     28 C           3.9939   -0.6792   19.2632 C.ar    1  UNL1        0.0364
     29 C           4.8338    0.3978   18.6428 C.ar    1  UNL1        0.0774
     30 N           4.0359    1.6680   18.6473 N.ar    1  UNL1       -0.3240
     31 C           4.4911    2.9969   18.1210 C.3     1  UNL1        0.1305
     32 C           2.7031    1.3761   19.2704 C.ar    1  UNL1        0.0600
     33 C           1.5097    2.2438   19.5403 C.ar    1  UNL1        0.0172
     34 C           0.2903    1.6608   20.1909 C.ar    1  UNL1        0.0015
     35 C           0.2644    0.2101   20.5716 C.ar    1  UNL1        0.0001
     36 C           1.4578   -0.6575   20.3017 C.ar    1  UNL1        0.0015
     37 C           2.6771   -0.0746   19.6511 C.ar    1  UNL1        0.0187
@<TRIPOS>BOND
     1    19    20    2
     2    20    17    1
     3    17    18    2
     4    17    16   am
     5    16     1    1
     6     1     2   ar
     7     2     3   ar
     8     3    21    1
     9    21    22    1
    10    22    23   ar
    11    23    24   ar
    12    24    25   ar
    13    25    26   ar
    14    26    28    1
    15    28    29   ar
    16    29    30   ar
    17    30    31    1
    18    30    32   ar
    19    32    33   ar
    20    33    34   ar
    21    34    35   ar
    22    35    36   ar
    23    36    37   ar
    24    26    27   ar
    25     3     4   ar
    26     4     7    1
    27     7     8    1
    28     4     5   ar
    29     5     6   ar
    30     6     9    1
    31     9    10    1
    32     9    11    1
    33    11    12    2
    34    12    13    1
    35    13    14    1
    36    13    15    1
    37     6     1   ar
    38    27    22   ar
    39    37    28   ar
    40    37    32   ar
@<TRIPOS>MOLECULE
*****
 37 40 0 0 0
SMALL
GASTEIGER

@<TRIPOS>ATOM
      1 C           7.0922   -4.4754   25.3186 C.ar    1  UNL1        0.0887
      2 C           7.0354   -4.6801   23.8337 C.ar    1  UNL1        0.0375
      3 C           7.4106   -3.5614   22.9075 C.ar    1  UNL1        0.1088
      4 C           7.8426   -2.2381   23.4662 C.ar    1  UNL1        0.1552
      5 C           7.8994   -2.0334   24.9512 C.ar    1  UNL1        0.0544
      6 C           7.5242   -3.1521   25.8773 C.ar    1  UNL1        0.0703
      7 O           8.2178   -1.1194   22.5400 O.3     1  UNL1       -0.4701
      8 C           7.2622    0.0129   22.3059 C.3     1  UNL1        0.2525
      9 N           7.5811   -2.9474   27.3622 N.pl3   1  UNL1       -0.2820
     10 C           8.4580   -3.0496   28.0075 C.3     1  UNL1        0.1174
     11 C           6.3423   -2.5596   28.1138 C.2     1  UNL1        0.0815
     12 C           5.7154   -1.2164   27.8842 C.2     1  UNL1        0.0778
     13 N           4.4766   -0.8285   28.6358 N.pl3   1  UNL1       -0.3021
     14 C           3.1343   -0.9342   27.9749 C.3     1  UNL1        0.1123
     15 C           4.5802   -0.3349   30.0485 C.3     1  UNL1        0.1123
     16 N           6.7170   -5.5941   26.2447 N.am    1  UNL1       -0.1741
     17 C           7.7406   -6.6179   26.6374 C.2     1  UNL1        0.2692
     18 O           8.3549   -6.6210   27.5419 O.2     1  UNL1       -0.2680
     19 C           9.0513   -7.6994   24.6720 C.2     1  UNL1        0.0049
     20 C           8.0066   -7.7933   25.7443 C.2     1  UNL1        0.0598
     21 N           7.3537   -3.7661   21.4226 N.pl3   1  UNL1       -0.1745
     22 C           6.0406   -3.6776   20.7030 C.ar    1  UNL1        0.2409
     23 N           5.6149   -4.7813   19.7808 N.ar    1  UNL1       -0.2106
     24 C           4.3018   -4.6929   19.0611 C.ar    1  UNL1        0.1034
     25 C           3.4143   -3.5006   19.2638 C.ar    1  UNL1        0.0400
     26 C           3.8401   -2.3968   20.1861 C.ar    1  UNL1        0.0873
     27 N           5.1531   -2.4854   20.9056 N.ar    1  UNL1       -0.2121
     28 C           2.9526   -1.2046   20.3887 C.ar    1  UNL1        0.0364
     29 C           2.2364   -0.4453   19.3114 C.ar    1  UNL1        0.0774
     30 N           1.4668    0.6662   19.9611 N.ar    1  UNL1       -0.3240
     31 C           0.6075    1.6733   19.2559 C.3     1  UNL1        0.1305
     32 C           1.7073    0.5939   21.4400 C.ar    1  UNL1        0.0600
     33 C           1.2087    1.4314   22.5801 C.ar    1  UNL1        0.0172
     34 C           1.6284    1.1128   23.9844 C.ar    1  UNL1        0.0015
     35 C           2.5467   -0.0435   24.2486 C.ar    1  UNL1        0.0001
     36 C           3.0453   -0.8810   23.1086 C.ar    1  UNL1        0.0015
     37 C           2.6256   -0.5624   21.7042 C.ar    1  UNL1        0.0187
@<TRIPOS>BOND
     1    19    20    2
     2    20    17    1
     3    17    18    2
     4    17    16   am
     5    16     1    1
     6     1     2   ar
     7     2     3   ar
     8     3    21    1
     9    21    22    1
    10    22    23   ar
    11    23    24   ar
    12    24    25   ar
    13    25    26   ar
    14    26    28    1
    15    28    29   ar
    16    29    30   ar
    17    30    31    1
    18    30    32   ar
    19    32    33   ar
    20    33    34   ar
    21    34    35   ar
    22    35    36   ar
    23    36    37   ar
    24    26    27   ar
    25     3     4   ar
    26     4     7    1
    27     7     8    1
    28     4     5   ar
    29     5     6   ar
    30     6     9    1
    31     9    10    1
    32     9    11    1
    33    11    12    2
    34    12    13    1
    35    13    14    1
    36    13    15    1
    37     6     1   ar
    38    27    22   ar
    39    37    28   ar
    40    37    32   ar
@<TRIPOS>MOLECULE
*****
 37 40 0 0 0
SMALL
GASTEIGER

@<TRIPOS>ATOM
      1 C         -12.8642   -1.1488   18.7477 C.ar    1  UNL1        0.0887
      2 C         -13.0953    0.1866   18.1049 C.ar    1  UNL1        0.0375
      3 C         -14.4909    0.7165   17.9572 C.ar    1  UNL1        0.1088
      4 C         -15.6552   -0.0891   18.4524 C.ar    1  UNL1        0.1552
      5 C         -15.4241   -1.4246   19.0953 C.ar    1  UNL1        0.0544
      6 C         -14.0285   -1.9544   19.2429 C.ar    1  UNL1        0.0703
      7 O         -17.0508    0.4407   18.3048 O.3     1  UNL1       -0.4701
      8 C         -17.8747    0.7336   19.5235 C.3     1  UNL1        0.2525
      9 N         -13.7974   -3.2897   19.8858 N.pl3   1  UNL1       -0.2820
     10 C         -13.7491   -3.5050   20.9569 C.3     1  UNL1        0.1174
     11 C         -13.6030   -4.5088   19.0337 C.2     1  UNL1        0.0815
     12 C         -12.7223   -5.6251   19.5115 C.2     1  UNL1        0.0778
     13 N         -12.5279   -6.8442   18.6594 N.pl3   1  UNL1       -0.3021
     14 C         -11.1564   -7.2092   18.1742 C.3     1  UNL1        0.1123
     15 C         -13.7052   -7.6983   18.2926 C.3     1  UNL1        0.1123
     16 N         -11.4686   -1.6785   18.8954 N.am    1  UNL1       -0.1741
     17 C         -10.7389   -2.2130   17.6988 C.2     1  UNL1        0.2692
     18 O         -10.5446   -1.6897   16.7585 O.2     1  UNL1       -0.2680
     19 C          -9.2155   -4.0445   16.6619 C.2     1  UNL1        0.0049
     20 C         -10.1866   -3.6075   17.7183 C.2     1  UNL1        0.0598
     21 N         -14.7220    2.0519   17.3143 N.pl3   1  UNL1       -0.1745
     22 C         -14.7192    3.2973   18.1503 C.ar    1  UNL1        0.2409
     23 N         -14.1509    4.5705   17.5972 N.ar    1  UNL1       -0.2106
     24 C         -14.1481    5.8160   18.4332 C.ar    1  UNL1        0.1034
     25 C         -14.7137    5.7882   19.8222 C.ar    1  UNL1        0.0400
     26 C         -15.2821    4.5149   20.3753 C.ar    1  UNL1        0.0873
     27 N         -15.2848    3.2695   19.5393 N.ar    1  UNL1       -0.2121
     28 C         -15.8477    4.4871   21.7643 C.ar    1  UNL1        0.0364
     29 C         -17.2823    4.2418   22.1273 C.ar    1  UNL1        0.0774
     30 N         -17.3992    4.3028   23.6215 N.ar    1  UNL1       -0.3240
     31 C         -18.6575    4.1141   24.4159 C.3     1  UNL1        0.1305
     32 C         -16.0369    4.5858   24.1819 C.ar    1  UNL1        0.0600
     33 C         -15.5456    4.7545   25.5891 C.ar    1  UNL1        0.0172
     34 C         -14.0955    5.0370   25.8484 C.ar    1  UNL1        0.0015
     35 C         -13.1366    5.1509   24.7005 C.ar    1  UNL1        0.0001
     36 C         -13.6279    4.9822   23.2934 C.ar    1  UNL1        0.0015
     37 C         -15.0780    4.6997   23.0341 C.ar    1  UNL1        0.0187
@<TRIPOS>BOND
     1    19    20    2
     2    20    17    1
     3    17    18    2
     4    17    16   am
     5    16     1    1
     6     1     2   ar
     7     2     3   ar
     8     3    21    1
     9    21    22    1
    10    22    23   ar
    11    23    24   ar
    12    24    25   ar
    13    25    26   ar
    14    26    28    1
    15    28    29   ar
    16    29    30   ar
    17    30    31    1
    18    30    32   ar
    19    32    33   ar
    20    33    34   ar
    21    34    35   ar
    22    35    36   ar
    23    36    37   ar
    24    26    27   ar
    25     3     4   ar
    26     4     7    1
    27     7     8    1
    28     4     5   ar
    29     5     6   ar
    30     6     9    1
    31     9    10    1
    32     9    11    1
    33    11    12    2
    34    12    13    1
    35    13    14    1
    36    13    15    1
    37     6     1   ar
    38    27    22   ar
    39    37    28   ar
    40    37    32   ar
@<TRIPOS>MOLECULE
*****
 37 40 0 0 0
SMALL
GASTEIGER

@<TRIPOS>ATOM
      1 C           1.7386    0.5265   30.0070 C.ar    1  UNL1        0.0887
      2 C           2.1910   -0.4045   28.9214 C.ar    1  UNL1        0.0375
      3 C           3.6197   -0.8587   28.8699 C.ar    1  UNL1        0.1088
      4 C           4.5959   -0.3819   29.9041 C.ar    1  UNL1        0.1552
      5 C           4.1435    0.5492   30.9898 C.ar    1  UNL1        0.0544
      6 C           2.7148    1.0034   31.0412 C.ar    1  UNL1        0.0703
      7 O           6.0246   -0.8361   29.8528 O.3     1  UNL1       -0.4701
      8 C           6.4177   -2.1461   30.4686 C.3     1  UNL1        0.2525
      9 N           2.2625    1.9344   32.1267 N.pl3   1  UNL1       -0.2820
     10 C           2.2597    1.7388   33.2027 C.3     1  UNL1        0.1174
     11 C           1.7452    3.2984   31.7778 C.2     1  UNL1        0.0815
     12 C           0.4507    3.7816   32.3616 C.2     1  UNL1        0.0778
     13 N          -0.0666    5.1457   32.0126 N.pl3   1  UNL1       -0.3021
     14 C           0.3587    5.8046   30.7339 C.3     1  UNL1        0.1123
     15 C          -1.0091    5.8508   32.9423 C.3     1  UNL1        0.1123
     16 N           0.3099    0.9807   30.0583 N.am    1  UNL1       -0.1741
     17 C          -0.7010    0.3829   29.1253 C.2     1  UNL1        0.2692
     18 O          -1.2863   -0.5270   29.2843 O.2     1  UNL1       -0.2680
     19 C          -0.4466    2.4129   27.5238 C.2     1  UNL1        0.0049
     20 C          -0.9958    1.0473   27.8132 C.2     1  UNL1        0.0598
     21 N           4.0720   -1.7898   27.7844 N.pl3   1  UNL1       -0.1745
     22 C           4.6574   -1.2377   26.5184 C.ar    1  UNL1        0.2409
     23 N           5.9455   -0.4703   26.5600 N.ar    1  UNL1       -0.2106
     24 C           6.5308    0.0818   25.2941 C.ar    1  UNL1        0.1034
     25 C           5.8280   -0.1336   23.9866 C.ar    1  UNL1        0.0400
     26 C           4.5398   -0.9010   23.9450 C.ar    1  UNL1        0.0873
     27 N           3.9545   -1.4530   25.2109 N.ar    1  UNL1       -0.2121
     28 C           3.8370   -1.1164   22.6374 C.ar    1  UNL1        0.0364
     29 C           2.6202   -0.3812   22.1589 C.ar    1  UNL1        0.0774
     30 N           2.2588   -0.9152   20.8046 N.ar    1  UNL1       -0.3240
     31 C           1.1064   -0.4634   19.9574 C.3     1  UNL1        0.1305
     32 C           3.2522   -1.9804   20.4460 C.ar    1  UNL1        0.0600
     33 C           3.3947   -2.8532   19.2345 C.ar    1  UNL1        0.0172
     34 C           4.5125   -3.8502   19.1557 C.ar    1  UNL1        0.0015
     35 C           5.4878   -3.9746   20.2885 C.ar    1  UNL1        0.0001
     36 C           5.3454   -3.1018   21.5000 C.ar    1  UNL1        0.0015
     37 C           4.2276   -2.1047   21.5788 C.ar    1  UNL1        0.0187
@<TRIPOS>BOND
     1    19    20    2
     2    20    17    1
     3    17    18    2
     4    17    16   am
     5    16     1    1
     6     1     2   ar
     7     2     3   ar
     8     3    21    1
     9    21    22    1
    10    22    23   ar
    11    23    24   ar
    12    24    25   ar
    13    25    26   ar
    14    26    28    1
    15    28    29   ar
    16    29    30   ar
    17    30    31    1
    18    30    32   ar
    19    32    33   ar
    20    33    34   ar
    21    34    35   ar
    22    35    36   ar
    23    36    37   ar
    24    26    27   ar
    25     3     4   ar
    26     4     7    1
    27     7     8    1
    28     4     5   ar
    29     5     6   ar
    30     6     9    1
    31     9    10    1
    32     9    11    1
    33    11    12    2
    34    12    13    1
    35    13    14    1
    36    13    15    1
    37     6     1   ar
    38    27    22   ar
    39    37    28   ar
    40    37    32   ar
@<TRIPOS>MOLECULE
*****
 37 40 0 0 0
SMALL
GASTEIGER

@<TRIPOS>ATOM
      1 C           3.5803   -1.9363   19.8063 C.ar    1  UNL1        0.0887
      2 C           2.2098   -1.3759   20.0462 C.ar    1  UNL1        0.0375
      3 C           1.8496   -0.0207   19.5134 C.ar    1  UNL1        0.1088
      4 C           2.8601    0.7740   18.7405 C.ar    1  UNL1        0.1552
      5 C           4.2307    0.2136   18.5006 C.ar    1  UNL1        0.0544
      6 C           4.5908   -1.1415   19.0334 C.ar    1  UNL1        0.0703
      7 O           2.5000    2.1292   18.2076 O.3     1  UNL1       -0.4701
      8 C           2.6166    3.3371   19.0893 C.3     1  UNL1        0.2525
      9 N           5.9613   -1.7018   18.7934 N.pl3   1  UNL1       -0.2820
     10 C           6.3010   -2.2560   17.9141 C.3     1  UNL1        0.1174
     11 C           7.0358   -1.5233   19.8248 C.2     1  UNL1        0.0815
     12 C           6.8554   -0.5264   20.9309 C.2     1  UNL1        0.0778
     13 N           7.9299   -0.3478   21.9622 N.pl3   1  UNL1       -0.3021
     14 C           8.6587    0.9589   22.0676 C.3     1  UNL1        0.1123
     15 C           8.2756   -1.4761   22.8883 C.3     1  UNL1        0.1123
     16 N           3.9404   -3.2914   20.3392 N.am    1  UNL1       -0.1741
     17 C           4.5506   -3.4230   21.7030 C.2     1  UNL1        0.2692
     18 O           5.2366   -4.2030   22.0447 O.2     1  UNL1       -0.2680
     19 C           4.8999   -2.5040   24.1080 C.2     1  UNL1        0.0049
     20 C           4.2337   -2.4143   22.7670 C.2     1  UNL1        0.0598
     21 N           0.4791    0.5396   19.7534 N.pl3   1  UNL1       -0.1745
     22 C           0.1937    1.3127   21.0067 C.ar    1  UNL1        0.2409
     23 N          -0.8401    2.3995   20.9985 N.ar    1  UNL1       -0.2106
     24 C          -1.1255    3.1726   22.2518 C.ar    1  UNL1        0.1034
     25 C          -0.3770    2.8590   23.5133 C.ar    1  UNL1        0.0400
     26 C           0.6570    1.7722   23.5215 C.ar    1  UNL1        0.0873
     27 N           0.9423    0.9991   22.2682 N.ar    1  UNL1       -0.2121
     28 C           1.4055    1.4586   24.7830 C.ar    1  UNL1        0.0364
     29 C           2.8836    1.2307   24.8976 C.ar    1  UNL1        0.0774
     30 N           3.1989    0.9491   26.3368 N.ar    1  UNL1       -0.3240
     31 C           4.5587    0.6637   26.9020 C.3     1  UNL1        0.1305
     32 C           1.9156    1.0030   27.1117 C.ar    1  UNL1        0.0600
     33 C           1.6132    0.8061   28.5676 C.ar    1  UNL1        0.0172
     34 C           0.2024    0.9240   29.0631 C.ar    1  UNL1        0.0015
     35 C          -0.9060    1.2389   28.1028 C.ar    1  UNL1        0.0001
     36 C          -0.6036    1.4359   26.6469 C.ar    1  UNL1        0.0015
     37 C           0.8072    1.3179   26.1513 C.ar    1  UNL1        0.0187
@<TRIPOS>BOND
     1    19    20    2
     2    20    17    1
     3    17    18    2
     4    17    16   am
     5    16     1    1
     6     1     2   ar
     7     2     3   ar
     8     3    21    1
     9    21    22    1
    10    22    23   ar
    11    23    24   ar
    12    24    25   ar
    13    25    26   ar
    14    26    28    1
    15    28    29   ar
    16    29    30   ar
    17    30    31    1
    18    30    32   ar
    19    32    33   ar
    20    33    34   ar
    21    34    35   ar
    22    35    36   ar
    23    36    37   ar
    24    26    27   ar
    25     3     4   ar
    26     4     7    1
    27     7     8    1
    28     4     5   ar
    29     5     6   ar
    30     6     9    1
    31     9    10    1
    32     9    11    1
    33    11    12    2
    34    12    13    1
    35    13    14    1
    36    13    15    1
    37     6     1   ar
    38    27    22   ar
    39    37    28   ar
    40    37    32   ar
@<TRIPOS>MOLECULE
*****
 37 40 0 0 0
SMALL
GASTEIGER

@<TRIPOS>ATOM
      1 C           5.9781   -2.6986   24.9089 C.ar    1  UNL1        0.0887
      2 C           5.1197   -3.0603   23.7331 C.ar    1  UNL1        0.0375
      3 C           5.6958   -3.8581   22.6010 C.ar    1  UNL1        0.1088
      4 C           7.1304   -4.2941   22.6446 C.ar    1  UNL1        0.1552
      5 C           7.9888   -3.9324   23.8204 C.ar    1  UNL1        0.0544
      6 C           7.4126   -3.1346   24.9525 C.ar    1  UNL1        0.0703
      7 O           7.7066   -5.0919   21.5126 O.3     1  UNL1       -0.4701
      8 C           9.1794   -5.0414   21.2329 C.3     1  UNL1        0.2525
      9 N           8.2710   -2.7730   26.1282 N.pl3   1  UNL1       -0.2820
     10 C           8.9458   -1.9165   26.2117 C.3     1  UNL1        0.1174
     11 C           8.2569   -3.6300   27.3591 C.2     1  UNL1        0.0815
     12 C           7.6630   -5.0065   27.3078 C.2     1  UNL1        0.0778
     13 N           7.6488   -5.8636   28.5388 N.pl3   1  UNL1       -0.3021
     14 C           8.4783   -7.1121   28.5930 C.3     1  UNL1        0.1123
     15 C           6.8052   -5.4720   29.7156 C.3     1  UNL1        0.1123
     16 N           5.4019   -1.9009   26.0410 N.am    1  UNL1       -0.1741
     17 C           4.5023   -0.7351   25.7552 C.2     1  UNL1        0.2692
     18 O           3.4097   -0.7211   25.7970 O.2     1  UNL1       -0.2680
     19 C           5.3371    0.9010   23.9176 C.2     1  UNL1        0.0049
     20 C           5.0907    0.5880   25.3638 C.2     1  UNL1        0.0598
     21 N           4.8374   -4.2198   21.4253 N.pl3   1  UNL1       -0.1745
     22 C           4.6449   -3.2387   20.3071 C.ar    1  UNL1        0.2409
     23 N           5.4575   -3.3627   19.0524 N.ar    1  UNL1       -0.2106
     24 C           5.2650   -2.3817   17.9341 C.ar    1  UNL1        0.1034
     25 C           4.2600   -1.2765   18.0707 C.ar    1  UNL1        0.0400
     26 C           3.4474   -1.1525   19.3255 C.ar    1  UNL1        0.0873
     27 N           3.6399   -2.1335   20.4436 N.ar    1  UNL1       -0.2121
     28 C           2.4424   -0.0473   19.4620 C.ar    1  UNL1        0.0364
     29 C           1.8047    0.7087   18.3343 C.ar    1  UNL1        0.0774
     30 N           0.8668    1.7191   18.9256 N.ar    1  UNL1       -0.3240
     31 C           0.0196    2.6905   18.1585 C.3     1  UNL1        0.1305
     32 C           0.9249    1.5875   20.4187 C.ar    1  UNL1        0.0600
     33 C           0.2170    2.3207   21.5192 C.ar    1  UNL1        0.0172
     34 C           0.4828    1.9621   22.9512 C.ar    1  UNL1        0.0015
     35 C           1.4565    0.8704   23.2827 C.ar    1  UNL1        0.0001
     36 C           2.1645    0.1372   22.1822 C.ar    1  UNL1        0.0015
     37 C           1.8987    0.4958   20.7502 C.ar    1  UNL1        0.0187
@<TRIPOS>BOND
     1    19    20    2
     2    20    17    1
     3    17    18    2
     4    17    16   am
     5    16     1    1
     6     1     2   ar
     7     2     3   ar
     8     3    21    1
     9    21    22    1
    10    22    23   ar
    11    23    24   ar
    12    24    25   ar
    13    25    26   ar
    14    26    28    1
    15    28    29   ar
    16    29    30   ar
    17    30    31    1
    18    30    32   ar
    19    32    33   ar
    20    33    34   ar
    21    34    35   ar
    22    35    36   ar
    23    36    37   ar
    24    26    27   ar
    25     3     4   ar
    26     4     7    1
    27     7     8    1
    28     4     5   ar
    29     5     6   ar
    30     6     9    1
    31     9    10    1
    32     9    11    1
    33    11    12    2
    34    12    13    1
    35    13    14    1
    36    13    15    1
    37     6     1   ar
    38    27    22   ar
    39    37    28   ar
    40    37    32   ar
@<TRIPOS>MOLECULE
*****
 37 40 0 0 0
SMALL
GASTEIGER

@<TRIPOS>ATOM
      1 C           2.2620    0.3211   30.2102 C.ar    1  UNL1        0.0887
      2 C           2.6733   -0.5206   29.0387 C.ar    1  UNL1        0.0375
      3 C           4.1053   -0.9386   28.8813 C.ar    1  UNL1        0.1088
      4 C           5.1260   -0.5149   29.8955 C.ar    1  UNL1        0.1552
      5 C           4.7148    0.3269   31.0670 C.ar    1  UNL1        0.0544
      6 C           3.2828    0.7449   31.2243 C.ar    1  UNL1        0.0703
      7 O           6.5580   -0.9328   29.7382 O.3     1  UNL1       -0.4701
      8 C           7.0517   -2.1835   30.4032 C.3     1  UNL1        0.2525
      9 N           2.8716    1.5866   32.3958 N.pl3   1  UNL1       -0.2820
     10 C           2.9412    1.3203   33.4542 C.3     1  UNL1        0.1174
     11 C           2.2942    2.9527   32.1719 C.2     1  UNL1        0.0815
     12 C           1.2625    3.4949   33.1162 C.2     1  UNL1        0.0778
     13 N           0.6851    4.8611   32.8923 N.pl3   1  UNL1       -0.3021
     14 C           0.1101    5.2224   31.5549 C.3     1  UNL1        0.1123
     15 C           0.6826    5.8660   34.0060 C.3     1  UNL1        0.1123
     16 N           0.8301    0.7391   30.3675 N.am    1  UNL1       -0.1741
     17 C           0.1319    1.4582   29.2515 C.2     1  UNL1        0.2692
     18 O           0.2294    2.5146   28.9865 O.2     1  UNL1       -0.2680
     19 C          -1.4831   -0.5368   28.8486 C.2     1  UNL1        0.0049
     20 C          -0.8182    0.7156   28.3593 C.2     1  UNL1        0.0598
     21 N           4.5165   -1.7803   27.7098 N.pl3   1  UNL1       -0.1745
     22 C           4.9555   -1.1260   26.4335 C.ar    1  UNL1        0.2409
     23 N           6.0795   -0.1328   26.4478 N.ar    1  UNL1       -0.2106
     24 C           6.5186    0.5214   25.1715 C.ar    1  UNL1        0.1034
     25 C           5.8337    0.1825   23.8807 C.ar    1  UNL1        0.0400
     26 C           4.7096   -0.8107   23.8663 C.ar    1  UNL1        0.0873
     27 N           4.2706   -1.4649   25.1427 N.ar    1  UNL1       -0.2121
     28 C           4.0247   -1.1496   22.5756 C.ar    1  UNL1        0.0364
     29 C           4.4681   -2.1883   21.5884 C.ar    1  UNL1        0.0774
     30 N           3.4936   -2.1899   20.4482 N.ar    1  UNL1       -0.3240
     31 C           3.5540   -3.0741   19.2379 C.3     1  UNL1        0.1305
     32 C           2.4479   -1.1522   20.7306 C.ar    1  UNL1        0.0600
     33 C           1.2392   -0.7097   19.9603 C.ar    1  UNL1        0.0172
     34 C           0.3589    0.3757   20.5049 C.ar    1  UNL1        0.0015
     35 C           0.6871    1.0187   21.8198 C.ar    1  UNL1        0.0001
     36 C           1.8958    0.5762   22.5900 C.ar    1  UNL1        0.0015
     37 C           2.7762   -0.5093   22.0454 C.ar    1  UNL1        0.0187
@<TRIPOS>BOND
     1    19    20    2
     2    20    17    1
     3    17    18    2
     4    17    16   am
     5    16     1    1
     6     1     2   ar
     7     2     3   ar
     8     3    21    1
     9    21    22    1
    10    22    23   ar
    11    23    24   ar
    12    24    25   ar
    13    25    26   ar
    14    26    28    1
    15    28    29   ar
    16    29    30   ar
    17    30    31    1
    18    30    32   ar
    19    32    33   ar
    20    33    34   ar
    21    34    35   ar
    22    35    36   ar
    23    36    37   ar
    24    26    27   ar
    25     3     4   ar
    26     4     7    1
    27     7     8    1
    28     4     5   ar
    29     5     6   ar
    30     6     9    1
    31     9    10    1
    32     9    11    1
    33    11    12    2
    34    12    13    1
    35    13    14    1
    36    13    15    1
    37     6     1   ar
    38    27    22   ar
    39    37    28   ar
    40    37    32   ar
