@<TRIPOS>MOLECULE
*****
 32 36 0 0 0
SMALL
GASTEIGER

@<TRIPOS>ATOM
      1 C          -8.8571  -17.0647   23.5419 C.3     1  UNL1        0.1066
      2 C         -10.0640  -16.5090   22.8458 C.3     1  UNL1        0.0470
      3 C         -10.3112  -17.3336   21.6174 C.ar    1  UNL1       -0.0106
      4 C         -11.3600  -17.2520   20.5481 C.ar    1  UNL1        0.0544
      5 CL        -12.4141  -16.1866   20.6112 Cl      1  UNL1       -0.0826
      6 C         -11.3547  -18.2357   19.4158 C.ar    1  UNL1        0.0224
      7 C         -10.3006  -19.3010   19.3527 C.ar    1  UNL1        0.0583
      8 CL        -10.2953  -20.2848   18.2203 Cl      1  UNL1       -0.0822
      9 C          -9.2518  -19.3826   20.4220 C.ar    1  UNL1        0.0104
     10 C          -9.2571  -18.3989   21.5543 C.ar    1  UNL1        0.0163
     11 C          -8.3584  -18.2327   22.7437 C.3     1  UNL1        0.2026
     12 N          -5.1533  -14.3655   25.9907 N.3     1  UNL1       -0.3211
     13 C          -6.4028  -15.1943   26.0375 C.3     1  UNL1        0.0670
     14 C          -7.0497  -15.5021   27.3553 C.3     1  UNL1        0.0183
     15 C          -8.2991  -16.3308   27.4020 C.3     1  UNL1        0.0187
     16 C          -8.9015  -16.8517   26.1309 C.3     1  UNL1        0.0723
     17 N          -8.2546  -16.5438   24.8130 N.3     1  UNL1       -0.2692
     18 C          -7.0052  -15.7151   24.7664 C.3     1  UNL1        0.0878
     19 H          -4.8866  -14.0988   26.9384 H       1  UNL1        0.1189
     20 H          -5.3225  -13.5263   25.4363 H       1  UNL1        0.1189
     21 O          -7.1698  -19.0849   23.0765 O.3     1  UNL1       -0.4734
     22 C          -5.8716  -18.8762   22.3548 C.ar    1  UNL1        0.1390
     23 C          -5.6796  -19.4401   20.9781 C.ar    1  UNL1        0.0385
     24 C          -4.3814  -19.2314   20.2563 C.ar    1  UNL1        0.0223
     25 C          -3.2750  -18.4587   20.9113 C.ar    1  UNL1        0.0848
     26 C          -3.4669  -17.8948   22.2879 C.ar    1  UNL1        0.0223
     27 C          -4.7651  -18.1036   23.0097 C.ar    1  UNL1        0.0385
     28 N          -1.9767  -18.2500   20.1895 N.ar    1  UNL1       -0.2079
     29 C          -1.8203  -17.9073   18.7376 C.ar    1  UNL1        0.2016
     30 N          -0.3539  -17.7928   18.4437 N.ar    1  UNL1       -0.2004
     31 C           0.3960  -18.0647   19.7140 C.ar    1  UNL1        0.2214
     32 N          -0.6069  -18.3472   20.7930 N.ar    1  UNL1       -0.1409
@<TRIPOS>BOND
     1    13    12    1
     2    13    14    1
     3    14    15    1
     4    15    16    1
     5    16    17    1
     6     1    17    1
     7     1     2    1
     8     2     3    1
     9     3     4   ar
    10     4     5    1
    11     4     6   ar
    12     6     7   ar
    13     7     8    1
    14     7     9   ar
    15     9    10   ar
    16    10    11    1
    17    11    21    1
    18    21    22    1
    19    22    23   ar
    20    23    24   ar
    21    24    25   ar
    22    25    28    1
    23    28    29   ar
    24    29    30   ar
    25    30    31   ar
    26    31    32   ar
    27    25    26   ar
    28    26    27   ar
    29    17    18    1
    30    18    13    1
    31    11     1    1
    32    27    22   ar
    33    10     3   ar
    34    32    28   ar
    35    12    19    1
    36    12    20    1
@<TRIPOS>MOLECULE
*****
 32 36 0 0 0
SMALL
GASTEIGER

@<TRIPOS>ATOM
      1 C           2.0508    0.2058   20.3562 C.3     1  UNL1        0.1066
      2 C           2.2616   -1.1109   19.6693 C.3     1  UNL1        0.0470
      3 C           3.1858   -1.9335   20.5174 C.ar    1  UNL1       -0.0106
      4 C           3.7458   -3.3141   20.3433 C.ar    1  UNL1        0.0544
      5 CL          3.3855   -4.1224   19.1322 Cl      1  UNL1       -0.0826
      6 C           4.6662   -3.8863   21.3803 C.ar    1  UNL1        0.0224
      7 C           5.0265   -3.0780   22.5914 C.ar    1  UNL1        0.0583
      8 CL          5.9469   -3.6503   23.6285 Cl      1  UNL1       -0.0822
      9 C           4.4665   -1.6974   22.7655 C.ar    1  UNL1        0.0104
     10 C           3.5462   -1.1252   21.7285 C.ar    1  UNL1        0.0163
     11 C           2.8447    0.1969   21.6288 C.3     1  UNL1        0.2026
     12 N          -2.3054    3.0226   20.6556 N.3     1  UNL1       -0.3211
     13 C          -0.9820    2.7417   20.0076 C.3     1  UNL1        0.0670
     14 C          -0.5133    3.5883   18.8615 C.3     1  UNL1        0.0183
     15 C           0.8100    3.3074   18.2136 C.3     1  UNL1        0.0187
     16 C           1.6647    2.1798   18.7119 C.3     1  UNL1        0.0723
     17 N           1.1961    1.3333   19.8580 N.3     1  UNL1       -0.2692
     18 C          -0.1273    1.6142   20.5058 C.3     1  UNL1        0.0878
     19 H          -2.7482    3.8170   20.1938 H       1  UNL1        0.1189
     20 H          -2.1618    3.2394   21.6419 H       1  UNL1        0.1189
     21 O           2.9233    1.3141   22.6267 O.3     1  UNL1       -0.4734
     22 C           2.2283    1.1881   23.9500 C.ar    1  UNL1        0.1390
     23 C           3.0225    0.9029   25.1901 C.ar    1  UNL1        0.0385
     24 C           2.3276    0.7769   26.5134 C.ar    1  UNL1        0.0223
     25 C           0.8384    0.9362   26.5966 C.ar    1  UNL1        0.0848
     26 C           0.0442    1.2214   25.3565 C.ar    1  UNL1        0.0223
     27 C           0.7391    1.3474   24.0332 C.ar    1  UNL1        0.0385
     28 N           0.1434    0.8102   27.9199 N.ar    1  UNL1       -0.2079
     29 C           0.6190    1.3802   29.2233 C.ar    1  UNL1        0.2016
     30 N          -0.3796    1.0144   30.2811 N.ar    1  UNL1       -0.2004
     31 C          -1.4723    0.2182   29.6315 C.ar    1  UNL1        0.2214
     32 N          -1.1491    0.0920   28.1722 N.ar    1  UNL1       -0.1409
@<TRIPOS>BOND
     1    13    12    1
     2    13    14    1
     3    14    15    1
     4    15    16    1
     5    16    17    1
     6     1    17    1
     7     1     2    1
     8     2     3    1
     9     3     4   ar
    10     4     5    1
    11     4     6   ar
    12     6     7   ar
    13     7     8    1
    14     7     9   ar
    15     9    10   ar
    16    10    11    1
    17    11    21    1
    18    21    22    1
    19    22    23   ar
    20    23    24   ar
    21    24    25   ar
    22    25    28    1
    23    28    29   ar
    24    29    30   ar
    25    30    31   ar
    26    31    32   ar
    27    25    26   ar
    28    26    27   ar
    29    17    18    1
    30    18    13    1
    31    11     1    1
    32    27    22   ar
    33    10     3   ar
    34    32    28   ar
    35    12    19    1
    36    12    20    1
@<TRIPOS>MOLECULE
*****
 32 36 0 0 0
SMALL
GASTEIGER

@<TRIPOS>ATOM
      1 C          -3.0098    3.6181   22.3467 C.3     1  UNL1        0.1066
      2 C          -4.3645    3.6007   21.7028 C.3     1  UNL1        0.0470
      3 C          -4.1732    3.6940   20.2179 C.ar    1  UNL1       -0.0106
      4 C          -5.1498    3.7203   19.0798 C.ar    1  UNL1        0.0544
      5 CL         -6.6227    3.6453   19.3535 Cl      1  UNL1       -0.0826
      6 C          -4.6536    3.8215   17.6679 C.ar    1  UNL1        0.0224
      7 C          -3.1807    3.8965   17.3942 C.ar    1  UNL1        0.0583
      8 CL         -2.6845    3.9978   15.9822 Cl      1  UNL1       -0.0822
      9 C          -2.2040    3.8702   18.5323 C.ar    1  UNL1        0.0104
     10 C          -2.7003    3.7689   19.9442 C.ar    1  UNL1        0.0163
     11 C          -1.9813    3.7220   21.2598 C.3     1  UNL1        0.2026
     12 N          -4.5124    4.4255   27.2549 N.3     1  UNL1       -0.3211
     13 C          -3.4837    3.9481   26.2731 C.3     1  UNL1        0.0670
     14 C          -2.1777    3.3971   26.7636 C.3     1  UNL1        0.0183
     15 C          -1.1491    2.9197   25.7818 C.3     1  UNL1        0.0187
     16 C          -1.4265    2.9934   24.3095 C.3     1  UNL1        0.0723
     17 N          -2.7325    3.5444   23.8190 N.3     1  UNL1       -0.2692
     18 C          -3.7611    4.0218   24.8008 C.3     1  UNL1        0.0878
     19 H          -4.1595    4.3025   28.2040 H       1  UNL1        0.1189
     20 H          -5.3700    3.8857   27.1384 H       1  UNL1        0.1189
     21 O          -0.4948    3.7705   21.4544 O.3     1  UNL1       -0.4734
     22 C           0.3810    2.7422   20.8022 C.ar    1  UNL1        0.1390
     23 C           1.4240    3.1653   19.8106 C.ar    1  UNL1        0.0385
     24 C           2.2998    2.1370   19.1583 C.ar    1  UNL1        0.0223
     25 C           2.1327    0.6855   19.4977 C.ar    1  UNL1        0.0848
     26 C           1.0898    0.2624   20.4893 C.ar    1  UNL1        0.0223
     27 C           0.2140    1.2907   21.1416 C.ar    1  UNL1        0.0385
     28 N           3.0085   -0.3429   18.8455 N.ar    1  UNL1       -0.2079
     29 C           3.6735   -0.2138   17.5072 C.ar    1  UNL1        0.2016
     30 N           4.4491   -1.4719   17.2516 N.ar    1  UNL1       -0.2004
     31 C           4.2635   -2.3787   18.4320 C.ar    1  UNL1        0.2214
     32 N           3.3732   -1.6809   19.4171 N.ar    1  UNL1       -0.1409
@<TRIPOS>BOND
     1    13    12    1
     2    13    14    1
     3    14    15    1
     4    15    16    1
     5    16    17    1
     6     1    17    1
     7     1     2    1
     8     2     3    1
     9     3     4   ar
    10     4     5    1
    11     4     6   ar
    12     6     7   ar
    13     7     8    1
    14     7     9   ar
    15     9    10   ar
    16    10    11    1
    17    11    21    1
    18    21    22    1
    19    22    23   ar
    20    23    24   ar
    21    24    25   ar
    22    25    28    1
    23    28    29   ar
    24    29    30   ar
    25    30    31   ar
    26    31    32   ar
    27    25    26   ar
    28    26    27   ar
    29    17    18    1
    30    18    13    1
    31    11     1    1
    32    27    22   ar
    33    10     3   ar
    34    32    28   ar
    35    12    19    1
    36    12    20    1
@<TRIPOS>MOLECULE
*****
 32 36 0 0 0
SMALL
GASTEIGER

@<TRIPOS>ATOM
      1 C           7.2771   -3.4126   22.0731 C.3     1  UNL1        0.1066
      2 C           7.8174   -4.8048   22.2135 C.3     1  UNL1        0.0470
      3 C           7.6586   -5.2216   23.6457 C.ar    1  UNL1       -0.0106
      4 C           8.0128   -6.4876   24.3678 C.ar    1  UNL1        0.0544
      5 CL          8.6513   -7.6223   23.6230 Cl      1  UNL1       -0.0826
      6 C           7.7285   -6.6190   25.8347 C.ar    1  UNL1        0.0224
      7 C           7.0900   -5.4843   26.5795 C.ar    1  UNL1        0.0583
      8 CL          6.8057   -5.6157   28.0465 Cl      1  UNL1       -0.0822
      9 C           6.7358   -4.2182   25.8574 C.ar    1  UNL1        0.0104
     10 C           7.0200   -4.0868   24.3905 C.ar    1  UNL1        0.0163
     11 C           6.7843   -2.9689   23.4186 C.3     1  UNL1        0.2026
     12 N           5.0735   -2.3309   17.4934 N.3     1  UNL1       -0.3211
     13 C           6.1350   -2.0649   18.5194 C.3     1  UNL1        0.0670
     14 C           7.1559   -0.9920   18.2815 C.3     1  UNL1        0.0183
     15 C           8.2173   -0.7261   19.3075 C.3     1  UNL1        0.0187
     16 C           8.2577   -1.5329   20.5714 C.3     1  UNL1        0.0723
     17 N           7.2367   -2.6057   20.8093 N.3     1  UNL1       -0.2692
     18 C           6.1754   -2.8717   19.7833 C.3     1  UNL1        0.0878
     19 H           5.1959   -1.6955   16.7049 H       1  UNL1        0.1189
     20 H           4.1539   -2.1835   17.9094 H       1  UNL1        0.1189
     21 O           6.1645   -1.6404   23.7364 O.3     1  UNL1       -0.4734
     22 C           5.2114   -1.0063   22.7672 C.ar    1  UNL1        0.1390
     23 C           3.9086   -1.6779   22.4483 C.ar    1  UNL1        0.0385
     24 C           2.9553   -1.0438   21.4792 C.ar    1  UNL1        0.0223
     25 C           3.3050    0.2619   20.8288 C.ar    1  UNL1        0.0848
     26 C           4.6077    0.9335   21.1477 C.ar    1  UNL1        0.0223
     27 C           5.5610    0.2994   22.1169 C.ar    1  UNL1        0.0385
     28 N           2.3517    0.8959   19.8596 N.ar    1  UNL1       -0.2079
     29 C           1.2405    0.1990   19.1321 C.ar    1  UNL1        0.2016
     30 N           0.5443    1.2106   18.2706 N.ar    1  UNL1       -0.2004
     31 C           1.2254    2.5327   18.4657 C.ar    1  UNL1        0.2214
     32 N           2.3424    2.3383   19.4478 N.ar    1  UNL1       -0.1409
@<TRIPOS>BOND
     1    13    12    1
     2    13    14    1
     3    14    15    1
     4    15    16    1
     5    16    17    1
     6     1    17    1
     7     1     2    1
     8     2     3    1
     9     3     4   ar
    10     4     5    1
    11     4     6   ar
    12     6     7   ar
    13     7     8    1
    14     7     9   ar
    15     9    10   ar
    16    10    11    1
    17    11    21    1
    18    21    22    1
    19    22    23   ar
    20    23    24   ar
    21    24    25   ar
    22    25    28    1
    23    28    29   ar
    24    29    30   ar
    25    30    31   ar
    26    31    32   ar
    27    25    26   ar
    28    26    27   ar
    29    17    18    1
    30    18    13    1
    31    11     1    1
    32    27    22   ar
    33    10     3   ar
    34    32    28   ar
    35    12    19    1
    36    12    20    1
