@<TRIPOS>MOLECULE
*****
 42 46 0 0 0
SMALL
GASTEIGER

@<TRIPOS>ATOM
      1 C           3.9900    0.8339   23.3150 C.ar    0  UNK0        0.0088
      2 S           2.8939    1.8095   23.0043 S.2     0  UNK0       -0.0722
      3 C           2.1719    1.3222   21.7831 C.ar    0  UNK0        0.1148
      4 N           1.0066    1.8762   21.0181 N.ar    0  UNK0       -0.2173
      5 C           0.4913    1.1533   19.8091 C.ar    0  UNK0        0.2005
      6 N           1.1413   -0.1235   19.3650 N.ar    0  UNK0       -0.2092
      7 C           2.3065   -0.6775   20.1300 C.ar    0  UNK0        0.1324
      8 C           2.8219    0.0454   21.3390 C.ar    0  UNK0        0.0554
      9 C           3.9455   -0.2564   22.2858 C.ar    0  UNK0        0.0064
     10 C           4.8635   -1.4407   22.2156 C.ar    0  UNK0       -0.0026
     11 C           4.5073   -2.7093   22.9322 C.ar    0  UNK0        0.0029
     12 C           5.4253   -3.8935   22.8620 C.ar    0  UNK0        0.0378
     13 C           6.6995   -3.8091   22.0752 C.ar    0  UNK0        0.1487
     14 C           7.0557   -2.5405   21.3584 C.ar    0  UNK0        0.0876
     15 CL          8.3299   -2.4561   20.5715 Cl      0  UNK0       -0.0794
     16 C           6.1378   -1.3563   21.4286 C.ar    0  UNK0       -0.0083
     17 C           6.4940   -0.0877   20.7119 C.3     0  UNK0        0.0320
     18 O           7.6175   -4.9934   22.0050 O.3     0  UNK0       -0.4731
     19 C           8.4563   -5.3635   23.1922 C.3     0  UNK0        0.2227
     20 C           8.0603   -6.5227   24.0580 C.3     0  UNK0        0.1201
     21 N           7.7883   -6.3099   25.5177 N.3     0  UNK0       -0.2672
     22 C           8.3678   -7.2495   26.5334 C.3     0  UNK0        0.0898
     23 C           8.0957   -7.0367   27.9931 C.3     0  UNK0        0.0897
     24 N           7.2442   -5.8843   28.4371 N.3     0  UNK0       -0.2691
     25 C           6.9722   -5.6715   29.8968 C.3     0  UNK0        0.0897
     26 C           6.6648   -4.9448   27.4214 C.3     0  UNK0        0.0897
     27 C           6.9368   -5.1576   25.9617 C.3     0  UNK0        0.0898
     28 C           6.3809    1.3386   24.1975 C.3     0  UNK0        0.0056
     29 C           4.9604    0.9314   24.4547 C.3     0  UNK0        0.0330
     30 N           2.9565   -1.9544   19.6859 N.pl3   1  PHE1       -0.3147
     31 H           2.7693   -2.7943   20.1641 H       1  PHE1        0.1485
     32 CA          3.8917   -1.9515   18.5131 C.3     1  PHE1        0.1115
     33 C           4.9410   -3.0161   18.3880 C.2     1  PHE1        0.0685
     34 O           4.6653   -4.4033   18.8877 O.co2   1  PHE1       -0.5475
     35 OXT         6.2659   -2.6935   17.7632 O.co2   1  PHE1       -0.5475
     36 CB          3.7776   -0.8841   17.4654 C.3     1  PHE1        0.0516
     37 CG          4.6525    0.3323   17.5357 C.ar    1  PHE1       -0.0201
     38 CD1         5.9676    0.3530   16.8146 C.ar    1  PHE1       -0.0042
     39 CE1         6.8425    1.5695   16.8849 C.ar    1  PHE1       -0.0003
     40 CZ          6.4022    2.7652   17.6764 C.ar    1  PHE1       -0.0000
     41 CE2         5.0871    2.7445   18.3975 C.ar    1  PHE1       -0.0003
     42 CD2         4.2122    1.5281   18.3272 C.ar    1  PHE1       -0.0042
@<TRIPOS>UNITY_ATOM_ATTR
34 1
charge -1
@<TRIPOS>BOND
     1    28    29    1
     2    29     1    1
     3     1     2   ar
     4     2     3   ar
     5     3     4   ar
     6     4     5   ar
     7     5     6   ar
     8     6     7   ar
     9     7    30    1
    10    30    32    1
    11    32    36    1
    12    36    37    1
    13    37    38   ar
    14    38    39   ar
    15    39    40   ar
    16    40    41   ar
    17    41    42   ar
    18    32    33    1
    19    33    34   ar
    20    33    35   ar
    21     7     8   ar
    22     8     9   ar
    23     9    10    1
    24    10    11   ar
    25    11    12   ar
    26    12    13   ar
    27    13    18    1
    28    18    19    1
    29    19    20    1
    30    20    21    1
    31    21    22    1
    32    22    23    1
    33    23    24    1
    34    24    25    1
    35    24    26    1
    36    26    27    1
    37    13    14   ar
    38    14    15    1
    39    14    16   ar
    40    16    17    1
    41     9     1   ar
    42    16    10   ar
    43     8     3   ar
    44    27    21    1
    45    42    37   ar
    46    30    31    1
@<TRIPOS>MOLECULE
*****
 42 46 0 0 0
SMALL
GASTEIGER

@<TRIPOS>ATOM
      1 C           4.0003   -3.0391   20.7076 C.ar    0  UNK0        0.0088
      2 S           4.7689   -3.7520   21.7805 S.2     0  UNK0       -0.0722
      3 C           4.8635   -2.8394   22.9672 C.ar    0  UNK0        0.1148
      4 N           5.5046   -3.0062   24.3130 N.ar    0  UNK0       -0.2173
      5 C           5.4355   -1.8961   25.3194 C.ar    0  UNK0        0.2005
      6 N           4.7254   -0.6192   24.9800 N.ar    0  UNK0       -0.2092
      7 C           4.0844   -0.4524   23.6342 C.ar    0  UNK0        0.1324
      8 C           4.1535   -1.5625   22.6278 C.ar    0  UNK0        0.0554
      9 C           3.6200   -1.6859   21.2313 C.ar    0  UNK0        0.0064
     10 C           2.8426   -0.6397   20.4889 C.ar    0  UNK0       -0.0026
     11 C           1.3432   -0.6493   20.5299 C.ar    0  UNK0        0.0029
     12 C           0.5659    0.3969   19.7875 C.ar    0  UNK0        0.0378
     13 C           1.2879    1.4527   19.0039 C.ar    0  UNK0        0.1487
     14 C           2.7873    1.4623   18.9628 C.ar    0  UNK0        0.0876
     15 CL          3.5093    2.5180   18.1792 Cl      0  UNK0       -0.0794
     16 C           3.5646    0.4161   19.7052 C.ar    0  UNK0       -0.0083
     17 C           5.0640    0.4257   19.6641 C.3     0  UNK0        0.0320
     18 O           0.5105    2.4988   18.2615 O.3     0  UNK0       -0.4731
     19 C           0.1772    3.8002   18.9288 C.3     0  UNK0        0.2227
     20 C          -0.8241    3.8357   20.0452 C.3     0  UNK0        0.1201
     21 N          -2.2895    3.7328   19.7417 N.3     0  UNK0       -0.2672
     22 C          -3.2552    3.3544   20.8255 C.3     0  UNK0        0.0898
     23 C          -4.7205    3.2516   20.5220 C.3     0  UNK0        0.0897
     24 N          -5.2202    3.5271   19.1348 N.3     0  UNK0       -0.2691
     25 C          -6.6856    3.4243   18.8313 C.3     0  UNK0        0.0897
     26 C          -4.2547    3.9055   18.0510 C.3     0  UNK0        0.0897
     27 C          -2.7893    4.0083   18.3545 C.3     0  UNK0        0.0898
     28 C           4.1775   -4.9343   18.9394 C.3     0  UNK0        0.0056
     29 C           3.6701   -3.5837   19.3496 C.3     0  UNK0        0.0330
     30 N           3.3743    0.8246   23.2947 N.pl3   1  PHE1       -0.3147
     31 H           3.5365    1.2626   22.4281 H       1  PHE1        0.1485
     32 CA          2.4171    1.4340   24.2757 C.3     1  PHE1        0.1115
     33 C           2.8653    2.5591   25.1609 C.2     1  PHE1        0.0685
     34 O           3.4243    2.2657   26.5216 O.co2   1  PHE1       -0.5475
     35 OXT         2.7544    3.9774   24.6855 O.co2   1  PHE1       -0.5475
     36 CB          1.0117    0.9186   24.3714 C.3     1  PHE1        0.0516
     37 CG         -0.0556    1.7632   25.0019 C.ar    1  PHE1       -0.0201
     38 CD1        -0.7698    2.8007   24.1873 C.ar    1  PHE1       -0.0042
     39 CE1        -1.8372    3.6453   24.8178 C.ar    1  PHE1       -0.0003
     40 CZ         -2.1902    3.4525   26.2628 C.ar    1  PHE1       -0.0000
     41 CE2        -1.4760    2.4149   27.0774 C.ar    1  PHE1       -0.0003
     42 CD2        -0.4087    1.5704   26.4470 C.ar    1  PHE1       -0.0042
@<TRIPOS>UNITY_ATOM_ATTR
34 1
charge -1
@<TRIPOS>BOND
     1    28    29    1
     2    29     1    1
     3     1     2   ar
     4     2     3   ar
     5     3     4   ar
     6     4     5   ar
     7     5     6   ar
     8     6     7   ar
     9     7    30    1
    10    30    32    1
    11    32    36    1
    12    36    37    1
    13    37    38   ar
    14    38    39   ar
    15    39    40   ar
    16    40    41   ar
    17    41    42   ar
    18    32    33    1
    19    33    34   ar
    20    33    35   ar
    21     7     8   ar
    22     8     9   ar
    23     9    10    1
    24    10    11   ar
    25    11    12   ar
    26    12    13   ar
    27    13    18    1
    28    18    19    1
    29    19    20    1
    30    20    21    1
    31    21    22    1
    32    22    23    1
    33    23    24    1
    34    24    25    1
    35    24    26    1
    36    26    27    1
    37    13    14   ar
    38    14    15    1
    39    14    16   ar
    40    16    17    1
    41     9     1   ar
    42    16    10   ar
    43     8     3   ar
    44    27    21    1
    45    42    37   ar
    46    30    31    1
@<TRIPOS>MOLECULE
*****
 42 46 0 0 0
SMALL
GASTEIGER

@<TRIPOS>ATOM
      1 C           8.7808    0.7251   20.9854 C.ar    0  UNK0        0.0088
      2 S           8.7451    1.7894   19.9289 S.2     0  UNK0       -0.0722
      3 C           8.0203    1.2361   18.7379 C.ar    0  UNK0        0.1148
      4 N           7.6824    1.8310   17.4030 N.ar    0  UNK0       -0.2173
      5 C           6.9323    1.0198   16.3886 C.ar    0  UNK0        0.2005
      6 N           6.5200   -0.3864   16.7090 N.ar    0  UNK0       -0.2092
      7 C           6.8579   -0.9814   18.0438 C.ar    0  UNK0        0.1324
      8 C           7.6080   -0.1701   19.0582 C.ar    0  UNK0        0.0554
      9 C           8.0781   -0.4859   20.4473 C.ar    0  UNK0        0.0064
     10 C           7.8801   -1.7847   21.1711 C.ar    0  UNK0       -0.0026
     11 C           8.9274   -2.8555   21.0904 C.ar    0  UNK0        0.0029
     12 C           8.7294   -4.1543   21.8143 C.ar    0  UNK0        0.0378
     13 C           7.4841   -4.3823   22.6188 C.ar    0  UNK0        0.1487
     14 C           6.4368   -3.3115   22.6995 C.ar    0  UNK0        0.0876
     15 CL          5.1915   -3.5394   23.5040 Cl      0  UNK0       -0.0794
     16 C           6.6348   -2.0127   21.9757 C.ar    0  UNK0       -0.0083
     17 C           5.5875   -0.9419   22.0564 C.3     0  UNK0        0.0320
     18 O           7.2862   -5.6811   23.3426 O.3     0  UNK0       -0.4731
     19 C           8.4259   -6.3018   24.0948 C.3     0  UNK0        0.2227
     20 C           8.1530   -7.3073   25.1740 C.3     0  UNK0        0.1201
     21 N           7.8646   -6.8470   26.5722 N.3     0  UNK0       -0.2672
     22 C           8.6887   -7.3603   27.7158 C.3     0  UNK0        0.0898
     23 C           8.4002   -6.9000   29.1140 C.3     0  UNK0        0.0897
     24 N           7.2877   -5.9266   29.3686 N.3     0  UNK0       -0.2691
     25 C           6.9993   -5.4663   30.7668 C.3     0  UNK0        0.0897
     26 C           6.4637   -5.4134   28.2251 C.3     0  UNK0        0.0897
     27 C           6.7521   -5.8736   26.8269 C.3     0  UNK0        0.0898
     28 C           8.5486    1.0819   23.5483 C.3     0  UNK0        0.0056
     29 C           9.4090    0.8500   22.3418 C.3     0  UNK0        0.0330
     30 N           6.4457   -2.3876   18.3642 N.pl3   1  PHE1       -0.3147
     31 H           7.1287   -3.0884   18.4718 H       1  PHE1        0.1485
     32 CA          4.9928   -2.7261   18.5207 C.3     1  PHE1        0.1115
     33 C           4.5890   -4.0589   19.0780 C.2     1  PHE1        0.0685
     34 O           3.1618   -4.5107   18.9821 O.co2   1  PHE1       -0.5475
     35 OXT         5.6122   -4.9399   19.7312 O.co2   1  PHE1       -0.5475
     36 CB          3.9437   -1.7317   18.1198 C.3     1  PHE1        0.0516
     37 CG          3.3880   -0.7774   19.1350 C.ar    1  PHE1       -0.0201
     38 CD1         3.8525    0.6486   19.1570 C.ar    1  PHE1       -0.0042
     39 CE1         3.2968    1.6029   20.1722 C.ar    1  PHE1       -0.0003
     40 CZ          2.2765    1.1311   21.1654 C.ar    1  PHE1       -0.0000
     41 CE2         1.8120   -0.2950   21.1433 C.ar    1  PHE1       -0.0003
     42 CD2         2.3677   -1.2492   20.1282 C.ar    1  PHE1       -0.0042
@<TRIPOS>UNITY_ATOM_ATTR
34 1
charge -1
@<TRIPOS>BOND
     1    28    29    1
     2    29     1    1
     3     1     2   ar
     4     2     3   ar
     5     3     4   ar
     6     4     5   ar
     7     5     6   ar
     8     6     7   ar
     9     7    30    1
    10    30    32    1
    11    32    36    1
    12    36    37    1
    13    37    38   ar
    14    38    39   ar
    15    39    40   ar
    16    40    41   ar
    17    41    42   ar
    18    32    33    1
    19    33    34   ar
    20    33    35   ar
    21     7     8   ar
    22     8     9   ar
    23     9    10    1
    24    10    11   ar
    25    11    12   ar
    26    12    13   ar
    27    13    18    1
    28    18    19    1
    29    19    20    1
    30    20    21    1
    31    21    22    1
    32    22    23    1
    33    23    24    1
    34    24    25    1
    35    24    26    1
    36    26    27    1
    37    13    14   ar
    38    14    15    1
    39    14    16   ar
    40    16    17    1
    41     9     1   ar
    42    16    10   ar
    43     8     3   ar
    44    27    21    1
    45    42    37   ar
    46    30    31    1
@<TRIPOS>MOLECULE
*****
 42 46 0 0 0
SMALL
GASTEIGER

@<TRIPOS>ATOM
      1 C           4.3826   -1.8552   18.8931 C.ar    0  UNK0        0.0088
      2 S           5.3154   -2.9521   19.3132 S.2     0  UNK0       -0.0722
      3 C           5.2530   -3.0667   20.8076 C.ar    0  UNK0        0.1148
      4 N           5.9552   -3.9729   21.7749 N.ar    0  UNK0       -0.2173
      5 C           5.6861   -3.8529   23.2456 C.ar    0  UNK0        0.2005
      6 N           4.7147   -2.8267   23.7490 N.ar    0  UNK0       -0.2092
      7 C           4.0125   -1.9206   22.7817 C.ar    0  UNK0        0.1324
      8 C           4.2816   -2.0406   21.3110 C.ar    0  UNK0        0.0554
      9 C           3.7437   -1.2918   20.1278 C.ar    0  UNK0        0.0064
     10 C           2.7426   -0.1756   20.1716 C.ar    0  UNK0       -0.0026
     11 C           1.2747   -0.4836   20.1569 C.ar    0  UNK0        0.0029
     12 C           0.2736    0.6326   20.2007 C.ar    0  UNK0        0.0378
     13 C           0.7405    2.0569   20.2593 C.ar    0  UNK0        0.1487
     14 C           2.2084    2.3650   20.2739 C.ar    0  UNK0        0.0876
     15 CL          2.6753    3.7892   20.3325 Cl      0  UNK0       -0.0794
     16 C           3.2095    1.2488   20.2301 C.ar    0  UNK0       -0.0083
     17 C           4.6774    1.5569   20.2448 C.3     0  UNK0        0.0320
     18 O          -0.2606    3.1731   20.3031 O.3     0  UNK0       -0.4731
     19 C          -1.5829    2.9685   20.9811 C.3     0  UNK0        0.2227
     20 C          -2.8515    3.3664   20.2865 C.3     0  UNK0        0.1201
     21 N          -4.0902    3.6409   21.0865 N.3     0  UNK0       -0.2672
     22 C          -5.3174    4.1754   20.4093 C.3     0  UNK0        0.0898
     23 C          -6.5561    4.4499   21.2094 C.3     0  UNK0        0.0897
     24 N          -6.5677    4.1899   22.6867 N.3     0  UNK0       -0.2691
     25 C          -7.8065    4.4644   23.4867 C.3     0  UNK0        0.0897
     26 C          -5.3407    3.6554   23.3639 C.3     0  UNK0        0.0897
     27 C          -4.1019    3.3809   22.5638 C.3     0  UNK0        0.0898
     28 C           4.8229   -0.1786   16.9579 C.3     0  UNK0        0.0056
     29 C           4.1325   -1.4013   17.4855 C.3     0  UNK0        0.0330
     30 N           3.0411   -0.8944   23.2851 N.pl3   1  PHE1       -0.3147
     31 H           2.0751   -1.0843   23.2750 H       1  PHE1        0.1485
     32 CA          3.5415    0.4210   23.8040 C.3     1  PHE1        0.1115
     33 C           4.9178    0.5207   24.3921 C.2     1  PHE1        0.0685
     34 O           6.0597    1.0078   23.5501 O.co2   1  PHE1       -0.5475
     35 OXT         5.1523    0.1335   25.8221 O.co2   1  PHE1       -0.5475
     36 CB          2.6655    1.6367   23.7349 C.3     1  PHE1        0.0516
     37 CG          1.4768    1.7572   24.6419 C.ar    1  PHE1       -0.0201
     38 CD1         1.5210    1.1644   26.0190 C.ar    1  PHE1       -0.0042
     39 CE1         0.3323    1.2848   26.9260 C.ar    1  PHE1       -0.0003
     40 CZ         -0.9006    1.9981   26.4557 C.ar    1  PHE1       -0.0000
     41 CE2        -0.9448    2.5909   25.0785 C.ar    1  PHE1       -0.0003
     42 CD2         0.2439    2.4704   24.1716 C.ar    1  PHE1       -0.0042
@<TRIPOS>UNITY_ATOM_ATTR
34 1
charge -1
@<TRIPOS>BOND
     1    28    29    1
     2    29     1    1
     3     1     2   ar
     4     2     3   ar
     5     3     4   ar
     6     4     5   ar
     7     5     6   ar
     8     6     7   ar
     9     7    30    1
    10    30    32    1
    11    32    36    1
    12    36    37    1
    13    37    38   ar
    14    38    39   ar
    15    39    40   ar
    16    40    41   ar
    17    41    42   ar
    18    32    33    1
    19    33    34   ar
    20    33    35   ar
    21     7     8   ar
    22     8     9   ar
    23     9    10    1
    24    10    11   ar
    25    11    12   ar
    26    12    13   ar
    27    13    18    1
    28    18    19    1
    29    19    20    1
    30    20    21    1
    31    21    22    1
    32    22    23    1
    33    23    24    1
    34    24    25    1
    35    24    26    1
    36    26    27    1
    37    13    14   ar
    38    14    15    1
    39    14    16   ar
    40    16    17    1
    41     9     1   ar
    42    16    10   ar
    43     8     3   ar
    44    27    21    1
    45    42    37   ar
    46    30    31    1
@<TRIPOS>MOLECULE
*****
 42 46 0 0 0
SMALL
GASTEIGER

@<TRIPOS>ATOM
      1 C           4.9393   -3.1188   19.6523 C.ar    0  UNK0        0.0088
      2 S           5.4408   -2.8479   18.2649 S.2     0  UNK0       -0.0722
      3 C           6.0431   -1.4742   18.2496 C.ar    0  UNK0        0.1148
      4 N           6.6925   -0.6750   17.1590 N.ar    0  UNK0       -0.2173
      5 C           7.2126    0.7022   17.4464 C.ar    0  UNK0        0.2005
      6 N           7.0833    1.2803   18.8245 N.ar    0  UNK0       -0.2092
      7 C           6.4338    0.4811   19.9151 C.ar    0  UNK0        0.1324
      8 C           5.9137   -0.8961   19.6277 C.ar    0  UNK0        0.0554
      9 C           5.2316   -1.9125   20.4946 C.ar    0  UNK0        0.0064
     10 C           4.8999   -1.7510   21.9485 C.ar    0  UNK0       -0.0026
     11 C           3.5681   -1.1947   22.3567 C.ar    0  UNK0        0.0029
     12 C           3.2365   -1.0332   23.8107 C.ar    0  UNK0        0.0378
     13 C           4.2367   -1.4280   24.8565 C.ar    0  UNK0        0.1487
     14 C           5.5685   -1.9843   24.4483 C.ar    0  UNK0        0.0876
     15 CL          6.5688   -2.3792   25.4940 Cl      0  UNK0       -0.0794
     16 C           5.9002   -2.1459   22.9944 C.ar    0  UNK0       -0.0083
     17 C           7.2320   -2.7022   22.5862 C.3     0  UNK0        0.0320
     18 O           3.9050   -1.2664   26.3104 O.3     0  UNK0       -0.4731
     19 C           3.5487    0.0860   26.8526 C.3     0  UNK0        0.2227
     20 C           2.2756    0.2733   27.6235 C.3     0  UNK0        0.1201
     21 N           1.1379    1.0403   27.0175 N.3     0  UNK0       -0.2672
     22 C          -0.0556    1.3972   27.8532 C.3     0  UNK0        0.0898
     23 C          -1.1933    2.1641   27.2472 C.3     0  UNK0        0.0897
     24 N          -1.1375    2.5742   25.8053 N.3     0  UNK0       -0.2691
     25 C          -2.2753    3.3412   25.1993 C.3     0  UNK0        0.0897
     26 C           0.0559    2.2173   24.9696 C.3     0  UNK0        0.0897
     27 C           1.1936    1.4504   25.5757 C.3     0  UNK0        0.0898
     28 C           3.1450   -4.9665   19.3109 C.3     0  UNK0        0.0056
     29 C           4.2640   -4.3754   20.1161 C.3     0  UNK0        0.0330
     30 N           6.3045    1.0592   21.2932 N.pl3   1  PHE1       -0.3147
     31 H           6.8990    0.7501   22.0145 H       1  PHE1        0.1485
     32 CA          5.2694    2.1083   21.5723 C.3     1  PHE1        0.1115
     33 C           5.2744    2.8368   22.8836 C.2     1  PHE1        0.0685
     34 O           6.0588    4.1066   23.0330 O.co2   1  PHE1       -0.5475
     35 OXT         4.4952    2.2956   24.0453 O.co2   1  PHE1       -0.5475
     36 CB          4.2291    2.4288   20.5403 C.3     1  PHE1        0.0516
     37 CG          2.9512    1.6445   20.4947 C.ar    1  PHE1       -0.0201
     38 CD1         2.7039    0.6781   19.3746 C.ar    1  PHE1       -0.0042
     39 CE1         1.4260   -0.1062   19.3290 C.ar    1  PHE1       -0.0003
     40 CZ          0.3955    0.0760   20.4036 C.ar    1  PHE1       -0.0000
     41 CE2         0.6428    1.0425   21.5238 C.ar    1  PHE1       -0.0003
     42 CD2         1.9207    1.8267   21.5694 C.ar    1  PHE1       -0.0042
@<TRIPOS>UNITY_ATOM_ATTR
34 1
charge -1
@<TRIPOS>BOND
     1    28    29    1
     2    29     1    1
     3     1     2   ar
     4     2     3   ar
     5     3     4   ar
     6     4     5   ar
     7     5     6   ar
     8     6     7   ar
     9     7    30    1
    10    30    32    1
    11    32    36    1
    12    36    37    1
    13    37    38   ar
    14    38    39   ar
    15    39    40   ar
    16    40    41   ar
    17    41    42   ar
    18    32    33    1
    19    33    34   ar
    20    33    35   ar
    21     7     8   ar
    22     8     9   ar
    23     9    10    1
    24    10    11   ar
    25    11    12   ar
    26    12    13   ar
    27    13    18    1
    28    18    19    1
    29    19    20    1
    30    20    21    1
    31    21    22    1
    32    22    23    1
    33    23    24    1
    34    24    25    1
    35    24    26    1
    36    26    27    1
    37    13    14   ar
    38    14    15    1
    39    14    16   ar
    40    16    17    1
    41     9     1   ar
    42    16    10   ar
    43     8     3   ar
    44    27    21    1
    45    42    37   ar
    46    30    31    1
@<TRIPOS>MOLECULE
*****
 42 46 0 0 0
SMALL
GASTEIGER

@<TRIPOS>ATOM
      1 C           4.9573    0.3130   35.2994 C.ar    0  UNK0        0.0088
      2 S           3.9620    1.4034   35.5650 S.2     0  UNK0       -0.0722
      3 C           3.0933    1.5441   34.3503 C.ar    0  UNK0        0.1148
      4 N           1.9442    2.4562   34.0383 N.ar    0  UNK0       -0.2173
      5 C           1.2533    2.3649   32.7101 C.ar    0  UNK0        0.2005
      6 N           1.7117    1.3615   31.6937 N.ar    0  UNK0       -0.2092
      7 C           2.8609    0.4493   32.0056 C.ar    0  UNK0        0.1324
      8 C           3.5517    0.5406   33.3339 C.ar    0  UNK0        0.0554
      9 C           4.7036   -0.2202   33.9205 C.ar    0  UNK0        0.0064
     10 C           5.4678   -1.3210   33.2465 C.ar    0  UNK0       -0.0026
     11 C           4.9473   -2.7272   33.2838 C.ar    0  UNK0        0.0029
     12 C           5.7115   -3.8280   32.6098 C.ar    0  UNK0        0.0378
     13 C           6.9963   -3.5226   31.8985 C.ar    0  UNK0        0.1487
     14 C           7.5169   -2.1163   31.8611 C.ar    0  UNK0        0.0876
     15 CL          8.8016   -1.8108   31.1498 Cl      0  UNK0       -0.0794
     16 C           6.7527   -1.0155   32.5351 C.ar    0  UNK0       -0.0083
     17 C           7.2733    0.3907   32.4978 C.3     0  UNK0        0.0320
     18 O           7.7605   -4.6234   31.2245 O.3     0  UNK0       -0.4731
     19 C           7.0356   -5.6386   30.3915 C.3     0  UNK0        0.2227
     20 C           7.4683   -5.8963   28.9785 C.3     0  UNK0        0.1201
     21 N           7.0501   -4.9603   27.8836 N.3     0  UNK0       -0.2672
     22 C           6.5112   -3.6021   28.2230 C.3     0  UNK0        0.0898
     23 C           6.0930   -2.6661   27.1280 C.3     0  UNK0        0.0897
     24 N           6.2137   -3.0882   25.6937 N.3     0  UNK0       -0.2691
     25 C           5.7955   -2.1522   24.5987 C.3     0  UNK0        0.0897
     26 C           6.7526   -4.4463   25.3543 C.3     0  UNK0        0.0897
     27 C           7.1708   -5.3823   26.4492 C.3     0  UNK0        0.0898
     28 C           7.3781    0.4748   36.2286 C.3     0  UNK0        0.0056
     29 C           6.0196   -0.1609   36.2464 C.3     0  UNK0        0.0330
     30 N           3.3192   -0.5541   30.9893 N.pl3   1  PHE1       -0.3147
     31 H           3.4918   -1.4849   31.2596 H       1  PHE1        0.1485
     32 CA          3.5146   -0.1394   29.5611 C.3     1  PHE1        0.1115
     33 C           4.6540    0.7635   29.1914 C.2     1  PHE1        0.0685
     34 O           6.0578    0.2349   29.1837 O.co2   1  PHE1       -0.5475
     35 OXT         4.3896    2.1950   28.8296 O.co2   1  PHE1       -0.5475
     36 CB          2.5707   -0.6276   28.5024 C.3     1  PHE1        0.0516
     37 CG          1.3198    0.1429   28.1998 C.ar    1  PHE1       -0.0201
     38 CD1         1.3590    1.2847   27.2278 C.ar    1  PHE1       -0.0042
     39 CE1         0.1081    2.0553   26.9251 C.ar    1  PHE1       -0.0003
     40 CZ         -1.1820    1.6840   27.5944 C.ar    1  PHE1       -0.0000
     41 CE2        -1.2211    0.5421   28.5664 C.ar    1  PHE1       -0.0003
     42 CD2         0.0298   -0.2284   28.8691 C.ar    1  PHE1       -0.0042
@<TRIPOS>UNITY_ATOM_ATTR
34 1
charge -1
@<TRIPOS>BOND
     1    28    29    1
     2    29     1    1
     3     1     2   ar
     4     2     3   ar
     5     3     4   ar
     6     4     5   ar
     7     5     6   ar
     8     6     7   ar
     9     7    30    1
    10    30    32    1
    11    32    36    1
    12    36    37    1
    13    37    38   ar
    14    38    39   ar
    15    39    40   ar
    16    40    41   ar
    17    41    42   ar
    18    32    33    1
    19    33    34   ar
    20    33    35   ar
    21     7     8   ar
    22     8     9   ar
    23     9    10    1
    24    10    11   ar
    25    11    12   ar
    26    12    13   ar
    27    13    18    1
    28    18    19    1
    29    19    20    1
    30    20    21    1
    31    21    22    1
    32    22    23    1
    33    23    24    1
    34    24    25    1
    35    24    26    1
    36    26    27    1
    37    13    14   ar
    38    14    15    1
    39    14    16   ar
    40    16    17    1
    41     9     1   ar
    42    16    10   ar
    43     8     3   ar
    44    27    21    1
    45    42    37   ar
    46    30    31    1
@<TRIPOS>MOLECULE
*****
 42 46 0 0 0
SMALL
GASTEIGER

@<TRIPOS>ATOM
      1 C           6.9364   -1.9913   21.9577 C.ar    0  UNK0        0.0088
      2 S           7.1560   -3.2934   21.2462 S.2     0  UNK0       -0.0722
      3 C           5.9029   -3.6267   20.4921 C.ar    0  UNK0        0.1148
      4 N           5.5386   -4.7867   19.6137 N.ar    0  UNK0       -0.2173
      5 C           4.1803   -4.8506   18.9807 C.ar    0  UNK0        0.2005
      6 N           3.1862   -3.7544   19.2261 N.ar    0  UNK0       -0.2092
      7 C           3.5505   -2.5944   20.1045 C.ar    0  UNK0        0.1324
      8 C           4.9088   -2.5306   20.7375 C.ar    0  UNK0        0.0554
      9 C           5.5476   -1.5198   21.6433 C.ar    0  UNK0        0.0064
     10 C           4.9095   -0.2589   22.1463 C.ar    0  UNK0       -0.0026
     11 C           5.1790    1.0451   21.4560 C.ar    0  UNK0        0.0029
     12 C           4.5409    2.3060   21.9591 C.ar    0  UNK0        0.0378
     13 C           3.6332    2.2628   23.1525 C.ar    0  UNK0        0.1487
     14 C           3.3637    0.9587   23.8428 C.ar    0  UNK0        0.0876
     15 CL          2.4560    0.9153   25.0362 Cl      0  UNK0       -0.0794
     16 C           4.0018   -0.3022   23.3398 C.ar    0  UNK0       -0.0083
     17 C           3.7322   -1.6063   24.0301 C.3     0  UNK0        0.0320
     18 O           2.9951    3.5237   23.6555 O.3     0  UNK0       -0.4731
     19 C           1.8229    4.1127   22.9284 C.3     0  UNK0        0.2227
     20 C           1.0562    3.2808   21.9434 C.3     0  UNK0        0.1201
     21 N          -0.4429    3.3300   21.9267 N.3     0  UNK0       -0.2672
     22 C          -1.2008    3.5407   23.2040 C.3     0  UNK0        0.0898
     23 C          -2.6999    3.5899   23.1872 C.3     0  UNK0        0.0897
     24 N          -3.4411    3.4284   21.8931 N.3     0  UNK0       -0.2691
     25 C          -4.9402    3.4776   21.8764 C.3     0  UNK0        0.0897
     26 C          -2.6833    3.2177   20.6159 C.3     0  UNK0        0.0897
     27 C          -1.1842    3.1685   20.6327 C.3     0  UNK0        0.0898
     28 C           7.7723   -1.3109   24.3217 C.3     0  UNK0        0.0056
     29 C           7.9310   -1.2847   22.8303 C.3     0  UNK0        0.0330
     30 N           2.5564   -1.4982   20.3499 N.pl3   1  PHE1       -0.3147
     31 H           2.1519   -1.3909   21.2410 H       1  PHE1        0.1485
     32 CA          2.1786   -0.5655   19.2376 C.3     1  PHE1        0.1115
     33 C           0.9101    0.2304   19.3244 C.2     1  PHE1        0.0685
     34 O           0.5547    1.1965   18.2333 O.co2   1  PHE1       -0.5475
     35 OXT        -0.0030    0.0601   20.5021 O.co2   1  PHE1       -0.5475
     36 CB          3.0693   -0.4286   18.0384 C.3     1  PHE1        0.0516
     37 CG          4.2448    0.5024   18.0796 C.ar    1  PHE1       -0.0201
     38 CD1         5.6376   -0.0429   17.9676 C.ar    1  PHE1       -0.0042
     39 CE1         6.8131    0.8881   18.0088 C.ar    1  PHE1       -0.0003
     40 CZ          6.5956    2.3643   18.1621 C.ar    1  PHE1       -0.0000
     41 CE2         5.2026    2.9096   18.2741 C.ar    1  PHE1       -0.0003
     42 CD2         4.0273    1.9786   18.2329 C.ar    1  PHE1       -0.0042
@<TRIPOS>UNITY_ATOM_ATTR
34 1
charge -1
@<TRIPOS>BOND
     1    28    29    1
     2    29     1    1
     3     1     2   ar
     4     2     3   ar
     5     3     4   ar
     6     4     5   ar
     7     5     6   ar
     8     6     7   ar
     9     7    30    1
    10    30    32    1
    11    32    36    1
    12    36    37    1
    13    37    38   ar
    14    38    39   ar
    15    39    40   ar
    16    40    41   ar
    17    41    42   ar
    18    32    33    1
    19    33    34   ar
    20    33    35   ar
    21     7     8   ar
    22     8     9   ar
    23     9    10    1
    24    10    11   ar
    25    11    12   ar
    26    12    13   ar
    27    13    18    1
    28    18    19    1
    29    19    20    1
    30    20    21    1
    31    21    22    1
    32    22    23    1
    33    23    24    1
    34    24    25    1
    35    24    26    1
    36    26    27    1
    37    13    14   ar
    38    14    15    1
    39    14    16   ar
    40    16    17    1
    41     9     1   ar
    42    16    10   ar
    43     8     3   ar
    44    27    21    1
    45    42    37   ar
    46    30    31    1
@<TRIPOS>MOLECULE
*****
 42 46 0 0 0
SMALL
GASTEIGER

@<TRIPOS>ATOM
      1 C           3.8715    1.6108   34.8938 C.ar    0  UNK0        0.0088
      2 S           2.7998    2.6588   34.8373 S.2     0  UNK0       -0.0722
      3 C           2.0944    2.5298   33.5198 C.ar    0  UNK0        0.1148
      4 N           0.9553    3.2936   32.9123 N.ar    0  UNK0       -0.2173
      5 C           0.4520    2.9296   31.5469 C.ar    0  UNK0        0.2005
      6 N           1.0877    1.8020   30.7892 N.ar    0  UNK0       -0.2092
      7 C           2.2268    1.0383   31.3967 C.ar    0  UNK0        0.1324
      8 C           2.7301    1.4022   32.7620 C.ar    0  UNK0        0.0554
      9 C           3.8285    0.8342   33.6112 C.ar    0  UNK0        0.0064
     10 C           4.7261   -0.3096   33.2425 C.ar    0  UNK0       -0.0026
     11 C           4.2213   -1.7190   33.3343 C.ar    0  UNK0        0.0029
     12 C           5.1189   -2.8628   32.9655 C.ar    0  UNK0        0.0378
     13 C           6.5215   -2.5971   32.5050 C.ar    0  UNK0        0.1487
     14 C           7.0265   -1.1877   32.4132 C.ar    0  UNK0        0.0876
     15 CL          8.4290   -0.9219   31.9527 Cl      0  UNK0       -0.0794
     16 C           6.1288   -0.0439   32.7819 C.ar    0  UNK0       -0.0083
     17 C           6.6337    1.3656   32.6901 C.3     0  UNK0        0.0320
     18 O           7.4192   -3.7409   32.1363 O.3     0  UNK0       -0.4731
     19 C           6.9381   -4.7950   31.1837 C.3     0  UNK0        0.2227
     20 C           7.8733   -5.8742   30.7246 C.3     0  UNK0        0.1201
     21 N           7.8921   -6.2870   29.2827 N.3     0  UNK0       -0.2672
     22 C           6.9192   -5.6795   28.3159 C.3     0  UNK0        0.0898
     23 C           6.9379   -6.0922   26.8739 C.3     0  UNK0        0.0897
     24 N           7.9296   -7.1125   26.3987 N.3     0  UNK0       -0.2691
     25 C           7.9484   -7.5253   24.9568 C.3     0  UNK0        0.0897
     26 C           8.9025   -7.7199   27.3654 C.3     0  UNK0        0.0897
     27 C           8.8837   -7.3072   28.8074 C.3     0  UNK0        0.0898
     28 C           4.6479    0.1837   36.9212 C.3     0  UNK0        0.0056
     29 C           4.8198    1.3800   36.0329 C.3     0  UNK0        0.0330
     30 N           2.8626   -0.0894   30.6389 N.pl3   1  PHE1       -0.3147
     31 H           2.8203   -1.0066   30.9941 H       1  PHE1        0.1485
     32 CA          3.5626    0.1805   29.3401 C.3     1  PHE1        0.1115
     33 C           2.9475   -0.2709   28.0486 C.2     1  PHE1        0.0685
     34 O           3.1654   -1.6736   27.5639 O.co2   1  PHE1       -0.5475
     35 OXT         2.1145    0.6805   27.2418 O.co2   1  PHE1       -0.5475
     36 CB          4.8778    0.9017   29.3327 C.3     1  PHE1        0.0516
     37 CG          6.1413    0.1542   29.0244 C.ar    1  PHE1       -0.0201
     38 CD1         7.4119    0.9061   28.7594 C.ar    1  PHE1       -0.0042
     39 CE1         8.6754    0.1587   28.4512 C.ar    1  PHE1       -0.0003
     40 CZ          8.6683   -1.3407   28.4079 C.ar    1  PHE1       -0.0000
     41 CE2         7.3976   -2.0926   28.6729 C.ar    1  PHE1       -0.0003
     42 CD2         6.1342   -1.3451   28.9812 C.ar    1  PHE1       -0.0042
@<TRIPOS>UNITY_ATOM_ATTR
34 1
charge -1
@<TRIPOS>BOND
     1    28    29    1
     2    29     1    1
     3     1     2   ar
     4     2     3   ar
     5     3     4   ar
     6     4     5   ar
     7     5     6   ar
     8     6     7   ar
     9     7    30    1
    10    30    32    1
    11    32    36    1
    12    36    37    1
    13    37    38   ar
    14    38    39   ar
    15    39    40   ar
    16    40    41   ar
    17    41    42   ar
    18    32    33    1
    19    33    34   ar
    20    33    35   ar
    21     7     8   ar
    22     8     9   ar
    23     9    10    1
    24    10    11   ar
    25    11    12   ar
    26    12    13   ar
    27    13    18    1
    28    18    19    1
    29    19    20    1
    30    20    21    1
    31    21    22    1
    32    22    23    1
    33    23    24    1
    34    24    25    1
    35    24    26    1
    36    26    27    1
    37    13    14   ar
    38    14    15    1
    39    14    16   ar
    40    16    17    1
    41     9     1   ar
    42    16    10   ar
    43     8     3   ar
    44    27    21    1
    45    42    37   ar
    46    30    31    1
@<TRIPOS>MOLECULE
*****
 42 46 0 0 0
SMALL
GASTEIGER

@<TRIPOS>ATOM
      1 C           5.2588   -3.1725   20.3151 C.ar    0  UNK0        0.0088
      2 S           6.7437   -3.3832   20.2873 S.2     0  UNK0       -0.0722
      3 C           7.4043   -2.0395   20.3771 C.ar    0  UNK0        0.1148
      4 N           8.8470   -1.6295   20.3937 N.ar    0  UNK0       -0.2173
      5 C           9.2132   -0.1783   20.4937 C.ar    0  UNK0        0.2005
      6 N           8.1366    0.8628   20.5771 N.ar    0  UNK0       -0.2092
      7 C           6.6939    0.4528   20.5605 C.ar    0  UNK0        0.1324
      8 C           6.3277   -0.9983   20.4605 C.ar    0  UNK0        0.0554
      9 C           5.0017   -1.6986   20.4222 C.ar    0  UNK0        0.0064
     10 C           3.6551   -1.0404   20.4806 C.ar    0  UNK0       -0.0026
     11 C           2.9334   -0.9240   21.7904 C.ar    0  UNK0        0.0029
     12 C           1.5868   -0.2658   21.8489 C.ar    0  UNK0        0.0378
     13 C           0.9618    0.2760   20.5975 C.ar    0  UNK0        0.1487
     14 C           1.6835    0.1596   19.2877 C.ar    0  UNK0        0.0876
     15 CL          1.0586    0.7013   18.0363 Cl      0  UNK0       -0.0794
     16 C           3.0301   -0.4986   19.2292 C.ar    0  UNK0       -0.0083
     17 C           3.7518   -0.6150   17.9194 C.3     0  UNK0        0.0320
     18 O          -0.3848    0.9341   20.6560 O.3     0  UNK0       -0.4731
     19 C          -0.4859    2.4252   20.7837 C.3     0  UNK0        0.2227
     20 C          -1.8008    3.1101   20.5552 C.3     0  UNK0        0.1201
     21 N          -2.7368    3.3390   21.7048 N.3     0  UNK0       -0.2672
     22 C          -2.1985    3.7777   23.0344 C.3     0  UNK0        0.0898
     23 C          -3.1345    4.0066   24.1840 C.3     0  UNK0        0.0897
     24 N          -4.6089    3.7969   24.0038 N.3     0  UNK0       -0.2691
     25 C          -5.5449    4.0259   25.1533 C.3     0  UNK0        0.0897
     26 C          -5.1472    3.3583   22.6742 C.3     0  UNK0        0.0897
     27 C          -4.2111    3.1294   21.5247 C.3     0  UNK0        0.0898
     28 C           3.3987   -4.4231   19.0013 C.3     0  UNK0        0.0056
     29 C           4.2144   -4.2471   20.2478 C.3     0  UNK0        0.0330
     30 N           5.6173    1.4940   20.6438 N.pl3   1  PHE1       -0.3147
     31 H           4.9062    1.5224   19.9635 H       1  PHE1        0.1485
     32 CA          5.6241    2.4919   21.7637 C.3     1  PHE1        0.1115
     33 C           5.1996    3.9079   21.5091 C.2     1  PHE1        0.0685
     34 O           6.2143    4.9321   21.0952 O.co2   1  PHE1       -0.5475
     35 OXT         3.7605    4.2996   21.6684 O.co2   1  PHE1       -0.5475
     36 CB          6.0554    2.0738   23.1382 C.3     1  PHE1        0.0516
     37 CG          5.2601    1.0519   23.8954 C.ar    1  PHE1       -0.0201
     38 CD1         3.9289    1.4203   24.4804 C.ar    1  PHE1       -0.0042
     39 CE1         3.1337    0.3984   25.2376 C.ar    1  PHE1       -0.0003
     40 CZ          3.6696   -0.9920   25.4097 C.ar    1  PHE1       -0.0000
     41 CE2         5.0008   -1.3604   24.8247 C.ar    1  PHE1       -0.0003
     42 CD2         5.7960   -0.3385   24.0675 C.ar    1  PHE1       -0.0042
@<TRIPOS>UNITY_ATOM_ATTR
34 1
charge -1
@<TRIPOS>BOND
     1    28    29    1
     2    29     1    1
     3     1     2   ar
     4     2     3   ar
     5     3     4   ar
     6     4     5   ar
     7     5     6   ar
     8     6     7   ar
     9     7    30    1
    10    30    32    1
    11    32    36    1
    12    36    37    1
    13    37    38   ar
    14    38    39   ar
    15    39    40   ar
    16    40    41   ar
    17    41    42   ar
    18    32    33    1
    19    33    34   ar
    20    33    35   ar
    21     7     8   ar
    22     8     9   ar
    23     9    10    1
    24    10    11   ar
    25    11    12   ar
    26    12    13   ar
    27    13    18    1
    28    18    19    1
    29    19    20    1
    30    20    21    1
    31    21    22    1
    32    22    23    1
    33    23    24    1
    34    24    25    1
    35    24    26    1
    36    26    27    1
    37    13    14   ar
    38    14    15    1
    39    14    16   ar
    40    16    17    1
    41     9     1   ar
    42    16    10   ar
    43     8     3   ar
    44    27    21    1
    45    42    37   ar
    46    30    31    1
