@<TRIPOS>MOLECULE
*****
 34 37 0 0 0
SMALL
GASTEIGER

@<TRIPOS>ATOM
      1 C          -8.7663  -18.6901   21.9252 C.ar    1  UNL1        0.0053
      2 C          -8.6768  -19.3301   20.5716 C.ar    1  UNL1        0.0033
      3 C          -7.3416  -19.5014   19.9098 C.ar    1  UNL1        0.0382
      4 C          -6.0960  -19.0328   20.6017 C.ar    1  UNL1        0.1524
      5 C          -6.1855  -18.3928   21.9554 C.ar    1  UNL1        0.0881
      6 C          -7.5206  -18.2215   22.6171 C.ar    1  UNL1        0.0181
      7 N          -4.9397  -17.9242   22.6473 N.am    1  UNL1       -0.2514
      8 C          -3.6046  -18.0956   21.9855 C.2     1  UNL1        0.2657
      9 O          -2.3590  -17.6270   22.6774 O.2     1  UNL1       -0.2708
     10 C          -3.5151  -18.7355   20.6318 C.3     1  UNL1        0.2012
     11 C          -2.6926  -19.2039   19.4682 C.3     1  UNL1        0.0532
     12 C          -2.0250  -18.5639   20.6492 C.3     1  UNL1        0.0532
     13 O          -4.7607  -19.2041   19.9399 O.3     1  UNL1       -0.4727
     14 C         -11.0246  -17.4238   22.1411 C.ar    1  UNL1        0.0645
     15 N         -12.3597  -17.2524   22.8029 N.ar    1  UNL1       -0.2183
     16 C         -12.7718  -18.1761   23.9107 C.ar    1  UNL1        0.2145
     17 N         -14.1069  -18.0048   24.5724 N.pl3   1  UNL1       -0.3274
     18 N         -11.8487  -19.2711   24.3565 N.ar    1  UNL1       -0.1995
     19 C         -10.5135  -19.4425   23.6947 C.ar    1  UNL1        0.1293
     20 N          -9.5904  -20.5375   24.1406 N.pl3   1  UNL1       -0.3425
     21 C         -10.1015  -18.5188   22.5870 C.ar    1  UNL1        0.0449
     22 H         -14.7128  -17.2861   24.2798 H       1  UNL1        0.1452
     23 H         -14.3774  -18.6110   25.2995 H       1  UNL1        0.1452
     24 H          -9.8608  -21.1437   24.8676 H       1  UNL1        0.1437
     25 H          -8.7141  -20.6499   23.7062 H       1  UNL1        0.1437
     26 C         -11.4984  -16.3229   19.8360 C.3     1  UNL1        0.0067
     27 C         -10.6125  -16.5001   21.0334 C.3     1  UNL1        0.0460
     28 C          -5.0292  -17.2843   24.0009 C.3     1  UNL1        0.1196
     29 C          -5.6653  -15.9341   24.1517 C.3     1  UNL1        0.1113
     30 N          -6.1274  -15.4692   25.5009 N.am    1  UNL1       -0.3026
     31 C          -7.5570  -15.6626   25.9117 C.2     1  UNL1        0.2230
     32 C          -8.0191  -15.1977   27.2609 C.3     1  UNL1        0.0946
     33 O          -8.5245  -16.3210   24.9734 O.2     1  UNL1       -0.2751
     34 H          -5.4924  -15.0371   26.1167 H       1  UNL1        0.1495
@<TRIPOS>BOND
     1    26    27    1
     2    27    14    1
     3    14    15   ar
     4    15    16   ar
     5    16    17    1
     6    16    18   ar
     7    18    19   ar
     8    19    20    1
     9    19    21   ar
    10    21     1    1
    11     1     2   ar
    12     2     3   ar
    13     3     4   ar
    14     4     5   ar
    15     5     6   ar
    16     5     7    1
    17     7    28    1
    18    28    29    1
    19    29    30    1
    20    30    31   am
    21    31    32    1
    22    31    33    2
    23     7     8   am
    24     8     9    2
    25     8    10    1
    26    10    11    1
    27    11    12    1
    28    10    13    1
    29    21    14   ar
    30     6     1   ar
    31    12    10    1
    32    13     4    1
    33    17    22    1
    34    17    23    1
    35    20    24    1
    36    20    25    1
    37    30    34    1
@<TRIPOS>MOLECULE
*****
 34 37 0 0 0
SMALL
GASTEIGER

@<TRIPOS>ATOM
      1 C          -8.9682  -17.4362   23.4790 C.ar    1  UNL1        0.0053
      2 C          -8.2609  -16.3028   24.1609 C.ar    1  UNL1        0.0033
      3 C          -6.7808  -16.1304   23.9891 C.ar    1  UNL1        0.0382
      4 C          -6.0079  -17.0915   23.1353 C.ar    1  UNL1        0.1524
      5 C          -6.7152  -18.2250   22.4533 C.ar    1  UNL1        0.0881
      6 C          -8.1953  -18.3974   22.6252 C.ar    1  UNL1        0.0181
      7 N          -5.9422  -19.1861   21.5995 N.am    1  UNL1       -0.2514
      8 C          -4.4621  -19.0137   21.4277 C.2     1  UNL1        0.2657
      9 O          -3.6893  -19.9747   20.5739 O.2     1  UNL1       -0.2708
     10 C          -3.7549  -17.8802   22.1096 C.3     1  UNL1        0.2012
     11 C          -2.4921  -17.1263   22.4041 C.3     1  UNL1        0.0532
     12 C          -2.4541  -18.3355   21.5175 C.3     1  UNL1        0.0532
     13 O          -4.5278  -16.9191   22.9634 O.3     1  UNL1       -0.4727
     14 C         -10.9790  -18.7031   24.5286 C.ar    1  UNL1        0.0645
     15 N         -12.4591  -18.8755   24.7004 N.ar    1  UNL1       -0.2183
     16 C         -13.4085  -17.9534   23.9945 C.ar    1  UNL1        0.2145
     17 N         -14.8886  -18.1258   24.1663 N.pl3   1  UNL1       -0.3274
     18 N         -12.8778  -16.8589   23.1167 N.ar    1  UNL1       -0.1995
     19 C         -11.3977  -16.6866   22.9449 C.ar    1  UNL1        0.1293
     20 N         -10.8670  -15.5921   22.0671 N.pl3   1  UNL1       -0.3425
     21 C         -10.4483  -17.6086   23.6508 C.ar    1  UNL1        0.0449
     22 H         -15.2369  -18.8442   24.7424 H       1  UNL1        0.1452
     23 H         -15.5118  -17.5206   23.7030 H       1  UNL1        0.1452
     24 H         -11.4901  -14.9869   21.6038 H       1  UNL1        0.1437
     25 H          -9.8955  -15.4789   21.9544 H       1  UNL1        0.1437
     26 C          -9.6600  -20.9398   24.6139 C.3     1  UNL1        0.0067
     27 C         -10.0296  -19.6252   25.2345 C.3     1  UNL1        0.0460
     28 C          -6.6495  -20.3195   20.9176 C.3     1  UNL1        0.1196
     29 C          -7.2770  -20.1105   19.5712 C.3     1  UNL1        0.1113
     30 N          -8.2906  -19.0220   19.3771 N.am    1  UNL1       -0.3026
     31 C          -9.7127  -19.2367   19.8033 C.2     1  UNL1        0.2230
     32 C         -10.7264  -18.1482   19.6092 C.3     1  UNL1        0.0946
     33 O         -10.1211  -20.5399   20.4237 O.2     1  UNL1       -0.2751
     34 H          -8.0226  -18.1667   18.9699 H       1  UNL1        0.1495
@<TRIPOS>BOND
     1    26    27    1
     2    27    14    1
     3    14    15   ar
     4    15    16   ar
     5    16    17    1
     6    16    18   ar
     7    18    19   ar
     8    19    20    1
     9    19    21   ar
    10    21     1    1
    11     1     2   ar
    12     2     3   ar
    13     3     4   ar
    14     4     5   ar
    15     5     6   ar
    16     5     7    1
    17     7    28    1
    18    28    29    1
    19    29    30    1
    20    30    31   am
    21    31    32    1
    22    31    33    2
    23     7     8   am
    24     8     9    2
    25     8    10    1
    26    10    11    1
    27    11    12    1
    28    10    13    1
    29    21    14   ar
    30     6     1   ar
    31    12    10    1
    32    13     4    1
    33    17    22    1
    34    17    23    1
    35    20    24    1
    36    20    25    1
    37    30    34    1
@<TRIPOS>MOLECULE
*****
 34 37 0 0 0
SMALL
GASTEIGER

@<TRIPOS>ATOM
      1 C          -8.5903  -18.5863   21.7552 C.ar    1  UNL1        0.0053
      2 C          -8.4484  -19.2215   20.4037 C.ar    1  UNL1        0.0033
      3 C          -7.0870  -19.4098   19.8028 C.ar    1  UNL1        0.0382
      4 C          -5.8675  -18.9630   20.5533 C.ar    1  UNL1        0.1524
      5 C          -6.0094  -18.3279   21.9047 C.ar    1  UNL1        0.0881
      6 C          -7.3708  -18.1395   22.5057 C.ar    1  UNL1        0.0181
      7 N          -4.7899  -17.8811   22.6552 N.am    1  UNL1       -0.2514
      8 C          -3.4285  -18.0695   22.0542 C.2     1  UNL1        0.2657
      9 O          -2.2091  -17.6227   22.8047 O.2     1  UNL1       -0.2708
     10 C          -3.2867  -18.7046   20.7028 C.3     1  UNL1        0.2012
     11 C          -2.4188  -19.1800   19.5756 C.3     1  UNL1        0.0532
     12 C          -1.7966  -18.5554   20.7891 C.3     1  UNL1        0.0532
     13 O          -4.5061  -19.1514   19.9523 O.3     1  UNL1       -0.4727
     14 C         -10.4415  -19.3416   23.4143 C.ar    1  UNL1        0.0645
     15 N         -11.8029  -19.1533   24.0152 N.ar    1  UNL1       -0.2183
     16 C         -12.6744  -18.0212   23.5581 C.ar    1  UNL1        0.2145
     17 N         -14.0358  -17.8328   24.1591 N.pl3   1  UNL1       -0.3274
     18 N         -12.1846  -17.0775   22.5001 N.ar    1  UNL1       -0.1995
     19 C         -10.8231  -17.2659   21.8991 C.ar    1  UNL1        0.1293
     20 N         -10.3333  -16.3223   20.8410 N.pl3   1  UNL1       -0.3425
     21 C          -9.9517  -18.3980   22.3562 C.ar    1  UNL1        0.0449
     22 H         -14.3573  -18.4522   24.8536 H       1  UNL1        0.1452
     23 H         -14.6078  -17.0898   23.8591 H       1  UNL1        0.1452
     24 H         -10.9053  -15.5793   20.5410 H       1  UNL1        0.1437
     25 H          -9.4398  -16.4459   20.4466 H       1  UNL1        0.1437
     26 C          -9.9215  -21.2360   25.1145 C.3     1  UNL1        0.0067
     27 C          -9.5700  -20.4736   23.8714 C.3     1  UNL1        0.0460
     28 C          -4.9318  -17.2460   24.0067 C.3     1  UNL1        0.1196
     29 C          -5.6153  -15.9177   24.1431 C.3     1  UNL1        0.1113
     30 N          -6.1029  -15.4595   25.4856 N.am    1  UNL1       -0.3026
     31 C          -7.5378  -15.6638   25.8722 C.2     1  UNL1        0.2230
     32 C          -8.0254  -15.2056   27.2147 C.3     1  UNL1        0.0946
     33 O          -8.4850  -16.3262   24.9162 O.2     1  UNL1       -0.2751
     34 H          -5.4811  -15.0247   26.1131 H       1  UNL1        0.1495
@<TRIPOS>BOND
     1    26    27    1
     2    27    14    1
     3    14    15   ar
     4    15    16   ar
     5    16    17    1
     6    16    18   ar
     7    18    19   ar
     8    19    20    1
     9    19    21   ar
    10    21     1    1
    11     1     2   ar
    12     2     3   ar
    13     3     4   ar
    14     4     5   ar
    15     5     6   ar
    16     5     7    1
    17     7    28    1
    18    28    29    1
    19    29    30    1
    20    30    31   am
    21    31    32    1
    22    31    33    2
    23     7     8   am
    24     8     9    2
    25     8    10    1
    26    10    11    1
    27    11    12    1
    28    10    13    1
    29    21    14   ar
    30     6     1   ar
    31    12    10    1
    32    13     4    1
    33    17    22    1
    34    17    23    1
    35    20    24    1
    36    20    25    1
    37    30    34    1
@<TRIPOS>MOLECULE
*****
 34 37 0 0 0
SMALL
GASTEIGER

@<TRIPOS>ATOM
      1 C          -8.6035  -17.5572   23.3356 C.ar    1  UNL1        0.0053
      2 C          -7.9504  -16.3509   23.9424 C.ar    1  UNL1        0.0033
      3 C          -6.4669  -16.1624   23.8249 C.ar    1  UNL1        0.0382
      4 C          -5.6366  -17.1803   23.1007 C.ar    1  UNL1        0.1524
      5 C          -6.2897  -18.3866   22.4939 C.ar    1  UNL1        0.0881
      6 C          -7.7732  -18.5751   22.6114 C.ar    1  UNL1        0.0181
      7 N          -5.4593  -19.4045   21.7697 N.am    1  UNL1       -0.2514
      8 C          -3.9759  -19.2161   21.6523 C.2     1  UNL1        0.2657
      9 O          -3.1456  -20.2339   20.9280 O.2     1  UNL1       -0.2708
     10 C          -3.3228  -18.0097   22.2590 C.3     1  UNL1        0.2012
     11 C          -2.0892  -17.2045   22.5415 C.3     1  UNL1        0.0532
     12 C          -1.9869  -18.4886   21.7731 C.3     1  UNL1        0.0532
     13 O          -4.1530  -16.9919   22.9832 O.3     1  UNL1       -0.4727
     14 C         -10.9886  -17.3150   22.3344 C.ar    1  UNL1        0.0645
     15 N         -12.4721  -17.5035   22.4518 N.ar    1  UNL1       -0.2183
     16 C         -13.0539  -18.1227   23.6880 C.ar    1  UNL1        0.2145
     17 N         -14.5374  -18.3111   23.8055 N.pl3   1  UNL1       -0.3274
     18 N         -12.1523  -18.5533   24.8067 N.ar    1  UNL1       -0.1995
     19 C         -10.6687  -18.3648   24.6892 C.ar    1  UNL1        0.1293
     20 N          -9.7671  -18.7955   25.8079 N.pl3   1  UNL1       -0.3425
     21 C         -10.0870  -17.7457   23.4531 C.ar    1  UNL1        0.0449
     22 H         -15.1291  -18.0284   23.0712 H       1  UNL1        0.1452
     23 H         -14.9192  -18.7175   24.6168 H       1  UNL1        0.1452
     24 H         -10.1489  -19.2019   26.6193 H       1  UNL1        0.1437
     25 H          -8.7934  -18.6718   25.7308 H       1  UNL1        0.1437
     26 C         -11.2411  -15.7771   20.2556 C.3     1  UNL1        0.0067
     27 C         -10.4069  -16.6958   21.0982 C.3     1  UNL1        0.0460
     28 C          -6.1125  -20.6109   21.1629 C.3     1  UNL1        0.1196
     29 C          -6.9490  -20.4684   19.9259 C.3     1  UNL1        0.1113
     30 N          -8.2878  -19.7959   19.9993 N.am    1  UNL1       -0.3026
     31 C          -9.3382  -20.1023   18.9732 C.2     1  UNL1        0.2230
     32 C         -10.6770  -19.4299   19.0465 C.3     1  UNL1        0.0946
     33 O          -9.0498  -21.0811   17.8738 O.2     1  UNL1       -0.2751
     34 H          -8.4771  -19.1535   20.7209 H       1  UNL1        0.1495
@<TRIPOS>BOND
     1    26    27    1
     2    27    14    1
     3    14    15   ar
     4    15    16   ar
     5    16    17    1
     6    16    18   ar
     7    18    19   ar
     8    19    20    1
     9    19    21   ar
    10    21     1    1
    11     1     2   ar
    12     2     3   ar
    13     3     4   ar
    14     4     5   ar
    15     5     6   ar
    16     5     7    1
    17     7    28    1
    18    28    29    1
    19    29    30    1
    20    30    31   am
    21    31    32    1
    22    31    33    2
    23     7     8   am
    24     8     9    2
    25     8    10    1
    26    10    11    1
    27    11    12    1
    28    10    13    1
    29    21    14   ar
    30     6     1   ar
    31    12    10    1
    32    13     4    1
    33    17    22    1
    34    17    23    1
    35    20    24    1
    36    20    25    1
    37    30    34    1
@<TRIPOS>MOLECULE
*****
 34 37 0 0 0
SMALL
GASTEIGER

@<TRIPOS>ATOM
      1 C          -5.0997  -18.8998   21.7070 C.ar    1  UNL1        0.0053
      2 C          -5.4421  -20.3498   21.8806 C.ar    1  UNL1        0.0033
      3 C          -6.8280  -20.7490   22.2931 C.ar    1  UNL1        0.0382
      4 C          -7.8714  -19.6982   22.5318 C.ar    1  UNL1        0.1524
      5 C          -7.5290  -18.2482   22.3582 C.ar    1  UNL1        0.0881
      6 C          -6.1432  -17.8489   21.9458 C.ar    1  UNL1        0.0181
      7 N          -8.5725  -17.1973   22.5970 N.am    1  UNL1       -0.2514
      8 C          -9.9583  -17.5966   23.0094 C.2     1  UNL1        0.2657
      9 O         -11.0017  -16.5458   23.2481 O.2     1  UNL1       -0.2708
     10 C         -10.3007  -19.0466   23.1830 C.3     1  UNL1        0.2012
     11 C         -11.2985  -20.1143   23.5214 C.3     1  UNL1        0.0532
     12 C         -11.7032  -18.6704   23.5590 C.3     1  UNL1        0.0532
     13 O          -9.2573  -20.0974   22.9443 O.3     1  UNL1       -0.4727
     14 C          -2.9545  -17.4876   22.0991 C.ar    1  UNL1        0.0645
     15 N          -1.5687  -17.0884   21.6867 N.ar    1  UNL1       -0.2183
     16 C          -0.9422  -17.7020   20.4697 C.ar    1  UNL1        0.2145
     17 N           0.4435  -17.3028   20.0573 N.pl3   1  UNL1       -0.3274
     18 N          -1.7017  -18.7149   19.6651 N.ar    1  UNL1       -0.1995
     19 C          -3.0876  -19.1141   20.0776 C.ar    1  UNL1        0.1293
     20 N          -3.8470  -20.1270   19.2730 N.pl3   1  UNL1       -0.3425
     21 C          -3.7139  -18.5005   21.2946 C.ar    1  UNL1        0.0449
     22 H           0.9420  -16.6380   20.5854 H       1  UNL1        0.1452
     23 H           0.8547  -17.7055   19.2585 H       1  UNL1        0.1452
     24 H          -3.4359  -20.5298   18.4743 H       1  UNL1        0.1437
     25 H          -4.7565  -20.3891   19.5437 H       1  UNL1        0.1437
     26 C          -3.5838  -17.6221   24.6162 C.3     1  UNL1        0.0067
     27 C          -3.5808  -16.8740   23.3161 C.3     1  UNL1        0.0460
     28 C          -8.2301  -15.7473   22.4233 C.3     1  UNL1        0.1196
     29 C          -7.6117  -14.9819   23.5555 C.3     1  UNL1        0.1113
     30 N          -7.7610  -15.4752   24.9642 N.am    1  UNL1       -0.3026
     31 C          -6.6289  -15.3222   25.9364 C.2     1  UNL1        0.2230
     32 C          -6.7782  -15.8155   27.3450 C.3     1  UNL1        0.0946
     33 O          -5.3477  -14.6758   25.4998 O.2     1  UNL1       -0.2751
     34 H          -8.6019  -15.8994   25.2507 H       1  UNL1        0.1495
@<TRIPOS>BOND
     1    26    27    1
     2    27    14    1
     3    14    15   ar
     4    15    16   ar
     5    16    17    1
     6    16    18   ar
     7    18    19   ar
     8    19    20    1
     9    19    21   ar
    10    21     1    1
    11     1     2   ar
    12     2     3   ar
    13     3     4   ar
    14     4     5   ar
    15     5     6   ar
    16     5     7    1
    17     7    28    1
    18    28    29    1
    19    29    30    1
    20    30    31   am
    21    31    32    1
    22    31    33    2
    23     7     8   am
    24     8     9    2
    25     8    10    1
    26    10    11    1
    27    11    12    1
    28    10    13    1
    29    21    14   ar
    30     6     1   ar
    31    12    10    1
    32    13     4    1
    33    17    22    1
    34    17    23    1
    35    20    24    1
    36    20    25    1
    37    30    34    1
@<TRIPOS>MOLECULE
*****
 34 37 0 0 0
SMALL
GASTEIGER

@<TRIPOS>ATOM
      1 C          -8.9493  -18.4510   22.1482 C.ar    1  UNL1        0.0053
      2 C         -10.1096  -18.5625   23.0923 C.ar    1  UNL1        0.0033
      3 C         -10.0732  -17.8516   24.4127 C.ar    1  UNL1        0.0382
      4 C          -8.8765  -17.0292   24.7889 C.ar    1  UNL1        0.1524
      5 C          -7.7162  -16.9176   23.8448 C.ar    1  UNL1        0.0881
      6 C          -7.7526  -17.6285   22.5245 C.ar    1  UNL1        0.0181
      7 N          -6.5195  -16.0951   24.2211 N.am    1  UNL1       -0.2514
      8 C          -6.4832  -15.3843   25.5414 C.2     1  UNL1        0.2657
      9 O          -5.2865  -14.5618   25.9176 O.2     1  UNL1       -0.2708
     10 C          -7.6434  -15.4958   26.4855 C.3     1  UNL1        0.2012
     11 C          -8.2923  -15.1497   27.7928 C.3     1  UNL1        0.0532
     12 C          -6.9315  -14.6105   27.4650 C.3     1  UNL1        0.0532
     13 O          -8.8401  -16.3182   26.1093 O.3     1  UNL1       -0.4727
     14 C         -10.1753  -19.0102   19.9269 C.ar    1  UNL1        0.0645
     15 N         -10.2117  -19.7211   18.6066 N.ar    1  UNL1       -0.2183
     16 C          -9.0584  -20.5837   18.1872 C.ar    1  UNL1        0.2145
     17 N          -9.0948  -21.2946   16.8669 N.pl3   1  UNL1       -0.3274
     18 N          -7.8687  -20.7354   19.0882 N.ar    1  UNL1       -0.1995
     19 C          -7.8324  -20.0244   20.4085 C.ar    1  UNL1        0.1293
     20 N          -6.6427  -20.1761   21.3095 N.pl3   1  UNL1       -0.3425
     21 C          -8.9857  -19.1619   20.8279 C.ar    1  UNL1        0.0449
     22 H          -9.8756  -21.1951   16.2756 H       1  UNL1        0.1452
     23 H          -8.3378  -21.8607   16.5916 H       1  UNL1        0.1452
     24 H          -5.8858  -20.7422   21.0342 H       1  UNL1        0.1437
     25 H          -6.6189  -19.7095   22.1761 H       1  UNL1        0.1437
     26 C         -11.3868  -16.7119   19.9160 C.3     1  UNL1        0.0067
     27 C         -11.3286  -18.1477   20.3463 C.3     1  UNL1        0.0460
     28 C          -5.3593  -15.9836   23.2770 C.3     1  UNL1        0.1196
     29 C          -4.1309  -16.8161   23.4967 C.3     1  UNL1        0.1113
     30 N          -3.3569  -17.3355   22.3215 N.am    1  UNL1       -0.3026
     31 C          -3.3933  -18.7972   21.9863 C.2     1  UNL1        0.2230
     32 C          -2.6193  -19.3166   20.8111 C.3     1  UNL1        0.0946
     33 O          -4.2036  -19.7393   22.8262 O.2     1  UNL1       -0.2751
     34 H          -2.8250  -16.7171   21.7701 H       1  UNL1        0.1495
@<TRIPOS>BOND
     1    26    27    1
     2    27    14    1
     3    14    15   ar
     4    15    16   ar
     5    16    17    1
     6    16    18   ar
     7    18    19   ar
     8    19    20    1
     9    19    21   ar
    10    21     1    1
    11     1     2   ar
    12     2     3   ar
    13     3     4   ar
    14     4     5   ar
    15     5     6   ar
    16     5     7    1
    17     7    28    1
    18    28    29    1
    19    29    30    1
    20    30    31   am
    21    31    32    1
    22    31    33    2
    23     7     8   am
    24     8     9    2
    25     8    10    1
    26    10    11    1
    27    11    12    1
    28    10    13    1
    29    21    14   ar
    30     6     1   ar
    31    12    10    1
    32    13     4    1
    33    17    22    1
    34    17    23    1
    35    20    24    1
    36    20    25    1
    37    30    34    1
@<TRIPOS>MOLECULE
*****
 34 37 0 0 0
SMALL
GASTEIGER

@<TRIPOS>ATOM
      1 C          -6.5865  -19.1282   22.0699 C.ar    1  UNL1        0.0053
      2 C          -7.0944  -20.3527   22.7719 C.ar    1  UNL1        0.0033
      3 C          -8.5001  -20.3890   23.2941 C.ar    1  UNL1        0.0382
      4 C          -9.3979  -19.2009   23.1143 C.ar    1  UNL1        0.1524
      5 C          -8.8901  -17.9764   22.4123 C.ar    1  UNL1        0.0881
      6 C          -7.4844  -17.9401   21.8901 C.ar    1  UNL1        0.0181
      7 N          -9.7879  -16.7883   22.2325 N.am    1  UNL1       -0.2514
      8 C         -11.1936  -16.8247   22.7547 C.2     1  UNL1        0.2657
      9 O         -12.0914  -15.6366   22.5749 O.2     1  UNL1       -0.2708
     10 C         -11.7015  -18.0491   23.4568 C.3     1  UNL1        0.2012
     11 C         -12.8062  -18.7770   24.1635 C.3     1  UNL1        0.0532
     12 C         -13.0314  -17.3841   23.6545 C.3     1  UNL1        0.0532
     13 O         -10.8037  -19.2372   23.6365 O.3     1  UNL1       -0.4727
     14 C          -4.8593  -19.7034   20.2163 C.ar    1  UNL1        0.0645
     15 N          -3.4537  -19.6671   19.6940 N.ar    1  UNL1       -0.2183
     16 C          -2.3695  -19.0192   20.5033 C.ar    1  UNL1        0.2145
     17 N          -0.9638  -18.9828   19.9810 N.pl3   1  UNL1       -0.3274
     18 N          -2.6910  -18.4076   21.8347 N.ar    1  UNL1       -0.1995
     19 C          -4.0967  -18.4440   22.3569 C.ar    1  UNL1        0.1293
     20 N          -4.4182  -17.8325   23.6883 N.pl3   1  UNL1       -0.3425
     21 C          -5.1809  -19.0919   21.5477 C.ar    1  UNL1        0.0449
     22 H          -0.7528  -19.3842   19.1072 H       1  UNL1        0.1452
     23 H          -0.2522  -18.5576   20.5121 H       1  UNL1        0.1452
     24 H          -3.7067  -17.4072   24.2194 H       1  UNL1        0.1437
     25 H          -5.3409  -17.8563   24.0310 H       1  UNL1        0.1437
     26 C          -6.3325  -21.7745   19.6775 C.3     1  UNL1        0.0067
     27 C          -5.9435  -20.3513   19.4071 C.3     1  UNL1        0.0460
     28 C          -9.2801  -15.5639   21.5305 C.3     1  UNL1        0.1196
     29 C          -8.1890  -14.7421   22.1506 C.3     1  UNL1        0.1113
     30 N          -7.9375  -14.8213   23.6272 N.am    1  UNL1       -0.3026
     31 C          -6.5474  -15.0563   24.1397 C.2     1  UNL1        0.2230
     32 C          -6.2959  -15.1355   25.6164 C.3     1  UNL1        0.0946
     33 O          -5.4090  -15.2122   23.1756 O.2     1  UNL1       -0.2751
     34 H          -8.6847  -14.7190   24.2600 H       1  UNL1        0.1495
@<TRIPOS>BOND
     1    26    27    1
     2    27    14    1
     3    14    15   ar
     4    15    16   ar
     5    16    17    1
     6    16    18   ar
     7    18    19   ar
     8    19    20    1
     9    19    21   ar
    10    21     1    1
    11     1     2   ar
    12     2     3   ar
    13     3     4   ar
    14     4     5   ar
    15     5     6   ar
    16     5     7    1
    17     7    28    1
    18    28    29    1
    19    29    30    1
    20    30    31   am
    21    31    32    1
    22    31    33    2
    23     7     8   am
    24     8     9    2
    25     8    10    1
    26    10    11    1
    27    11    12    1
    28    10    13    1
    29    21    14   ar
    30     6     1   ar
    31    12    10    1
    32    13     4    1
    33    17    22    1
    34    17    23    1
    35    20    24    1
    36    20    25    1
    37    30    34    1
@<TRIPOS>MOLECULE
*****
 34 37 0 0 0
SMALL
GASTEIGER

@<TRIPOS>ATOM
      1 C          -8.9577  -18.4120   22.0931 C.ar    1  UNL1        0.0053
      2 C         -10.1434  -18.4523   23.0111 C.ar    1  UNL1        0.0033
      3 C         -10.0987  -17.7318   24.3260 C.ar    1  UNL1        0.0382
      4 C          -8.8684  -16.9711   24.7230 C.ar    1  UNL1        0.1524
      5 C          -7.6827  -16.9309   23.8050 C.ar    1  UNL1        0.0881
      6 C          -7.7273  -17.6513   22.4902 C.ar    1  UNL1        0.0181
      7 N          -6.4523  -16.1701   24.2021 N.am    1  UNL1       -0.2514
      8 C          -6.4077  -15.4497   25.5169 C.2     1  UNL1        0.2657
      9 O          -5.1774  -14.6890   25.9139 O.2     1  UNL1       -0.2708
     10 C          -7.5933  -15.4900   26.4349 C.3     1  UNL1        0.2012
     11 C          -8.2521  -15.0973   27.7240 C.3     1  UNL1        0.0532
     12 C          -6.8572  -14.6348   27.4232 C.3     1  UNL1        0.0532
     13 O          -8.8237  -16.2506   26.0379 O.3     1  UNL1       -0.4727
     14 C          -7.8296  -19.9552   20.3336 C.ar    1  UNL1        0.0645
     15 N          -7.8742  -20.6756   19.0187 N.ar    1  UNL1       -0.2183
     16 C          -9.0917  -20.5733   18.1484 C.ar    1  UNL1        0.2145
     17 N          -9.1363  -21.2937   16.8336 N.pl3   1  UNL1       -0.3274
     18 N         -10.2645  -19.7506   18.5931 N.ar    1  UNL1       -0.1995
     19 C         -10.2198  -19.0302   19.9080 C.ar    1  UNL1        0.1293
     20 N         -11.3926  -18.2074   20.3527 N.pl3   1  UNL1       -0.3425
     21 C          -9.0023  -19.1324   20.7783 C.ar    1  UNL1        0.0449
     22 H          -8.3666  -21.8337   16.5417 H       1  UNL1        0.1452
     23 H          -9.9354  -21.2266   16.2624 H       1  UNL1        0.1452
     24 H         -12.1916  -18.1403   19.7815 H       1  UNL1        0.1437
     25 H         -11.3633  -17.7346   21.2157 H       1  UNL1        0.1437
     26 C          -5.3067  -20.5069   20.6175 C.3     1  UNL1        0.0067
     27 C          -6.6121  -20.0574   21.2038 C.3     1  UNL1        0.0460
     28 C          -5.2667  -16.1298   23.2842 C.3     1  UNL1        0.1196
     29 C          -4.1699  -17.1427   23.4308 C.3     1  UNL1        0.1113
     30 N          -3.6439  -17.8588   22.2223 N.am    1  UNL1       -0.3026
     31 C          -2.5246  -17.2595   21.4234 C.2     1  UNL1        0.2230
     32 C          -1.9986  -17.9757   20.2149 C.3     1  UNL1        0.0946
     33 O          -1.9314  -15.9442   21.8331 O.2     1  UNL1       -0.2751
     34 H          -4.0333  -18.7221   21.9534 H       1  UNL1        0.1495
@<TRIPOS>BOND
     1    26    27    1
     2    27    14    1
     3    14    15   ar
     4    15    16   ar
     5    16    17    1
     6    16    18   ar
     7    18    19   ar
     8    19    20    1
     9    19    21   ar
    10    21     1    1
    11     1     2   ar
    12     2     3   ar
    13     3     4   ar
    14     4     5   ar
    15     5     6   ar
    16     5     7    1
    17     7    28    1
    18    28    29    1
    19    29    30    1
    20    30    31   am
    21    31    32    1
    22    31    33    2
    23     7     8   am
    24     8     9    2
    25     8    10    1
    26    10    11    1
    27    11    12    1
    28    10    13    1
    29    21    14   ar
    30     6     1   ar
    31    12    10    1
    32    13     4    1
    33    17    22    1
    34    17    23    1
    35    20    24    1
    36    20    25    1
    37    30    34    1
@<TRIPOS>MOLECULE
*****
 34 37 0 0 0
SMALL
GASTEIGER

@<TRIPOS>ATOM
      1 C         -15.7564   -6.2983   18.0474 C.ar    1  UNL1        0.0053
      2 C         -16.7520   -5.4944   17.2647 C.ar    1  UNL1        0.0033
      3 C         -16.4946   -4.0421   16.9916 C.ar    1  UNL1        0.0382
      4 C         -15.2418   -3.3936   17.5012 C.ar    1  UNL1        0.1524
      5 C         -14.2462   -4.1974   18.2839 C.ar    1  UNL1        0.0881
      6 C         -14.5034   -5.6497   18.5570 C.ar    1  UNL1        0.0181
      7 N         -12.9932   -3.5489   18.7936 N.am    1  UNL1       -0.2514
      8 C         -12.7360   -2.0966   18.5205 C.2     1  UNL1        0.2657
      9 O         -11.4831   -1.4481   19.0301 O.2     1  UNL1       -0.2708
     10 C         -13.7316   -1.2928   17.7377 C.3     1  UNL1        0.2012
     11 C         -14.1578    0.0098   17.1282 C.3     1  UNL1        0.0532
     12 C         -12.8597   -0.0799   17.8743 C.3     1  UNL1        0.0532
     13 O         -14.9844   -1.9412   17.2281 O.3     1  UNL1       -0.4727
     14 C         -17.1092   -8.1540   19.2623 C.ar    1  UNL1        0.0645
     15 N         -17.3664   -9.6063   19.5354 N.ar    1  UNL1       -0.2183
     16 C         -16.5282  -10.6552   18.8667 C.ar    1  UNL1        0.2145
     17 N         -16.7854  -12.1075   19.1398 N.pl3   1  UNL1       -0.3274
     18 N         -15.4327  -10.2517   17.9248 N.ar    1  UNL1       -0.1995
     19 C         -15.1754   -8.7994   17.6518 C.ar    1  UNL1        0.1293
     20 N         -14.0799   -8.3959   16.7099 N.pl3   1  UNL1       -0.3425
     21 C         -16.0136   -7.7505   18.3205 C.ar    1  UNL1        0.0449
     22 H         -17.5045  -12.3723   19.7579 H       1  UNL1        0.1452
     23 H         -16.2353  -12.7959   18.7009 H       1  UNL1        0.1452
     24 H         -13.5297   -9.0843   16.2710 H       1  UNL1        0.1437
     25 H         -13.9110   -7.4427   16.5307 H       1  UNL1        0.1437
     26 C         -19.4033   -6.9801   19.5922 C.3     1  UNL1        0.0067
     27 C         -17.9474   -7.1052   19.9311 C.3     1  UNL1        0.0460
     28 C         -11.9977   -4.3527   19.5763 C.3     1  UNL1        0.1196
     29 C         -10.6356   -4.6195   19.0072 C.3     1  UNL1        0.1113
     30 N         -10.0812   -6.0133   19.0106 N.am    1  UNL1       -0.3026
     31 C         -10.5161   -6.9960   17.9640 C.2     1  UNL1        0.2230
     32 C          -9.9617   -8.3897   17.9674 C.3     1  UNL1        0.0946
     33 O         -11.5053   -6.5848   16.9141 O.2     1  UNL1       -0.2751
     34 H          -9.4320   -6.2831   19.6997 H       1  UNL1        0.1495
@<TRIPOS>BOND
     1    26    27    1
     2    27    14    1
     3    14    15   ar
     4    15    16   ar
     5    16    17    1
     6    16    18   ar
     7    18    19   ar
     8    19    20    1
     9    19    21   ar
    10    21     1    1
    11     1     2   ar
    12     2     3   ar
    13     3     4   ar
    14     4     5   ar
    15     5     6   ar
    16     5     7    1
    17     7    28    1
    18    28    29    1
    19    29    30    1
    20    30    31   am
    21    31    32    1
    22    31    33    2
    23     7     8   am
    24     8     9    2
    25     8    10    1
    26    10    11    1
    27    11    12    1
    28    10    13    1
    29    21    14   ar
    30     6     1   ar
    31    12    10    1
    32    13     4    1
    33    17    22    1
    34    17    23    1
    35    20    24    1
    36    20    25    1
    37    30    34    1
