@<TRIPOS>MOLECULE
*****
 34 37 0 0 0
SMALL
GASTEIGER

@<TRIPOS>ATOM
      1 C         -10.3587  -19.7869   21.9760 C.3     1  UNL1        0.0545
      2 C         -10.9868  -20.0136   20.6329 C.3     1  UNL1        0.0157
      3 C         -10.1513  -19.9277   19.3901 C.3     1  UNL1        0.0017
      4 C          -8.6877  -19.6152   19.4904 C.3     1  UNL1        0.0044
      5 C          -8.0595  -19.3884   20.8336 C.3     1  UNL1        0.0237
      6 C          -8.8950  -19.4743   22.0764 C.3     1  UNL1        0.0201
      7 C          -6.5959  -19.0759   20.9339 C.ar    1  UNL1       -0.0225
      8 C          -5.7050  -19.2660   19.7422 C.ar    1  UNL1       -0.0041
      9 C          -4.2413  -18.9534   19.8425 C.ar    1  UNL1        0.0042
     10 C          -3.6686  -18.4507   21.1345 C.ar    1  UNL1        0.0533
     11 C          -4.5595  -18.2607   22.3262 C.ar    1  UNL1        0.0042
     12 C          -6.0231  -18.5732   22.2259 C.ar    1  UNL1       -0.0041
     13 C          -2.2050  -18.1382   21.2348 C.2     1  UNL1        0.2461
     14 O          -1.3446  -18.8817   22.2131 O.2     1  UNL1       -0.2701
     15 N          -1.6017  -17.0821   20.3569 N.am    1  UNL1       -0.2960
     16 H          -2.1664  -16.5941   19.7148 H       1  UNL1        0.1501
     17 C          -0.1380  -16.7696   20.4572 C.3     1  UNL1        0.1318
     18 C           0.8738  -17.8706   20.3390 C.2     1  UNL1        0.0702
     19 O           2.2256  -17.7181   20.9712 O.co2   1  UNL1       -0.5474
     20 O           0.5339  -19.1242   19.5886 O.co2   1  UNL1       -0.5474
     21 N         -11.1942  -19.8727   23.2189 N.3     1  UNL1       -0.2962
     22 H         -12.1006  -20.2476   22.9390 H       1  UNL1        0.1235
     23 C         -12.8759  -18.1585   24.2106 C.3     1  UNL1        0.0220
     24 C         -11.4667  -18.6381   24.0262 C.3     1  UNL1        0.0768
     25 C         -10.3299  -17.8833   24.6490 C.ar    1  UNL1       -0.0080
     26 C          -9.9636  -18.1276   26.0828 C.ar    1  UNL1       -0.0030
     27 C          -8.8268  -17.3728   26.7057 C.ar    1  UNL1       -0.0003
     28 C          -8.0563  -16.3735   25.8946 C.ar    1  UNL1       -0.0000
     29 C          -8.4227  -16.1291   24.4607 C.ar    1  UNL1       -0.0003
     30 C          -7.6522  -15.1298   23.6496 C.ar    1  UNL1       -0.0000
     31 C          -8.0186  -14.8854   22.2158 C.ar    1  UNL1       -0.0000
     32 C          -9.1553  -15.6403   21.5929 C.ar    1  UNL1       -0.0000
     33 C          -9.9258  -16.6395   22.4040 C.ar    1  UNL1       -0.0003
     34 C          -9.5594  -16.8839   23.8378 C.ar    1  UNL1       -0.0027
@<TRIPOS>UNITY_ATOM_ATTR
19 1
charge -1
@<TRIPOS>BOND
     1    24    23    1
     2    24    21    1
     3     1    21    1
     4     1     2    1
     5     2     3    1
     6     3     4    1
     7     4     5    1
     8     5     7    1
     9     7     8   ar
    10     8     9   ar
    11     9    10   ar
    12    10    13    1
    13    13    14    2
    14    13    15   am
    15    15    17    1
    16    17    18    1
    17    18    19   ar
    18    18    20   ar
    19    10    11   ar
    20    11    12   ar
    21     5     6    1
    22    24    25    1
    23    25    26   ar
    24    26    27   ar
    25    27    28   ar
    26    28    29   ar
    27    29    30   ar
    28    30    31   ar
    29    31    32   ar
    30    32    33   ar
    31    33    34   ar
    32     6     1    1
    33    34    25   ar
    34    12     7   ar
    35    34    29   ar
    36    21    22    1
    37    15    16    1
@<TRIPOS>MOLECULE
*****
 34 37 0 0 0
SMALL
GASTEIGER

@<TRIPOS>ATOM
      1 C           3.4997   -1.5371   18.6260 C.3     1  UNL1        0.0545
      2 C           3.7011   -0.3971   17.6723 C.3     1  UNL1        0.0157
      3 C           3.4747    1.0131   18.1305 C.3     1  UNL1        0.0017
      4 C           3.0468    1.2833   19.5425 C.3     1  UNL1        0.0044
      5 C           2.8453    0.1433   20.4964 C.3     1  UNL1        0.0237
      6 C           3.0717   -1.2669   20.0382 C.3     1  UNL1        0.0201
      7 C           2.4174    0.4135   21.9084 C.ar    1  UNL1       -0.0225
      8 C           3.1094   -0.2759   23.0468 C.ar    1  UNL1       -0.0041
      9 C           2.6814   -0.0057   24.4589 C.ar    1  UNL1        0.0042
     10 C           1.5615    0.9540   24.7325 C.ar    1  UNL1        0.0533
     11 C           0.8696    1.6434   23.5942 C.ar    1  UNL1        0.0042
     12 C           1.2974    1.3732   22.1821 C.ar    1  UNL1       -0.0041
     13 C           1.1336    1.2242   26.1445 C.2     1  UNL1        0.2461
     14 O           2.1089    1.8037   27.1259 O.2     1  UNL1       -0.2701
     15 N          -0.2695    0.9149   26.5752 N.am    1  UNL1       -0.2960
     16 H          -0.9096    0.5345   25.9312 H       1  UNL1        0.1501
     17 C          -0.6974    1.1851   27.9874 C.3     1  UNL1        0.1318
     18 C          -0.5084    0.1355   29.0422 C.2     1  UNL1        0.0702
     19 O           0.8242   -0.0227   29.7125 O.co2   1  UNL1       -0.5474
     20 O          -1.6519   -0.7558   29.4267 O.co2   1  UNL1       -0.5474
     21 N           3.7261   -2.9473   18.1678 N.3     1  UNL1       -0.2962
     22 H           2.8610   -3.4574   18.3462 H       1  UNL1        0.1235
     23 C           4.7765   -5.2579   18.7231 C.3     1  UNL1        0.0220
     24 C           4.8382   -3.7597   18.7623 C.3     1  UNL1        0.0768
     25 C           6.0121   -3.0737   19.3960 C.ar    1  UNL1       -0.0080
     26 C           7.0941   -2.4908   18.5361 C.ar    1  UNL1       -0.0030
     27 C           8.2679   -1.8049   19.1698 C.ar    1  UNL1       -0.0003
     28 C           8.3598   -1.7019   20.6634 C.ar    1  UNL1       -0.0000
     29 C           7.2778   -2.2848   21.5234 C.ar    1  UNL1       -0.0003
     30 C           7.3696   -2.1818   23.0170 C.ar    1  UNL1       -0.0000
     31 C           6.2876   -2.7647   23.8769 C.ar    1  UNL1       -0.0000
     32 C           5.1138   -3.4506   23.2432 C.ar    1  UNL1       -0.0000
     33 C           5.0219   -3.5536   21.7496 C.ar    1  UNL1       -0.0003
     34 C           6.1039   -2.9707   20.8897 C.ar    1  UNL1       -0.0027
@<TRIPOS>UNITY_ATOM_ATTR
19 1
charge -1
@<TRIPOS>BOND
     1    24    23    1
     2    24    21    1
     3     1    21    1
     4     1     2    1
     5     2     3    1
     6     3     4    1
     7     4     5    1
     8     5     7    1
     9     7     8   ar
    10     8     9   ar
    11     9    10   ar
    12    10    13    1
    13    13    14    2
    14    13    15   am
    15    15    17    1
    16    17    18    1
    17    18    19   ar
    18    18    20   ar
    19    10    11   ar
    20    11    12   ar
    21     5     6    1
    22    24    25    1
    23    25    26   ar
    24    26    27   ar
    25    27    28   ar
    26    28    29   ar
    27    29    30   ar
    28    30    31   ar
    29    31    32   ar
    30    32    33   ar
    31    33    34   ar
    32     6     1    1
    33    34    25   ar
    34    12     7   ar
    35    34    29   ar
    36    21    22    1
    37    15    16    1
@<TRIPOS>MOLECULE
*****
 34 37 0 0 0
SMALL
GASTEIGER

@<TRIPOS>ATOM
      1 C           4.4677   -3.0960   22.2362 C.3     1  UNL1        0.0545
      2 C           5.0265   -2.8353   23.6036 C.3     1  UNL1        0.0157
      3 C           4.5619   -1.6450   24.3893 C.3     1  UNL1        0.0017
      4 C           3.5384   -0.7154   23.8077 C.3     1  UNL1        0.0044
      5 C           2.9796   -0.9761   22.4402 C.3     1  UNL1        0.0237
      6 C           3.4442   -2.1663   21.6545 C.3     1  UNL1        0.0201
      7 C           1.9561   -0.0465   21.8586 C.ar    1  UNL1       -0.0225
      8 C           1.3230    1.0057   22.7201 C.ar    1  UNL1       -0.0041
      9 C           0.2995    1.9353   22.1383 C.ar    1  UNL1        0.0042
     10 C          -0.0909    1.8127   20.6953 C.ar    1  UNL1        0.0533
     11 C           0.5422    0.7605   19.8338 C.ar    1  UNL1        0.0042
     12 C           1.5656   -0.1691   20.4155 C.ar    1  UNL1       -0.0041
     13 C          -1.1144    2.7423   20.1136 C.2     1  UNL1        0.2461
     14 O          -0.7589    3.6124   18.9446 O.2     1  UNL1       -0.2701
     15 N          -2.4933    2.8018   20.7010 N.am    1  UNL1       -0.2960
     16 H          -2.7266    2.2308   21.4683 H       1  UNL1        0.1501
     17 C          -3.5168    3.7315   20.1193 C.3     1  UNL1        0.1318
     18 C          -4.9771    3.4792   20.3515 C.2     1  UNL1        0.0702
     19 O          -5.5342    3.5257   21.7435 O.co2   1  UNL1       -0.5474
     20 O          -5.8803    3.1804   19.1918 O.co2   1  UNL1       -0.5474
     21 N           4.9324   -4.2862   21.4505 N.3     1  UNL1       -0.2962
     22 H           5.7568   -4.6506   21.9279 H       1  UNL1        0.1235
     23 C           4.6734   -5.0207   18.9719 C.3     1  UNL1        0.0220
     24 C           5.3017   -4.1328   20.0047 C.3     1  UNL1        0.0768
     25 C           6.2993   -3.0915   19.5919 C.ar    1  UNL1       -0.0080
     26 C           7.7082   -3.1587   20.1020 C.ar    1  UNL1       -0.0030
     27 C           8.7058   -2.1174   19.6891 C.ar    1  UNL1       -0.0003
     28 C           8.2945   -1.0088   18.7662 C.ar    1  UNL1       -0.0000
     29 C           6.8854   -0.9416   18.2561 C.ar    1  UNL1       -0.0003
     30 C           6.4741    0.1670   17.3332 C.ar    1  UNL1       -0.0000
     31 C           5.0651    0.2342   16.8231 C.ar    1  UNL1       -0.0000
     32 C           4.0675   -0.8071   17.2359 C.ar    1  UNL1       -0.0000
     33 C           4.4789   -1.9157   18.1588 C.ar    1  UNL1       -0.0003
     34 C           5.8878   -1.9829   18.6689 C.ar    1  UNL1       -0.0027
@<TRIPOS>UNITY_ATOM_ATTR
19 1
charge -1
@<TRIPOS>BOND
     1    24    23    1
     2    24    21    1
     3     1    21    1
     4     1     2    1
     5     2     3    1
     6     3     4    1
     7     4     5    1
     8     5     7    1
     9     7     8   ar
    10     8     9   ar
    11     9    10   ar
    12    10    13    1
    13    13    14    2
    14    13    15   am
    15    15    17    1
    16    17    18    1
    17    18    19   ar
    18    18    20   ar
    19    10    11   ar
    20    11    12   ar
    21     5     6    1
    22    24    25    1
    23    25    26   ar
    24    26    27   ar
    25    27    28   ar
    26    28    29   ar
    27    29    30   ar
    28    30    31   ar
    29    31    32   ar
    30    32    33   ar
    31    33    34   ar
    32     6     1    1
    33    34    25   ar
    34    12     7   ar
    35    34    29   ar
    36    21    22    1
    37    15    16    1
@<TRIPOS>MOLECULE
*****
 34 37 0 0 0
SMALL
GASTEIGER

@<TRIPOS>ATOM
      1 C           5.6776   -3.7542   21.8763 C.3     1  UNL1        0.0545
      2 C           6.9932   -3.9137   21.1736 C.3     1  UNL1        0.0157
      3 C           8.2437   -4.1501   21.9675 C.3     1  UNL1        0.0017
      4 C           8.1787   -4.2271   23.4640 C.3     1  UNL1        0.0044
      5 C           6.8631   -4.0676   24.1668 C.3     1  UNL1        0.0237
      6 C           5.6126   -3.8312   23.3730 C.3     1  UNL1        0.0201
      7 C           6.7981   -4.1446   25.6634 C.ar    1  UNL1       -0.0225
      8 C           6.8482   -5.4780   26.3487 C.ar    1  UNL1       -0.0041
      9 C           6.7832   -5.5549   27.8454 C.ar    1  UNL1        0.0042
     10 C           6.6681   -4.2985   28.6567 C.ar    1  UNL1        0.0533
     11 C           6.6181   -2.9652   27.9714 C.ar    1  UNL1        0.0042
     12 C           6.6831   -2.8882   26.4748 C.ar    1  UNL1       -0.0041
     13 C           6.6031   -4.3755   30.1532 C.2     1  UNL1        0.2461
     14 O           6.9332   -5.6605   30.8532 O.2     1  UNL1       -0.2701
     15 N           6.2080   -3.1675   30.9499 N.am    1  UNL1       -0.2960
     16 H           5.9914   -2.3242   30.4906 H       1  UNL1        0.1501
     17 C           6.1430   -3.2446   32.4466 C.3     1  UNL1        0.1318
     18 C           5.1769   -2.3799   33.2008 C.2     1  UNL1        0.0702
     19 O           3.8420   -2.9279   33.6107 O.co2   1  UNL1       -0.5474
     20 O           5.5455   -0.9673   33.5452 O.co2   1  UNL1       -0.5474
     21 N           4.4271   -3.5177   21.0824 N.3     1  UNL1       -0.2962
     22 H           3.7811   -4.2708   21.3193 H       1  UNL1        0.1235
     23 C           4.4161   -4.7186   18.7785 C.3     1  UNL1        0.0220
     24 C           4.4898   -3.4560   19.5850 C.3     1  UNL1        0.0768
     25 C           4.6261   -2.1316   18.8940 C.ar    1  UNL1       -0.0080
     26 C           5.8635   -1.8211   18.1052 C.ar    1  UNL1       -0.0030
     27 C           5.9998   -0.4967   17.4142 C.ar    1  UNL1       -0.0003
     28 C           4.8987    0.5172   17.5121 C.ar    1  UNL1       -0.0000
     29 C           3.6612    0.2067   18.3010 C.ar    1  UNL1       -0.0003
     30 C           2.5601    1.2205   18.3989 C.ar    1  UNL1       -0.0000
     31 C           1.3227    0.9100   19.1878 C.ar    1  UNL1       -0.0000
     32 C           1.1864   -0.4144   19.8788 C.ar    1  UNL1       -0.0000
     33 C           2.2875   -1.4283   19.7808 C.ar    1  UNL1       -0.0003
     34 C           3.5249   -1.1177   18.9920 C.ar    1  UNL1       -0.0027
@<TRIPOS>UNITY_ATOM_ATTR
19 1
charge -1
@<TRIPOS>BOND
     1    24    23    1
     2    24    21    1
     3     1    21    1
     4     1     2    1
     5     2     3    1
     6     3     4    1
     7     4     5    1
     8     5     7    1
     9     7     8   ar
    10     8     9   ar
    11     9    10   ar
    12    10    13    1
    13    13    14    2
    14    13    15   am
    15    15    17    1
    16    17    18    1
    17    18    19   ar
    18    18    20   ar
    19    10    11   ar
    20    11    12   ar
    21     5     6    1
    22    24    25    1
    23    25    26   ar
    24    26    27   ar
    25    27    28   ar
    26    28    29   ar
    27    29    30   ar
    28    30    31   ar
    29    31    32   ar
    30    32    33   ar
    31    33    34   ar
    32     6     1    1
    33    34    25   ar
    34    12     7   ar
    35    34    29   ar
    36    21    22    1
    37    15    16    1
@<TRIPOS>MOLECULE
*****
 34 37 0 0 0
SMALL
GASTEIGER

@<TRIPOS>ATOM
      1 C           8.1606   -5.8515   23.2376 C.3     1  UNL1        0.0545
      2 C           8.9700   -7.1063   23.0951 C.3     1  UNL1        0.0157
      3 C           9.3745   -7.8804   24.3146 C.3     1  UNL1        0.0017
      4 C           8.9697   -7.3997   25.6766 C.3     1  UNL1        0.0044
      5 C           8.1603   -6.1449   25.8191 C.3     1  UNL1        0.0237
      6 C           7.7557   -5.3708   24.5996 C.3     1  UNL1        0.0201
      7 C           7.7554   -5.6642   27.1810 C.ar    1  UNL1       -0.0225
      8 C           8.0853   -6.4827   28.3940 C.ar    1  UNL1       -0.0041
      9 C           7.6804   -6.0019   29.7560 C.ar    1  UNL1        0.0042
     10 C           6.9457   -4.7027   29.9050 C.ar    1  UNL1        0.0533
     11 C           6.6158   -3.8842   28.6921 C.ar    1  UNL1        0.0042
     12 C           7.0207   -4.3649   27.3301 C.ar    1  UNL1       -0.0041
     13 C           6.5408   -4.2220   31.2670 C.2     1  UNL1        0.2461
     14 O           6.5375   -5.1724   32.4275 O.2     1  UNL1       -0.2701
     15 N           6.1393   -2.7909   31.4685 N.am    1  UNL1       -0.2960
     16 H           6.1414   -2.1671   30.7069 H       1  UNL1        0.1501
     17 C           5.7344   -2.3102   32.8306 C.3     1  UNL1        0.1318
     18 C           4.2822   -2.1361   33.1634 C.2     1  UNL1        0.0702
     19 O           3.5450   -0.9185   32.6899 O.co2   1  UNL1       -0.5474
     20 O           3.5673   -3.1795   33.9697 O.co2   1  UNL1       -0.5474
     21 N           7.7561   -5.0775   22.0181 N.3     1  UNL1       -0.2962
     22 H           8.4529   -5.2744   21.2997 H       1  UNL1        0.1235
     23 C           8.8395   -2.7168   22.0775 C.3     1  UNL1        0.0220
     24 C           7.6168   -3.5856   22.0888 C.3     1  UNL1        0.0768
     25 C           6.2548   -2.9625   22.1708 C.ar    1  UNL1       -0.0080
     26 C           5.6643   -2.6235   23.5073 C.ar    1  UNL1       -0.0030
     27 C           4.3023   -2.0005   23.5893 C.ar    1  UNL1       -0.0003
     28 C           3.5307   -1.7165   22.3347 C.ar    1  UNL1       -0.0000
     29 C           4.1212   -2.0555   20.9981 C.ar    1  UNL1       -0.0003
     30 C           3.3496   -1.7715   19.7435 C.ar    1  UNL1       -0.0000
     31 C           3.9401   -2.1105   18.4070 C.ar    1  UNL1       -0.0000
     32 C           5.3021   -2.7335   18.3250 C.ar    1  UNL1       -0.0000
     33 C           6.0737   -3.0175   19.5796 C.ar    1  UNL1       -0.0003
     34 C           5.4832   -2.6785   20.9161 C.ar    1  UNL1       -0.0027
@<TRIPOS>UNITY_ATOM_ATTR
19 1
charge -1
@<TRIPOS>BOND
     1    24    23    1
     2    24    21    1
     3     1    21    1
     4     1     2    1
     5     2     3    1
     6     3     4    1
     7     4     5    1
     8     5     7    1
     9     7     8   ar
    10     8     9   ar
    11     9    10   ar
    12    10    13    1
    13    13    14    2
    14    13    15   am
    15    15    17    1
    16    17    18    1
    17    18    19   ar
    18    18    20   ar
    19    10    11   ar
    20    11    12   ar
    21     5     6    1
    22    24    25    1
    23    25    26   ar
    24    26    27   ar
    25    27    28   ar
    26    28    29   ar
    27    29    30   ar
    28    30    31   ar
    29    31    32   ar
    30    32    33   ar
    31    33    34   ar
    32     6     1    1
    33    34    25   ar
    34    12     7   ar
    35    34    29   ar
    36    21    22    1
    37    15    16    1
@<TRIPOS>MOLECULE
*****
 34 37 0 0 0
SMALL
GASTEIGER

@<TRIPOS>ATOM
      1 C           5.1120   -2.9000   22.3455 C.3     1  UNL1        0.0545
      2 C           6.5155   -2.4772   22.6637 C.3     1  UNL1        0.0157
      3 C           6.7592   -1.2751   23.5272 C.3     1  UNL1        0.0017
      4 C           5.5993   -0.4959   24.0725 C.3     1  UNL1        0.0044
      5 C           4.1957   -0.9186   23.7544 C.3     1  UNL1        0.0237
      6 C           3.9520   -2.1207   22.8909 C.3     1  UNL1        0.0201
      7 C           3.0358   -0.1394   24.2997 C.ar    1  UNL1       -0.0225
      8 C           1.9428    0.3204   23.3810 C.ar    1  UNL1       -0.0041
      9 C           0.7829    1.0997   23.9265 C.ar    1  UNL1        0.0042
     10 C           0.7161    1.4192   25.3905 C.ar    1  UNL1        0.0533
     11 C           1.8091    0.9594   26.3092 C.ar    1  UNL1        0.0042
     12 C           2.9690    0.1802   25.7638 C.ar    1  UNL1       -0.0041
     13 C          -0.4438    2.1985   25.9358 C.2     1  UNL1        0.2461
     14 O          -0.6261    2.3330   27.4187 O.2     1  UNL1       -0.2701
     15 N          -1.4213    2.8432   24.9984 N.am    1  UNL1       -0.2960
     16 H          -1.3016    2.7549   24.0252 H       1  UNL1        0.1501
     17 C          -2.5812    3.6225   25.5438 C.3     1  UNL1        0.1318
     18 C          -3.8962    3.6138   24.8223 C.2     1  UNL1        0.0702
     19 O          -5.1780    3.5638   25.5998 O.co2   1  UNL1       -0.5474
     20 O          -3.9295    3.6551   23.3232 O.co2   1  UNL1       -0.5474
     21 N           4.8683   -4.1021   21.4820 N.3     1  UNL1       -0.2962
     22 H           5.7595   -4.5914   21.4002 H       1  UNL1        0.1235
     23 C           3.4709   -4.9907   19.4800 C.3     1  UNL1        0.0220
     24 C           4.3393   -3.9300   20.0889 C.3     1  UNL1        0.0768
     25 C           4.6786   -2.6971   19.3048 C.ar    1  UNL1       -0.0080
     26 C           5.9964   -2.5988   18.5950 C.ar    1  UNL1       -0.0030
     27 C           6.3358   -1.3659   17.8109 C.ar    1  UNL1       -0.0003
     28 C           5.3574   -0.2314   17.7365 C.ar    1  UNL1       -0.0000
     29 C           4.0396   -0.3297   18.4463 C.ar    1  UNL1       -0.0003
     30 C           3.0612    0.8049   18.3720 C.ar    1  UNL1       -0.0000
     31 C           1.7434    0.7065   19.0817 C.ar    1  UNL1       -0.0000
     32 C           1.4041   -0.5263   19.8659 C.ar    1  UNL1       -0.0000
     33 C           2.3824   -1.6609   19.9402 C.ar    1  UNL1       -0.0003
     34 C           3.7002   -1.5625   19.2304 C.ar    1  UNL1       -0.0027
@<TRIPOS>UNITY_ATOM_ATTR
19 1
charge -1
@<TRIPOS>BOND
     1    24    23    1
     2    24    21    1
     3     1    21    1
     4     1     2    1
     5     2     3    1
     6     3     4    1
     7     4     5    1
     8     5     7    1
     9     7     8   ar
    10     8     9   ar
    11     9    10   ar
    12    10    13    1
    13    13    14    2
    14    13    15   am
    15    15    17    1
    16    17    18    1
    17    18    19   ar
    18    18    20   ar
    19    10    11   ar
    20    11    12   ar
    21     5     6    1
    22    24    25    1
    23    25    26   ar
    24    26    27   ar
    25    27    28   ar
    26    28    29   ar
    27    29    30   ar
    28    30    31   ar
    29    31    32   ar
    30    32    33   ar
    31    33    34   ar
    32     6     1    1
    33    34    25   ar
    34    12     7   ar
    35    34    29   ar
    36    21    22    1
    37    15    16    1
@<TRIPOS>MOLECULE
*****
 34 37 0 0 0
SMALL
GASTEIGER

@<TRIPOS>ATOM
      1 C           6.5573   -2.5980   19.3342 C.3     1  UNL1        0.0545
      2 C           7.8406   -2.2924   18.6204 C.3     1  UNL1        0.0157
      3 C           9.1454   -2.7699   19.1858 C.3     1  UNL1        0.0017
      4 C           9.1668   -3.5529   20.4650 C.3     1  UNL1        0.0044
      5 C           7.8834   -3.8585   21.1789 C.3     1  UNL1        0.0237
      6 C           6.5786   -3.3811   20.6135 C.3     1  UNL1        0.0201
      7 C           7.9048   -4.6415   22.4581 C.ar    1  UNL1       -0.0225
      8 C           8.6546   -5.9386   22.5310 C.ar    1  UNL1       -0.0041
      9 C           8.6760   -6.7216   23.8103 C.ar    1  UNL1        0.0042
     10 C           7.9476   -6.2075   25.0166 C.ar    1  UNL1        0.0533
     11 C           7.1977   -4.9104   24.9436 C.ar    1  UNL1        0.0042
     12 C           7.1763   -4.1274   23.6644 C.ar    1  UNL1       -0.0041
     13 C           7.9690   -6.9905   26.2958 C.2     1  UNL1        0.2461
     14 O           7.5419   -8.4284   26.3022 O.2     1  UNL1       -0.2701
     15 N           8.4174   -6.3356   27.5686 N.am    1  UNL1       -0.2960
     16 H           8.6977   -5.3918   27.5644 H       1  UNL1        0.1501
     17 C           8.4388   -7.1187   28.8478 C.3     1  UNL1        0.1318
     18 C           8.1019   -6.4452   30.1451 C.2     1  UNL1        0.0702
     19 O           9.0793   -6.4771   31.2827 O.co2   1  UNL1       -0.5474
     20 O           6.7878   -5.7399   30.3050 O.co2   1  UNL1       -0.5474
     21 N           5.2525   -2.1206   18.7688 N.3     1  UNL1       -0.2962
     22 H           5.2808   -1.1011   18.7833 H       1  UNL1        0.1235
     23 C           3.5098   -3.9563   19.3547 C.3     1  UNL1        0.0220
     24 C           3.9614   -2.5272   19.4152 C.3     1  UNL1        0.0768
     25 C           3.1219   -1.5047   20.1221 C.ar    1  UNL1       -0.0080
     26 C           2.1455   -0.6704   19.3473 C.ar    1  UNL1       -0.0030
     27 C           1.3061    0.3522   20.0542 C.ar    1  UNL1       -0.0003
     28 C           1.4431    0.5404   21.5360 C.ar    1  UNL1       -0.0000
     29 C           2.4195   -0.2939   22.3109 C.ar    1  UNL1       -0.0003
     30 C           2.5565   -0.1056   23.7927 C.ar    1  UNL1       -0.0000
     31 C           3.5330   -0.9399   24.5676 C.ar    1  UNL1       -0.0000
     32 C           4.3724   -1.9625   23.8607 C.ar    1  UNL1       -0.0000
     33 C           4.2354   -2.1507   22.3789 C.ar    1  UNL1       -0.0003
     34 C           3.2590   -1.3164   21.6040 C.ar    1  UNL1       -0.0027
@<TRIPOS>UNITY_ATOM_ATTR
19 1
charge -1
@<TRIPOS>BOND
     1    24    23    1
     2    24    21    1
     3     1    21    1
     4     1     2    1
     5     2     3    1
     6     3     4    1
     7     4     5    1
     8     5     7    1
     9     7     8   ar
    10     8     9   ar
    11     9    10   ar
    12    10    13    1
    13    13    14    2
    14    13    15   am
    15    15    17    1
    16    17    18    1
    17    18    19   ar
    18    18    20   ar
    19    10    11   ar
    20    11    12   ar
    21     5     6    1
    22    24    25    1
    23    25    26   ar
    24    26    27   ar
    25    27    28   ar
    26    28    29   ar
    27    29    30   ar
    28    30    31   ar
    29    31    32   ar
    30    32    33   ar
    31    33    34   ar
    32     6     1    1
    33    34    25   ar
    34    12     7   ar
    35    34    29   ar
    36    21    22    1
    37    15    16    1
@<TRIPOS>MOLECULE
*****
 34 37 0 0 0
SMALL
GASTEIGER

@<TRIPOS>ATOM
      1 C           0.3674    1.1808   20.4607 C.3     1  UNL1        0.0545
      2 C           0.5436    1.3264   18.9782 C.3     1  UNL1        0.0157
      3 C           1.6442    0.5864   18.2775 C.3     1  UNL1        0.0017
      4 C           2.5686   -0.2992   19.0592 C.3     1  UNL1        0.0044
      5 C           2.3925   -0.4448   20.5417 C.3     1  UNL1        0.0237
      6 C           1.2919    0.2951   21.2425 C.3     1  UNL1        0.0201
      7 C           3.3169   -1.3304   21.3234 C.ar    1  UNL1       -0.0225
      8 C           3.3980   -1.1991   22.8155 C.ar    1  UNL1       -0.0041
      9 C           4.3225   -2.0848   23.5972 C.ar    1  UNL1        0.0042
     10 C           5.1659   -3.1016   22.8868 C.ar    1  UNL1        0.0533
     11 C           5.0849   -3.2329   21.3948 C.ar    1  UNL1        0.0042
     12 C           4.1604   -2.3473   20.6131 C.ar    1  UNL1       -0.0041
     13 C           6.0903   -3.9872   23.6685 C.2     1  UNL1        0.2461
     14 O           6.9330   -5.0048   22.9583 O.2     1  UNL1       -0.2701
     15 N           6.1722   -3.8552   25.1605 N.am    1  UNL1       -0.2960
     16 H           5.6191   -3.1873   25.6266 H       1  UNL1        0.1501
     17 C           7.0967   -4.7408   25.9422 C.3     1  UNL1        0.1318
     18 C           6.5359   -5.7893   26.8566 C.2     1  UNL1        0.0702
     19 O           5.8825   -5.3883   28.1459 O.co2   1  UNL1       -0.5474
     20 O           6.6286   -7.2388   26.4818 O.co2   1  UNL1       -0.5474
     21 N          -0.7333    1.9207   21.1614 N.3     1  UNL1       -0.2962
     22 H          -1.3445    2.2955   20.4359 H       1  UNL1        0.1235
     23 C           0.6880    4.0222   21.7219 C.3     1  UNL1        0.0220
     24 C          -0.4044    3.0591   22.0812 C.3     1  UNL1        0.0768
     25 C          -1.1680    3.2344   23.3604 C.ar    1  UNL1       -0.0080
     26 C          -2.4230    4.0557   23.3782 C.ar    1  UNL1       -0.0030
     27 C          -3.1866    4.2309   24.6573 C.ar    1  UNL1       -0.0003
     28 C          -2.6951    3.5849   25.9187 C.ar    1  UNL1       -0.0000
     29 C          -1.4400    2.7636   25.9010 C.ar    1  UNL1       -0.0003
     30 C          -0.9486    2.1176   27.1623 C.ar    1  UNL1       -0.0000
     31 C           0.3064    1.2963   27.1445 C.ar    1  UNL1       -0.0000
     32 C           1.0700    1.1211   25.8654 C.ar    1  UNL1       -0.0000
     33 C           0.5786    1.7671   24.6040 C.ar    1  UNL1       -0.0003
     34 C          -0.6765    2.5883   24.6218 C.ar    1  UNL1       -0.0027
@<TRIPOS>UNITY_ATOM_ATTR
19 1
charge -1
@<TRIPOS>BOND
     1    24    23    1
     2    24    21    1
     3     1    21    1
     4     1     2    1
     5     2     3    1
     6     3     4    1
     7     4     5    1
     8     5     7    1
     9     7     8   ar
    10     8     9   ar
    11     9    10   ar
    12    10    13    1
    13    13    14    2
    14    13    15   am
    15    15    17    1
    16    17    18    1
    17    18    19   ar
    18    18    20   ar
    19    10    11   ar
    20    11    12   ar
    21     5     6    1
    22    24    25    1
    23    25    26   ar
    24    26    27   ar
    25    27    28   ar
    26    28    29   ar
    27    29    30   ar
    28    30    31   ar
    29    31    32   ar
    30    32    33   ar
    31    33    34   ar
    32     6     1    1
    33    34    25   ar
    34    12     7   ar
    35    34    29   ar
    36    21    22    1
    37    15    16    1
@<TRIPOS>MOLECULE
*****
 34 37 0 0 0
SMALL
GASTEIGER

@<TRIPOS>ATOM
      1 C           2.5098    1.1241   21.8179 C.3     1  UNL1        0.0545
      2 C           1.5490    1.5529   22.8870 C.3     1  UNL1        0.0157
      3 C           1.5600    0.8708   24.2228 C.3     1  UNL1        0.0017
      4 C           2.5317   -0.2402   24.4896 C.3     1  UNL1        0.0044
      5 C           3.4926   -0.6691   23.4206 C.3     1  UNL1        0.0237
      6 C           3.4816    0.0130   22.0847 C.3     1  UNL1        0.0201
      7 C           4.4644   -1.7801   23.6874 C.ar    1  UNL1       -0.0225
      8 C           4.6475   -2.8749   22.6784 C.ar    1  UNL1       -0.0041
      9 C           5.6194   -3.9859   22.9453 C.ar    1  UNL1        0.0042
     10 C           6.4081   -4.0022   24.2211 C.ar    1  UNL1        0.0533
     11 C           6.2249   -2.9075   25.2300 C.ar    1  UNL1        0.0042
     12 C           5.2531   -1.7965   24.9632 C.ar    1  UNL1       -0.0041
     13 C           7.3798   -5.1132   24.4879 C.2     1  UNL1        0.2461
     14 O           7.8382   -5.9948   23.3641 O.2     1  UNL1       -0.2701
     15 N           7.8933   -5.3427   25.8784 N.am    1  UNL1       -0.2960
     16 H           7.5925   -4.7641   26.6160 H       1  UNL1        0.1501
     17 C           8.8652   -6.4538   26.1452 C.3     1  UNL1        0.1318
     18 C           8.3632   -7.8438   26.4016 C.2     1  UNL1        0.0702
     19 O           9.3041   -8.9014   26.8978 O.co2   1  UNL1       -0.5474
     20 O           6.9203   -8.1763   26.1617 O.co2   1  UNL1       -0.5474
     21 N           2.4988    1.8063   20.4821 N.3     1  UNL1       -0.2962
     22 H           1.6690    2.3992   20.4610 H       1  UNL1        0.1235
     23 C           1.1763    0.6821   18.5488 C.3     1  UNL1        0.0220
     24 C           2.4800    0.9904   19.2234 C.3     1  UNL1        0.0768
     25 C           3.7651    0.4829   18.6394 C.ar    1  UNL1       -0.0080
     26 C           4.7252    1.4385   17.9953 C.ar    1  UNL1       -0.0030
     27 C           6.0103    0.9309   17.4113 C.ar    1  UNL1       -0.0003
     28 C           6.3352   -0.5322   17.4715 C.ar    1  UNL1       -0.0000
     29 C           5.3751   -1.4878   18.1157 C.ar    1  UNL1       -0.0003
     30 C           5.7001   -2.9509   18.1759 C.ar    1  UNL1       -0.0000
     31 C           4.7400   -3.9065   18.8201 C.ar    1  UNL1       -0.0000
     32 C           3.4549   -3.3990   19.4041 C.ar    1  UNL1       -0.0000
     33 C           3.1299   -1.9359   19.3439 C.ar    1  UNL1       -0.0003
     34 C           4.0900   -0.9803   18.6997 C.ar    1  UNL1       -0.0027
@<TRIPOS>UNITY_ATOM_ATTR
19 1
charge -1
@<TRIPOS>BOND
     1    24    23    1
     2    24    21    1
     3     1    21    1
     4     1     2    1
     5     2     3    1
     6     3     4    1
     7     4     5    1
     8     5     7    1
     9     7     8   ar
    10     8     9   ar
    11     9    10   ar
    12    10    13    1
    13    13    14    2
    14    13    15   am
    15    15    17    1
    16    17    18    1
    17    18    19   ar
    18    18    20   ar
    19    10    11   ar
    20    11    12   ar
    21     5     6    1
    22    24    25    1
    23    25    26   ar
    24    26    27   ar
    25    27    28   ar
    26    28    29   ar
    27    29    30   ar
    28    30    31   ar
    29    31    32   ar
    30    32    33   ar
    31    33    34   ar
    32     6     1    1
    33    34    25   ar
    34    12     7   ar
    35    34    29   ar
    36    21    22    1
    37    15    16    1
