@<TRIPOS>MOLECULE
*****
 35 38 0 0 0
SMALL
GASTEIGER

@<TRIPOS>ATOM
      1 N           4.7852   -0.3295   30.3227 N.am    1  UNL1       -0.2765
      2 C           3.7098   -0.6516   31.3176 C.2     1  UNL1        0.3050
      3 O           2.3853   -1.1754   30.8471 O.2     1  UNL1       -0.2646
      4 H           5.6545    0.0143   30.6315 H       1  UNL1        0.1553
      5 C           4.0378   -0.9343   25.9266 C.ar    1  UNL1       -0.0224
      6 C           3.3604    0.1884   26.6550 C.ar    1  UNL1       -0.0030
      7 C           3.6095    0.3900   28.1204 C.ar    1  UNL1        0.0144
      8 C           4.5361   -0.5311   28.8574 C.ar    1  UNL1        0.0506
      9 C           5.2134   -1.6538   28.1289 C.ar    1  UNL1        0.0144
     10 C           4.9643   -1.8554   26.6636 C.ar    1  UNL1       -0.0030
     11 C           3.2904   -1.5392   21.5305 C.3     1  UNL1        0.0056
     12 C           4.2263   -2.4528   22.2649 C.3     1  UNL1        0.0007
     13 C           4.4755   -2.2512   23.7302 C.3     1  UNL1        0.0044
     14 C           3.7887   -1.1359   24.4613 C.3     1  UNL1        0.0223
     15 C           2.8528   -0.2223   23.7269 C.3     1  UNL1        0.0044
     16 C           2.6036   -0.4239   22.2616 C.3     1  UNL1        0.0007
     17 C           3.0413   -1.7408   20.0652 C.3     1  UNL1        0.0417
     18 O           5.1138   -2.6631   18.7987 O.co2   1  UNL1       -0.5492
     19 C           3.7263   -2.8574   19.3346 C.2     1  UNL1        0.0503
     20 O           3.0239   -4.1685   19.1400 O.co2   1  UNL1       -0.5492
     21 C           3.9590   -0.4500   32.7829 C.ar    1  UNL1        0.3052
     22 N           4.1565   -1.5337   33.8010 N.ar    1  UNL1       -0.1010
     23 N           4.3739   -0.8828   35.1348 N.ar    1  UNL1       -0.0919
     24 C           4.3108    0.6033   34.9411 C.ar    1  UNL1        0.3126
     25 O           4.0543    0.8709   33.4875 O.2     1  UNL1       -0.4006
     26 N           4.4752    1.6400   36.0127 N.pl3   1  UNL1       -0.2664
     27 H           5.3000    2.1756   36.0569 H       1  UNL1        0.1566
     28 C           3.3830    1.8604   37.0169 C.ar    1  UNL1        0.0541
     29 C           2.6317    3.1586   37.0350 C.ar    1  UNL1        0.0172
     30 C           1.5394    3.3791   38.0392 C.ar    1  UNL1        0.0332
     31 C           1.1985    2.3014   39.0253 C.ar    1  UNL1        0.1675
     32 F           0.1063    2.5219   40.0294 F       1  UNL1       -0.2018
     33 C           1.9498    1.0033   39.0072 C.ar    1  UNL1        0.1686
     34 F           1.6089   -0.0745   39.9932 F       1  UNL1       -0.2018
     35 C           3.0420    0.7828   38.0030 C.ar    1  UNL1        0.0467
@<TRIPOS>UNITY_ATOM_ATTR
18 1
charge -1
@<TRIPOS>BOND
     1    18    19   ar
     2    19    20   ar
     3    19    17    1
     4    11    17    1
     5    11    12    1
     6    12    13    1
     7    13    14    1
     8    14     5    1
     9     5     6   ar
    10     6     7   ar
    11     7     8   ar
    12     8     1    1
    13     1     2   am
    14     2     3    2
    15     2    21    1
    16    21    22   ar
    17    22    23   ar
    18    23    24   ar
    19    24    26    1
    20    26    28    1
    21    28    29   ar
    22    29    30   ar
    23    30    31   ar
    24    31    32    1
    25    31    33   ar
    26    33    34    1
    27    33    35   ar
    28    24    25   ar
    29     8     9   ar
    30     9    10   ar
    31    14    15    1
    32    15    16    1
    33    16    11    1
    34    10     5   ar
    35    25    21   ar
    36    35    28   ar
    37     1     4    1
    38    26    27    1
@<TRIPOS>MOLECULE
*****
 35 38 0 0 0
SMALL
GASTEIGER

@<TRIPOS>ATOM
      1 N           4.6752   -0.0226   30.3855 N.am    1  UNL1       -0.2765
      2 C           3.6760   -0.4258   31.4289 C.2     1  UNL1        0.3050
      3 O           2.3206   -0.9202   31.0181 O.2     1  UNL1       -0.2646
      4 H           5.5647    0.3019   30.6551 H       1  UNL1        0.1553
      5 C           3.6070   -0.2956   26.0226 C.ar    1  UNL1       -0.0224
      6 C           3.2025    0.9089   26.8199 C.ar    1  UNL1       -0.0030
      7 C           3.5586    0.9999   28.2741 C.ar    1  UNL1        0.0144
      8 C           4.3191   -0.1136   28.9312 C.ar    1  UNL1        0.0506
      9 C           4.7236   -1.3180   28.1339 C.ar    1  UNL1        0.0144
     10 C           4.3676   -1.4090   26.6797 C.ar    1  UNL1       -0.0030
     11 C           2.5388   -0.5686   21.6598 C.3     1  UNL1        0.0056
     12 C           2.0132    0.5639   22.4912 C.3     1  UNL1        0.0007
     13 C           2.3693    0.6549   23.9454 C.3     1  UNL1        0.0044
     14 C           3.2510   -0.3866   24.5683 C.3     1  UNL1        0.0223
     15 C           3.7766   -1.5190   23.7369 C.3     1  UNL1        0.0044
     16 C           3.4205   -1.6100   22.2826 C.3     1  UNL1        0.0007
     17 C           2.1828   -0.6596   20.2055 C.3     1  UNL1        0.0417
     18 O           0.9223    0.6035   18.3171 O.co2   1  UNL1       -0.5492
     19 C           0.9411    0.0087   19.6941 C.2     1  UNL1        0.0503
     20 O          -0.2818    0.0823   20.5596 O.co2   1  UNL1       -0.5492
     21 C           4.0320   -0.3348   32.8832 C.ar    1  UNL1        0.3052
     22 N           4.4169   -1.4816   33.7702 N.ar    1  UNL1       -0.1010
     23 N           4.6884   -0.9366   35.1410 N.ar    1  UNL1       -0.0919
     24 C           4.4714    0.5470   35.1013 C.ar    1  UNL1        0.3126
     25 O           4.0657    0.9191   33.7059 O.2     1  UNL1       -0.4006
     26 N           4.6319    1.4928   36.2545 N.pl3   1  UNL1       -0.2664
     27 H           5.5007    1.9258   36.4187 H       1  UNL1        0.1566
     28 C           3.4687    1.7788   37.1574 C.ar    1  UNL1        0.0541
     29 C           2.7692    3.1036   37.0826 C.ar    1  UNL1        0.0172
     30 C           1.6060    3.3896   37.9855 C.ar    1  UNL1        0.0332
     31 C           1.1423    2.3508   38.9632 C.ar    1  UNL1        0.1675
     32 F          -0.0208    2.6369   39.8660 F       1  UNL1       -0.2018
     33 C           1.8418    1.0261   39.0380 C.ar    1  UNL1        0.1686
     34 F           1.3782   -0.0128   40.0157 F       1  UNL1       -0.2018
     35 C           3.0050    0.7400   38.1351 C.ar    1  UNL1        0.0467
@<TRIPOS>UNITY_ATOM_ATTR
18 1
charge -1
@<TRIPOS>BOND
     1    18    19   ar
     2    19    20   ar
     3    19    17    1
     4    11    17    1
     5    11    12    1
     6    12    13    1
     7    13    14    1
     8    14     5    1
     9     5     6   ar
    10     6     7   ar
    11     7     8   ar
    12     8     1    1
    13     1     2   am
    14     2     3    2
    15     2    21    1
    16    21    22   ar
    17    22    23   ar
    18    23    24   ar
    19    24    26    1
    20    26    28    1
    21    28    29   ar
    22    29    30   ar
    23    30    31   ar
    24    31    32    1
    25    31    33   ar
    26    33    34    1
    27    33    35   ar
    28    24    25   ar
    29     8     9   ar
    30     9    10   ar
    31    14    15    1
    32    15    16    1
    33    16    11    1
    34    10     5   ar
    35    25    21   ar
    36    35    28   ar
    37     1     4    1
    38    26    27    1
@<TRIPOS>MOLECULE
*****
 35 38 0 0 0
SMALL
GASTEIGER

@<TRIPOS>ATOM
      1 N          -0.2116    0.7139   20.7534 N.am    1  UNL1       -0.2765
      2 C          -0.1608    2.1703   20.3981 C.2     1  UNL1        0.3050
      3 O           1.1623    2.8462   20.1914 O.2     1  UNL1       -0.2646
      4 H          -1.0800    0.2703   20.8890 H       1  UNL1        0.1553
      5 C           3.6051   -1.6279   21.1994 C.ar    1  UNL1       -0.0224
      6 C           2.8133   -1.7191   19.9287 C.ar    1  UNL1       -0.0030
      7 C           1.5411   -0.9386   19.7800 C.ar    1  UNL1        0.0144
      8 C           1.0606   -0.0667   20.9020 C.ar    1  UNL1        0.0506
      9 C           1.8524    0.0246   22.1727 C.ar    1  UNL1        0.0144
     10 C           3.1247   -0.7560   22.3214 C.ar    1  UNL1       -0.0030
     11 C           7.4218   -3.9696   21.6454 C.3     1  UNL1        0.0056
     12 C           7.1428   -3.2255   20.3733 C.3     1  UNL1        0.0007
     13 C           5.8705   -2.4449   20.2246 C.3     1  UNL1        0.0044
     14 C           4.8773   -2.4084   21.3480 C.3     1  UNL1        0.0223
     15 C           5.1564   -3.1526   22.6201 C.3     1  UNL1        0.0044
     16 C           6.4286   -3.9332   22.7688 C.3     1  UNL1        0.0007
     17 C           8.6940   -4.7502   21.7940 C.3     1  UNL1        0.0417
     18 O           8.4657   -7.1622   22.7322 O.co2   1  UNL1       -0.5492
     19 C           8.8485   -5.7245   22.9240 C.2     1  UNL1        0.0503
     20 O           9.3857   -5.2613   24.2456 O.co2   1  UNL1       -0.5492
     21 C          -1.4330    2.9509   20.2494 C.ar    1  UNL1        0.3052
     22 N          -1.5767    4.2822   19.5734 N.ar    1  UNL1       -0.1010
     23 N          -3.0175    4.6913   19.6569 N.ar    1  UNL1       -0.0919
     24 C          -3.7642    3.6129   20.3844 C.ar    1  UNL1        0.3126
     25 O          -2.7850    2.5372   20.7507 O.2     1  UNL1       -0.4006
     26 N          -5.2323    3.6104   20.6918 N.pl3   1  UNL1       -0.2664
     27 H          -5.8763    3.2979   20.0158 H       1  UNL1        0.1566
     28 C          -5.7194    4.0842   22.0291 C.ar    1  UNL1        0.0541
     29 C          -6.8758    5.0360   22.1120 C.ar    1  UNL1        0.0172
     30 C          -7.3629    5.5097   23.4493 C.ar    1  UNL1        0.0332
     31 C          -6.6936    5.0317   24.7037 C.ar    1  UNL1        0.1675
     32 F          -7.1807    5.5054   26.0409 F       1  UNL1       -0.2018
     33 C          -5.5373    4.0799   24.6208 C.ar    1  UNL1        0.1686
     34 F          -4.8679    3.6017   25.8751 F       1  UNL1       -0.2018
     35 C          -5.0502    3.6061   23.2835 C.ar    1  UNL1        0.0467
@<TRIPOS>UNITY_ATOM_ATTR
18 1
charge -1
@<TRIPOS>BOND
     1    18    19   ar
     2    19    20   ar
     3    19    17    1
     4    11    17    1
     5    11    12    1
     6    12    13    1
     7    13    14    1
     8    14     5    1
     9     5     6   ar
    10     6     7   ar
    11     7     8   ar
    12     8     1    1
    13     1     2   am
    14     2     3    2
    15     2    21    1
    16    21    22   ar
    17    22    23   ar
    18    23    24   ar
    19    24    26    1
    20    26    28    1
    21    28    29   ar
    22    29    30   ar
    23    30    31   ar
    24    31    32    1
    25    31    33   ar
    26    33    34    1
    27    33    35   ar
    28    24    25   ar
    29     8     9   ar
    30     9    10   ar
    31    14    15    1
    32    15    16    1
    33    16    11    1
    34    10     5   ar
    35    25    21   ar
    36    35    28   ar
    37     1     4    1
    38    26    27    1
@<TRIPOS>MOLECULE
*****
 35 38 0 0 0
SMALL
GASTEIGER

@<TRIPOS>ATOM
      1 N           1.7832    2.2156   29.9526 N.am    1  UNL1       -0.2765
      2 C           1.3778    1.8176   31.3409 C.2     1  UNL1        0.3050
      3 O          -0.0756    1.7107   31.6963 O.2     1  UNL1       -0.2646
      4 H           2.7371    2.2857   29.7194 H       1  UNL1        0.1553
      5 C          -1.3609    3.0890   26.8539 C.ar    1  UNL1       -0.0224
      6 C          -0.6541    4.2177   27.5441 C.ar    1  UNL1       -0.0030
      7 C           0.3939    3.9266   28.5770 C.ar    1  UNL1        0.0144
      8 C           0.7352    2.5067   28.9197 C.ar    1  UNL1        0.0506
      9 C           0.0284    1.3780   28.2296 C.ar    1  UNL1        0.0144
     10 C          -1.0196    1.6691   27.1966 C.ar    1  UNL1       -0.0030
     11 C          -4.5049    3.9624   23.7552 C.3     1  UNL1        0.0056
     12 C          -3.0855    3.7190   23.3356 C.3     1  UNL1        0.0007
     13 C          -2.0375    3.4279   24.3685 C.3     1  UNL1        0.0044
     14 C          -2.4089    3.3801   25.8210 C.3     1  UNL1        0.0223
     15 C          -3.8282    3.6235   26.2406 C.3     1  UNL1        0.0044
     16 C          -4.8763    3.9146   25.2076 C.3     1  UNL1        0.0007
     17 C          -5.5529    4.2535   22.7222 C.3     1  UNL1        0.0417
     18 O          -6.6924    6.5199   23.2836 O.co2   1  UNL1       -0.5492
     19 C          -6.7780    5.0341   23.0961 C.2     1  UNL1        0.0503
     20 O          -8.0887    4.3290   23.2824 O.co2   1  UNL1       -0.5492
     21 C           2.4259    1.5265   32.3738 C.ar    1  UNL1        0.3052
     22 N           3.5753    0.5752   32.2198 N.ar    1  UNL1       -0.1010
     23 N           4.3683    0.5963   33.4929 N.ar    1  UNL1       -0.0919
     24 C           3.7089    1.5606   34.4337 C.ar    1  UNL1        0.3126
     25 O           2.5084    2.1355   33.7422 O.2     1  UNL1       -0.4006
     26 N           4.1691    1.8919   35.8224 N.pl3   1  UNL1       -0.2664
     27 H           5.1275    2.0245   36.0049 H       1  UNL1        0.1566
     28 C           3.1693    2.0213   36.9331 C.ar    1  UNL1        0.0541
     29 C           2.3985    3.2967   37.1036 C.ar    1  UNL1        0.0172
     30 C           1.3987    3.4261   38.2143 C.ar    1  UNL1        0.0332
     31 C           1.1696    2.2800   39.1544 C.ar    1  UNL1        0.1675
     32 F           0.1698    2.4093   40.2650 F       1  UNL1       -0.2018
     33 C           1.9403    1.0045   38.9839 C.ar    1  UNL1        0.1686
     34 F           1.7113   -0.1417   39.9241 F       1  UNL1       -0.2018
     35 C           2.9402    0.8752   37.8733 C.ar    1  UNL1        0.0467
@<TRIPOS>UNITY_ATOM_ATTR
18 1
charge -1
@<TRIPOS>BOND
     1    18    19   ar
     2    19    20   ar
     3    19    17    1
     4    11    17    1
     5    11    12    1
     6    12    13    1
     7    13    14    1
     8    14     5    1
     9     5     6   ar
    10     6     7   ar
    11     7     8   ar
    12     8     1    1
    13     1     2   am
    14     2     3    2
    15     2    21    1
    16    21    22   ar
    17    22    23   ar
    18    23    24   ar
    19    24    26    1
    20    26    28    1
    21    28    29   ar
    22    29    30   ar
    23    30    31   ar
    24    31    32    1
    25    31    33   ar
    26    33    34    1
    27    33    35   ar
    28    24    25   ar
    29     8     9   ar
    30     9    10   ar
    31    14    15    1
    32    15    16    1
    33    16    11    1
    34    10     5   ar
    35    25    21   ar
    36    35    28   ar
    37     1     4    1
    38    26    27    1
@<TRIPOS>MOLECULE
*****
 35 38 0 0 0
SMALL
GASTEIGER

@<TRIPOS>ATOM
      1 N           1.5067    0.3324   25.3891 N.am    1  UNL1       -0.2765
      2 C           2.8885    0.6283   25.8920 C.2     1  UNL1        0.3050
      3 O           3.1540    1.8915   26.6562 O.2     1  UNL1       -0.2646
      4 H           1.3324   -0.4966   24.8875 H       1  UNL1        0.1553
      5 C          -1.8424    3.2341   26.1727 C.ar    1  UNL1       -0.0224
      6 C          -1.2295    3.1474   24.8064 C.ar    1  UNL1       -0.0030
      7 C          -0.1131    2.1802   24.5452 C.ar    1  UNL1        0.0144
      8 C           0.3903    1.2997   25.6503 C.ar    1  UNL1        0.0506
      9 C          -0.2226    1.3864   27.0166 C.ar    1  UNL1        0.0144
     10 C          -1.3389    2.3536   27.2778 C.ar    1  UNL1       -0.0030
     11 C          -5.1914    6.1358   26.9564 C.3     1  UNL1        0.0056
     12 C          -5.4402    4.9086   26.1306 C.3     1  UNL1        0.0007
     13 C          -4.3238    3.9414   25.8693 C.3     1  UNL1        0.0044
     14 C          -2.9587    4.2013   26.4340 C.3     1  UNL1        0.0223
     15 C          -2.7100    5.4285   27.2598 C.3     1  UNL1        0.0044
     16 C          -3.8263    6.3957   27.5210 C.3     1  UNL1        0.0007
     17 C          -6.3078    7.1030   27.2176 C.3     1  UNL1        0.0417
     18 O          -8.6920    6.6346   26.2978 O.co2   1  UNL1       -0.5492
     19 C          -7.7045    6.5976   27.4264 C.2     1  UNL1        0.0503
     20 O          -8.1139    6.0553   28.7636 O.co2   1  UNL1       -0.5492
     21 C           4.0048   -0.3389   25.6308 C.ar    1  UNL1        0.3052
     22 N           5.3899   -0.2618   26.2015 N.ar    1  UNL1       -0.1010
     23 N           6.1732   -1.4283   25.6764 N.ar    1  UNL1       -0.0919
     24 C           5.2723   -2.2263   24.7811 C.ar    1  UNL1        0.3126
     25 O           3.9321   -1.5531   24.7529 O.2     1  UNL1       -0.4006
     26 N           5.6459   -3.4779   24.0436 N.pl3   1  UNL1       -0.2664
     27 H           5.9099   -4.2838   24.5437 H       1  UNL1        0.1566
     28 C           5.6172   -3.5016   22.5440 C.ar    1  UNL1        0.0541
     29 C           6.9016   -3.5288   21.7697 C.ar    1  UNL1        0.0172
     30 C           6.8730   -3.5526   20.2701 C.ar    1  UNL1        0.0332
     31 C           5.5600   -3.5491   19.5449 C.ar    1  UNL1        0.1675
     32 F           5.5313   -3.5729   18.0454 F       1  UNL1       -0.2018
     33 C           4.2756   -3.5220   20.3192 C.ar    1  UNL1        0.1686
     34 F           2.9625   -3.5185   19.5941 F       1  UNL1       -0.2018
     35 C           4.3042   -3.4982   21.8188 C.ar    1  UNL1        0.0467
@<TRIPOS>UNITY_ATOM_ATTR
18 1
charge -1
@<TRIPOS>BOND
     1    18    19   ar
     2    19    20   ar
     3    19    17    1
     4    11    17    1
     5    11    12    1
     6    12    13    1
     7    13    14    1
     8    14     5    1
     9     5     6   ar
    10     6     7   ar
    11     7     8   ar
    12     8     1    1
    13     1     2   am
    14     2     3    2
    15     2    21    1
    16    21    22   ar
    17    22    23   ar
    18    23    24   ar
    19    24    26    1
    20    26    28    1
    21    28    29   ar
    22    29    30   ar
    23    30    31   ar
    24    31    32    1
    25    31    33   ar
    26    33    34    1
    27    33    35   ar
    28    24    25   ar
    29     8     9   ar
    30     9    10   ar
    31    14    15    1
    32    15    16    1
    33    16    11    1
    34    10     5   ar
    35    25    21   ar
    36    35    28   ar
    37     1     4    1
    38    26    27    1
@<TRIPOS>MOLECULE
*****
 35 38 0 0 0
SMALL
GASTEIGER

@<TRIPOS>ATOM
      1 N           3.2521    1.2241   28.5860 N.am    1  UNL1       -0.2765
      2 C           2.4899    0.5220   29.6704 C.2     1  UNL1        0.3050
      3 O           1.7930   -0.7740   29.3789 O.2     1  UNL1       -0.2646
      4 H           3.7095    2.0747   28.7773 H       1  UNL1        0.1553
      5 C           3.4481   -0.5571   24.4582 C.ar    1  UNL1       -0.0224
      6 C           2.6047    0.6570   24.7118 C.ar    1  UNL1       -0.0030
      7 C           2.5394    1.2508   26.0877 C.ar    1  UNL1        0.0144
      8 C           3.3174    0.6304   27.2101 C.ar    1  UNL1        0.0506
      9 C           4.1608   -0.5838   26.9564 C.ar    1  UNL1        0.0144
     10 C           4.2262   -1.1776   25.5805 C.ar    1  UNL1       -0.0030
     11 C           3.6441   -2.3384   20.3304 C.3     1  UNL1        0.0056
     12 C           2.7958   -1.1279   20.5854 C.3     1  UNL1        0.0007
     13 C           2.7305   -0.5342   21.9613 C.3     1  UNL1        0.0044
     14 C           3.5134   -1.1509   23.0823 C.3     1  UNL1        0.0223
     15 C           4.3618   -2.3613   22.8273 C.3     1  UNL1        0.0044
     16 C           4.4271   -2.9551   21.4513 C.3     1  UNL1        0.0007
     17 C           3.7095   -2.9321   18.9545 C.3     1  UNL1        0.0417
     18 O           6.0400   -2.7077   17.8282 O.co2   1  UNL1       -0.5492
     19 C           4.5947   -2.3151   17.9126 C.2     1  UNL1        0.0503
     20 O           4.0347   -1.3054   16.9550 O.co2   1  UNL1       -0.5492
     21 C           2.4245    1.1157   31.0463 C.ar    1  UNL1        0.3052
     22 N           1.1810    1.5656   31.7544 N.ar    1  UNL1       -0.1010
     23 N           1.5792    2.0918   33.1014 N.ar    1  UNL1       -0.0919
     24 C           3.0688    1.9671   33.2260 C.ar    1  UNL1        0.3126
     25 O           3.5913    1.3638   31.9559 O.2     1  UNL1       -0.4006
     26 N           3.8915    2.3741   34.4123 N.pl3   1  UNL1       -0.2664
     27 H           4.8490    2.5749   34.3018 H       1  UNL1        0.1566
     28 C           3.2555    2.4753   35.7671 C.ar    1  UNL1        0.0541
     29 C           2.2845    3.5807   36.0591 C.ar    1  UNL1        0.0172
     30 C           1.6485    3.6818   37.4138 C.ar    1  UNL1        0.0332
     31 C           1.9834    2.6776   38.4765 C.ar    1  UNL1        0.1675
     32 F           1.3474    2.7787   39.8311 F       1  UNL1       -0.2018
     33 C           2.9544    1.5722   38.1845 C.ar    1  UNL1        0.1686
     34 F           3.2894    0.5678   39.2471 F       1  UNL1       -0.2018
     35 C           3.5904    1.4710   36.8298 C.ar    1  UNL1        0.0467
@<TRIPOS>UNITY_ATOM_ATTR
18 1
charge -1
@<TRIPOS>BOND
     1    18    19   ar
     2    19    20   ar
     3    19    17    1
     4    11    17    1
     5    11    12    1
     6    12    13    1
     7    13    14    1
     8    14     5    1
     9     5     6   ar
    10     6     7   ar
    11     7     8   ar
    12     8     1    1
    13     1     2   am
    14     2     3    2
    15     2    21    1
    16    21    22   ar
    17    22    23   ar
    18    23    24   ar
    19    24    26    1
    20    26    28    1
    21    28    29   ar
    22    29    30   ar
    23    30    31   ar
    24    31    32    1
    25    31    33   ar
    26    33    34    1
    27    33    35   ar
    28    24    25   ar
    29     8     9   ar
    30     9    10   ar
    31    14    15    1
    32    15    16    1
    33    16    11    1
    34    10     5   ar
    35    25    21   ar
    36    35    28   ar
    37     1     4    1
    38    26    27    1
@<TRIPOS>MOLECULE
*****
 35 38 0 0 0
SMALL
GASTEIGER

@<TRIPOS>ATOM
      1 N           2.1446   -0.5958   30.1657 N.am    1  UNL1       -0.2765
      2 C           2.9108    0.2063   31.1754 C.2     1  UNL1        0.3050
      3 O           3.0334    1.6928   31.0158 O.2     1  UNL1       -0.2646
      4 H           2.0641   -1.5714   30.2704 H       1  UNL1        0.1553
      5 C           0.2137    1.4572   26.6576 C.ar    1  UNL1       -0.0224
      6 C           1.6793    1.1396   26.6271 C.ar    1  UNL1       -0.0030
      7 C           2.3230    0.4553   27.7964 C.ar    1  UNL1        0.0144
      8 C           1.5010    0.0886   28.9963 C.ar    1  UNL1        0.0506
      9 C           0.0353    0.4062   29.0268 C.ar    1  UNL1        0.0144
     10 C          -0.6083    1.0905   27.8575 C.ar    1  UNL1       -0.0030
     11 C          -1.7172    3.5102   23.1495 C.3     1  UNL1        0.0056
     12 C          -0.4241    2.7723   22.9679 C.3     1  UNL1        0.0007
     13 C           0.2196    2.0879   24.1373 C.3     1  UNL1        0.0044
     14 C          -0.4300    2.1416   25.4882 C.3     1  UNL1        0.0223
     15 C          -1.7232    2.8795   25.6698 C.3     1  UNL1        0.0044
     16 C          -2.3668    3.5639   24.5005 C.3     1  UNL1        0.0007
     17 C          -2.3609    4.1946   21.9801 C.3     1  UNL1        0.0417
     18 O          -3.2395    3.5195   19.6302 O.co2   1  UNL1       -0.5492
     19 C          -3.3445    3.4522   21.1250 C.2     1  UNL1        0.0503
     20 O          -4.4332    2.6425   21.7647 O.co2   1  UNL1       -0.5492
     21 C           3.5544   -0.4780   32.3448 C.ar    1  UNL1        0.3052
     22 N           3.5910   -1.9574   32.5899 N.ar    1  UNL1       -0.1010
     23 N           4.3337   -2.1969   33.8709 N.ar    1  UNL1       -0.0919
     24 C           4.7562   -0.8654   34.4176 C.ar    1  UNL1        0.3126
     25 O           4.2746    0.1969   33.4744 O.2     1  UNL1       -0.4006
     26 N           5.5252   -0.6364   35.6849 N.pl3   1  UNL1       -0.2664
     27 H           6.3278   -1.1731   35.8775 H       1  UNL1        0.1566
     28 C           5.0715    0.4103   36.6588 C.ar    1  UNL1        0.0541
     29 C           6.0675    1.3562   37.2614 C.ar    1  UNL1        0.0172
     30 C           5.6138    2.4029   38.2354 C.ar    1  UNL1        0.0332
     31 C           4.1640    2.5037   38.6067 C.ar    1  UNL1        0.1675
     32 F           3.7103    3.5503   39.5806 F       1  UNL1       -0.2018
     33 C           3.1679    1.5578   38.0042 C.ar    1  UNL1        0.1686
     34 F           1.7181    1.6584   38.3755 F       1  UNL1       -0.2018
     35 C           3.6217    0.5110   37.0302 C.ar    1  UNL1        0.0467
@<TRIPOS>UNITY_ATOM_ATTR
18 1
charge -1
@<TRIPOS>BOND
     1    18    19   ar
     2    19    20   ar
     3    19    17    1
     4    11    17    1
     5    11    12    1
     6    12    13    1
     7    13    14    1
     8    14     5    1
     9     5     6   ar
    10     6     7   ar
    11     7     8   ar
    12     8     1    1
    13     1     2   am
    14     2     3    2
    15     2    21    1
    16    21    22   ar
    17    22    23   ar
    18    23    24   ar
    19    24    26    1
    20    26    28    1
    21    28    29   ar
    22    29    30   ar
    23    30    31   ar
    24    31    32    1
    25    31    33   ar
    26    33    34    1
    27    33    35   ar
    28    24    25   ar
    29     8     9   ar
    30     9    10   ar
    31    14    15    1
    32    15    16    1
    33    16    11    1
    34    10     5   ar
    35    25    21   ar
    36    35    28   ar
    37     1     4    1
    38    26    27    1
@<TRIPOS>MOLECULE
*****
 35 38 0 0 0
SMALL
GASTEIGER

@<TRIPOS>ATOM
      1 N           1.7401    1.1982   31.5621 N.am    1  UNL1       -0.2765
      2 C           3.1565    0.7085   31.6243 C.2     1  UNL1        0.3050
      3 O           3.9642    0.5876   30.3661 O.2     1  UNL1       -0.2646
      4 H           1.2099    1.2776   32.3879 H       1  UNL1        0.1553
      5 C          -0.0862    2.3046   27.6010 C.ar    1  UNL1       -0.0224
      6 C          -0.0146    0.8656   28.0181 C.ar    1  UNL1       -0.0030
      7 C           0.5941    0.4968   29.3384 C.ar    1  UNL1        0.0144
      8 C           1.1313    1.5670   30.2417 C.ar    1  UNL1        0.0506
      9 C           1.0597    3.0060   29.8247 C.ar    1  UNL1        0.0144
     10 C           0.4510    3.3748   28.5043 C.ar    1  UNL1       -0.0030
     11 C          -1.9125    3.4110   23.6398 C.3     1  UNL1        0.0056
     12 C          -2.6855    3.6235   24.9076 C.3     1  UNL1        0.0007
     13 C          -2.0767    3.2547   26.2280 C.3     1  UNL1        0.0044
     14 C          -0.6950    2.6734   26.2806 C.3     1  UNL1        0.0223
     15 C           0.0780    2.4609   25.0128 C.3     1  UNL1        0.0044
     16 C          -0.5307    2.8297   23.6924 C.3     1  UNL1        0.0007
     17 C          -2.5212    3.7798   22.3194 C.3     1  UNL1        0.0417
     18 O          -4.7117    2.4703   21.8327 O.co2   1  UNL1       -0.5492
     19 C          -4.0113    3.7586   22.1485 C.2     1  UNL1        0.0503
     20 O          -4.8009    5.0257   22.2932 O.co2   1  UNL1       -0.5492
     21 C           3.7652    0.3397   32.9447 C.ar    1  UNL1        0.3052
     22 N           4.5780   -0.8886   33.2286 N.ar    1  UNL1       -0.1010
     23 N           4.9832   -0.8530   34.6724 N.ar    1  UNL1       -0.0919
     24 C           4.4208    0.3974   35.2809 C.ar    1  UNL1        0.3126
     25 O           3.6680    1.1346   34.2132 O.2     1  UNL1       -0.4006
     26 N           4.5827    0.8340   36.7068 N.pl3   1  UNL1       -0.2664
     27 H           5.4675    0.7931   37.1367 H       1  UNL1        0.1566
     28 C           3.3967    1.3330   37.4777 C.ar    1  UNL1        0.0541
     29 C           2.8671    2.7141   37.2284 C.ar    1  UNL1        0.0172
     30 C           1.6811    3.2130   37.9993 C.ar    1  UNL1        0.0332
     31 C           1.0245    2.3309   39.0195 C.ar    1  UNL1        0.1675
     32 F          -0.1615    2.8299   39.7903 F       1  UNL1       -0.2018
     33 C           1.5540    0.9498   39.2688 C.ar    1  UNL1        0.1686
     34 F           0.8976    0.0676   40.2889 F       1  UNL1       -0.2018
     35 C           2.7401    0.4508   38.4979 C.ar    1  UNL1        0.0467
@<TRIPOS>UNITY_ATOM_ATTR
18 1
charge -1
@<TRIPOS>BOND
     1    18    19   ar
     2    19    20   ar
     3    19    17    1
     4    11    17    1
     5    11    12    1
     6    12    13    1
     7    13    14    1
     8    14     5    1
     9     5     6   ar
    10     6     7   ar
    11     7     8   ar
    12     8     1    1
    13     1     2   am
    14     2     3    2
    15     2    21    1
    16    21    22   ar
    17    22    23   ar
    18    23    24   ar
    19    24    26    1
    20    26    28    1
    21    28    29   ar
    22    29    30   ar
    23    30    31   ar
    24    31    32    1
    25    31    33   ar
    26    33    34    1
    27    33    35   ar
    28    24    25   ar
    29     8     9   ar
    30     9    10   ar
    31    14    15    1
    32    15    16    1
    33    16    11    1
    34    10     5   ar
    35    25    21   ar
    36    35    28   ar
    37     1     4    1
    38    26    27    1
@<TRIPOS>MOLECULE
*****
 35 38 0 0 0
SMALL
GASTEIGER

@<TRIPOS>ATOM
      1 N           1.9462    1.1160   28.1791 N.am    1  UNL1       -0.2765
      2 C           1.6480    0.0663   29.2082 C.2     1  UNL1        0.3050
      3 O           0.2404   -0.4138   29.4039 O.2     1  UNL1       -0.2646
      4 H           2.8700    1.4311   28.0506 H       1  UNL1        0.1553
      5 C          -1.3820    2.8251   25.6786 C.ar    1  UNL1       -0.0224
      6 C          -0.3862    1.8878   25.0623 C.ar    1  UNL1       -0.0030
      7 C           0.7232    1.3181   25.8958 C.ar    1  UNL1        0.0144
      8 C           0.8368    1.6857   27.3456 C.ar    1  UNL1        0.0506
      9 C          -0.1590    2.6229   27.9619 C.ar    1  UNL1        0.0144
     10 C          -1.2684    3.1926   27.1284 C.ar    1  UNL1       -0.0030
     11 C          -4.7102    4.5342   23.1782 C.3     1  UNL1        0.0056
     12 C          -3.3880    4.2116   22.5476 C.3     1  UNL1        0.0007
     13 C          -2.2786    3.6419   23.3811 C.3     1  UNL1        0.0044
     14 C          -2.4914    3.3948   24.8452 C.3     1  UNL1        0.0223
     15 C          -3.8136    3.7174   25.4758 C.3     1  UNL1        0.0044
     16 C          -4.9230    4.2871   24.6423 C.3     1  UNL1        0.0007
     17 C          -5.8196    5.1039   22.3447 C.3     1  UNL1        0.0417
     18 O          -8.2560    4.8223   23.2017 O.co2   1  UNL1       -0.5492
     19 C          -7.0378    5.6756   23.0072 C.2     1  UNL1        0.0503
     20 O          -7.0378    7.1007   23.4753 O.co2   1  UNL1       -0.5492
     21 C           2.7574   -0.5034   30.0417 C.ar    1  UNL1        0.3052
     22 N           2.6632   -0.8941   31.4868 N.ar    1  UNL1       -0.1010
     23 N           4.0034   -1.4146   31.9147 N.ar    1  UNL1       -0.0919
     24 C           4.9259   -1.3456   30.7339 C.ar    1  UNL1        0.3126
     25 O           4.1559   -0.7825   29.5763 O.2     1  UNL1       -0.4006
     26 N           6.3656   -1.7660   30.7141 N.pl3   1  UNL1       -0.2664
     27 H           7.0654   -1.1395   31.0092 H       1  UNL1        0.1566
     28 C           6.7392   -3.1408   30.2448 C.ar    1  UNL1        0.0541
     29 C           6.4798   -3.5444   28.8236 C.ar    1  UNL1        0.0172
     30 C           6.8534   -4.9192   28.3542 C.ar    1  UNL1        0.0332
     31 C           7.4864   -5.8905   29.3060 C.ar    1  UNL1        0.1675
     32 F           7.8600   -7.2652   28.8367 F       1  UNL1       -0.2018
     33 C           7.7459   -5.4869   30.7272 C.ar    1  UNL1        0.1686
     34 F           8.3789   -6.4581   31.6791 F       1  UNL1       -0.2018
     35 C           7.3723   -4.1121   31.1966 C.ar    1  UNL1        0.0467
@<TRIPOS>UNITY_ATOM_ATTR
18 1
charge -1
@<TRIPOS>BOND
     1    18    19   ar
     2    19    20   ar
     3    19    17    1
     4    11    17    1
     5    11    12    1
     6    12    13    1
     7    13    14    1
     8    14     5    1
     9     5     6   ar
    10     6     7   ar
    11     7     8   ar
    12     8     1    1
    13     1     2   am
    14     2     3    2
    15     2    21    1
    16    21    22   ar
    17    22    23   ar
    18    23    24   ar
    19    24    26    1
    20    26    28    1
    21    28    29   ar
    22    29    30   ar
    23    30    31   ar
    24    31    32    1
    25    31    33   ar
    26    33    34    1
    27    33    35   ar
    28    24    25   ar
    29     8     9   ar
    30     9    10   ar
    31    14    15    1
    32    15    16    1
    33    16    11    1
    34    10     5   ar
    35    25    21   ar
    36    35    28   ar
    37     1     4    1
    38    26    27    1
