@<TRIPOS>MOLECULE
*****
 23 25 0 0 0
SMALL
GASTEIGER

@<TRIPOS>ATOM
      1 C          -8.6168  -17.0294   22.5106 C.ar    1  UNL1       -0.0143
      2 C          -7.9844  -18.3488   22.1800 C.ar    1  UNL1        0.0051
      3 S          -9.0714  -19.2892   21.7510 S.2     1  UNL1       -0.0915
      4 C         -10.3756  -18.5510   21.8163 C.ar    1  UNL1        0.0288
      5 C         -11.7826  -18.9701   21.5090 C.ar    1  UNL1        0.0065
      6 C         -12.9087  -17.9925   21.6712 C.ar    1  UNL1        0.0005
      7 C         -12.6277  -16.5959   22.1408 C.ar    1  UNL1        0.0000
      8 C         -11.2206  -16.1768   22.4481 C.ar    1  UNL1        0.0002
      9 C         -10.0946  -17.1543   22.2859 C.ar    1  UNL1        0.0025
     10 C          -7.5708  -14.7036   22.0136 C.3     1  UNL1        0.0111
     11 C          -7.8976  -15.8007   22.9831 C.3     1  UNL1        0.0649
     12 C          -7.5052  -15.6691   24.4247 C.ar    1  UNL1        0.0900
     13 N          -8.5627  -15.5882   25.4855 N.ar    1  UNL1       -0.2456
     14 C          -8.1704  -15.4566   26.9273 C.ar    1  UNL1        0.0986
     15 C          -6.7204  -15.4057   27.3083 C.ar    1  UNL1        0.0230
     16 C          -5.6630  -15.4866   26.2476 C.ar    1  UNL1        0.0325
     17 C          -6.0553  -15.6182   24.8058 C.ar    1  UNL1        0.1539
     18 F          -4.9978  -15.6991   23.7452 F       1  UNL1       -0.2029
     19 C          -6.5219  -18.6712   22.2638 C.3     1  UNL1        0.0499
     20 C          -5.7814  -19.1197   21.0389 C.3     1  UNL1        0.0774
     21 N          -4.3299  -18.7794   20.8733 N.3     1  UNL1       -0.2700
     22 C          -3.5154  -18.3683   22.0640 C.3     1  UNL1        0.0897
     23 C          -3.6929  -18.8501   19.5172 C.3     1  UNL1        0.0897
@<TRIPOS>BOND
     1    11    10    1
     2    11    12    1
     3    12    13   ar
     4    13    14   ar
     5    14    15   ar
     6    15    16   ar
     7    16    17   ar
     8    17    18    1
     9    11     1    1
    10     1     2   ar
    11     2    19    1
    12    19    20    1
    13    20    21    1
    14    21    22    1
    15    21    23    1
    16     2     3   ar
    17     3     4   ar
    18     4     5   ar
    19     5     6   ar
    20     6     7   ar
    21     7     8   ar
    22     8     9   ar
    23    17    12   ar
    24     9     1   ar
    25     9     4   ar
@<TRIPOS>MOLECULE
*****
 23 25 0 0 0
SMALL
GASTEIGER

@<TRIPOS>ATOM
      1 C          -7.1696  -18.5676   21.8313 C.ar    1  UNL1       -0.0143
      2 C          -6.8052  -17.5148   22.8357 C.ar    1  UNL1        0.0051
      3 S          -5.3123  -17.5106   22.9817 S.2     1  UNL1       -0.0915
      4 C          -4.7541  -18.5608   22.0676 C.ar    1  UNL1        0.0288
      5 C          -3.3489  -19.0065   21.7909 C.ar    1  UNL1        0.0065
      6 C          -3.0916  -20.1056   20.8031 C.ar    1  UNL1        0.0005
      7 C          -4.2395  -20.7589   20.0920 C.ar    1  UNL1        0.0000
      8 C          -5.6447  -20.3131   20.3688 C.ar    1  UNL1        0.0002
      9 C          -5.9020  -19.2141   21.3566 C.ar    1  UNL1        0.0025
     10 C          -8.8011  -19.3460   19.9650 C.3     1  UNL1        0.0111
     11 C          -8.5579  -18.9133   21.3806 C.3     1  UNL1        0.0649
     12 C          -9.7031  -18.8265   22.3454 C.ar    1  UNL1        0.0900
     13 N         -10.7847  -17.8085   22.1360 N.ar    1  UNL1       -0.2456
     14 C         -11.9300  -17.7216   23.1008 C.ar    1  UNL1        0.0986
     15 C         -11.9936  -18.6527   24.2751 C.ar    1  UNL1        0.0230
     16 C         -10.9120  -19.6707   24.4845 C.ar    1  UNL1        0.0325
     17 C          -9.7668  -19.7576   23.5197 C.ar    1  UNL1        0.1539
     18 F          -8.6853  -20.7756   23.7293 F       1  UNL1       -0.2029
     19 C          -7.7651  -16.6229   23.5658 C.3     1  UNL1        0.0499
     20 C          -7.2681  -15.3785   24.2398 C.3     1  UNL1        0.0774
     21 N          -6.9037  -15.4079   25.6945 N.3     1  UNL1       -0.2700
     22 C          -5.4660  -15.3046   26.1098 C.3     1  UNL1        0.0897
     23 C          -7.9769  -15.5405   26.7340 C.3     1  UNL1        0.0897
@<TRIPOS>BOND
     1    11    10    1
     2    11    12    1
     3    12    13   ar
     4    13    14   ar
     5    14    15   ar
     6    15    16   ar
     7    16    17   ar
     8    17    18    1
     9    11     1    1
    10     1     2   ar
    11     2    19    1
    12    19    20    1
    13    20    21    1
    14    21    22    1
    15    21    23    1
    16     2     3   ar
    17     3     4   ar
    18     4     5   ar
    19     5     6   ar
    20     6     7   ar
    21     7     8   ar
    22     8     9   ar
    23    17    12   ar
    24     9     1   ar
    25     9     4   ar
@<TRIPOS>MOLECULE
*****
 23 25 0 0 0
SMALL
GASTEIGER

@<TRIPOS>ATOM
      1 C          -7.9085  -18.5263   22.4717 C.ar    1  UNL1       -0.0143
      2 C          -7.3541  -17.3517   23.2220 C.ar    1  UNL1        0.0051
      3 S          -5.8727  -17.3107   22.9897 S.2     1  UNL1       -0.0915
      4 C          -5.5117  -18.4599   22.0959 C.ar    1  UNL1        0.0288
      5 C          -4.1998  -18.9194   21.5322 C.ar    1  UNL1        0.0065
      6 C          -4.1461  -20.1301   20.6484 C.ar    1  UNL1        0.0005
      7 C          -5.4043  -20.8814   20.3282 C.ar    1  UNL1        0.0000
      8 C          -6.7162  -20.4219   20.8919 C.ar    1  UNL1        0.0002
      9 C          -6.7699  -19.2112   21.7758 C.ar    1  UNL1        0.0025
     10 C          -9.7651  -20.2672   22.9937 C.3     1  UNL1        0.0111
     11 C          -9.3488  -18.9428   22.4255 C.3     1  UNL1        0.0649
     12 C         -10.3727  -18.0351   21.8111 C.ar    1  UNL1        0.0900
     13 N         -10.3205  -17.7303   20.3433 N.ar    1  UNL1       -0.2456
     14 C         -11.3444  -16.8226   19.7288 C.ar    1  UNL1        0.0986
     15 C         -12.4207  -16.2197   20.5822 C.ar    1  UNL1        0.0230
     16 C         -12.4730  -16.5245   22.0499 C.ar    1  UNL1        0.0325
     17 C         -11.4490  -17.4322   22.6644 C.ar    1  UNL1        0.1539
     18 F         -11.5013  -17.7370   24.1322 F       1  UNL1       -0.2029
     19 C          -8.1425  -16.3874   24.0577 C.3     1  UNL1        0.0499
     20 C          -7.4648  -15.1979   24.6707 C.3     1  UNL1        0.0774
     21 N          -6.8132  -15.3169   26.0166 N.3     1  UNL1       -0.2700
     22 C          -5.3200  -15.2380   26.1365 C.3     1  UNL1        0.0897
     23 C          -7.6546  -15.5149   27.2424 C.3     1  UNL1        0.0897
@<TRIPOS>BOND
     1    11    10    1
     2    11    12    1
     3    12    13   ar
     4    13    14   ar
     5    14    15   ar
     6    15    16   ar
     7    16    17   ar
     8    17    18    1
     9    11     1    1
    10     1     2   ar
    11     2    19    1
    12    19    20    1
    13    20    21    1
    14    21    22    1
    15    21    23    1
    16     2     3   ar
    17     3     4   ar
    18     4     5   ar
    19     5     6   ar
    20     6     7   ar
    21     7     8   ar
    22     8     9   ar
    23    17    12   ar
    24     9     1   ar
    25     9     4   ar
@<TRIPOS>MOLECULE
*****
 23 25 0 0 0
SMALL
GASTEIGER

@<TRIPOS>ATOM
      1 C          -8.6697  -17.3503   23.7210 C.ar    1  UNL1       -0.0143
      2 C          -9.7367  -18.2201   24.3168 C.ar    1  UNL1        0.0051
      3 S          -9.7460  -17.9926   25.7994 S.2     1  UNL1       -0.0915
      4 C          -8.6847  -16.9822   26.1200 C.ar    1  UNL1        0.0288
      5 C          -8.2381  -16.3724   27.4155 C.ar    1  UNL1        0.0065
      6 C          -7.1263  -15.3656   27.4266 C.ar    1  UNL1        0.0005
      7 C          -6.4611  -14.9686   26.1421 C.ar    1  UNL1        0.0000
      8 C          -6.9077  -15.5785   24.8465 C.ar    1  UNL1        0.0002
      9 C          -8.0195  -16.5853   24.8355 C.ar    1  UNL1        0.0025
     10 C          -8.9283  -16.1940   21.4088 C.3     1  UNL1        0.0111
     11 C          -8.3151  -17.2612   22.2663 C.3     1  UNL1        0.0649
     12 C          -7.3474  -18.2392   21.6689 C.ar    1  UNL1        0.0900
     13 N          -5.9041  -18.2106   22.0768 N.ar    1  UNL1       -0.2456
     14 C          -4.9363  -19.1885   21.4794 C.ar    1  UNL1        0.0986
     15 C          -5.4117  -20.1952   20.4741 C.ar    1  UNL1        0.0230
     16 C          -6.8549  -20.2239   20.0662 C.ar    1  UNL1        0.0325
     17 C          -7.8227  -19.2459   20.6636 C.ar    1  UNL1        0.1539
     18 F          -9.2659  -19.2746   20.2557 F       1  UNL1       -0.2029
     19 C         -10.6365  -19.1535   23.5623 C.3     1  UNL1        0.0499
     20 C         -11.6272  -18.6076   22.5772 C.3     1  UNL1        0.0774
     21 N         -12.6170  -17.5661   23.0078 N.3     1  UNL1       -0.2700
     22 C         -13.7435  -17.9363   23.9265 C.3     1  UNL1        0.0897
     23 C         -12.4804  -16.1543   22.5197 C.3     1  UNL1        0.0897
@<TRIPOS>BOND
     1    11    10    1
     2    11    12    1
     3    12    13   ar
     4    13    14   ar
     5    14    15   ar
     6    15    16   ar
     7    16    17   ar
     8    17    18    1
     9    11     1    1
    10     1     2   ar
    11     2    19    1
    12    19    20    1
    13    20    21    1
    14    21    22    1
    15    21    23    1
    16     2     3   ar
    17     3     4   ar
    18     4     5   ar
    19     5     6   ar
    20     6     7   ar
    21     7     8   ar
    22     8     9   ar
    23    17    12   ar
    24     9     1   ar
    25     9     4   ar
@<TRIPOS>MOLECULE
*****
 23 25 0 0 0
SMALL
GASTEIGER

@<TRIPOS>ATOM
      1 C          -7.2188  -18.5321   21.8184 C.ar    1  UNL1       -0.0143
      2 C          -6.8783  -17.5030   22.8553 C.ar    1  UNL1        0.0051
      3 S          -5.3898  -17.5061   23.0400 S.2     1  UNL1       -0.0915
      4 C          -4.8103  -18.5371   22.1174 C.ar    1  UNL1        0.0288
      5 C          -3.3993  -18.9804   21.8673 C.ar    1  UNL1        0.0065
      6 C          -3.1188  -20.0579   20.8621 C.ar    1  UNL1        0.0005
      7 C          -4.2492  -20.6920   20.1071 C.ar    1  UNL1        0.0000
      8 C          -5.6602  -20.2487   20.3573 C.ar    1  UNL1        0.0002
      9 C          -5.9407  -19.1712   21.3624 C.ar    1  UNL1        0.0025
     10 C          -8.7973  -19.3036   19.9044 C.3     1  UNL1        0.0111
     11 C          -8.5957  -18.8639   21.3243 C.3     1  UNL1        0.0649
     12 C          -9.7710  -18.7560   22.2500 C.ar    1  UNL1        0.0900
     13 N          -9.8055  -19.5609   23.5154 N.ar    1  UNL1       -0.2456
     14 C         -10.9808  -19.4530   24.4411 C.ar    1  UNL1        0.0986
     15 C         -12.1217  -18.5402   24.1015 C.ar    1  UNL1        0.0230
     16 C         -12.0872  -17.7353   22.8362 C.ar    1  UNL1        0.0325
     17 C         -10.9119  -17.8432   21.9105 C.ar    1  UNL1        0.1539
     18 F         -10.8774  -17.0383   20.6452 F       1  UNL1       -0.2029
     19 C          -7.8549  -16.6250   23.5800 C.3     1  UNL1        0.0499
     20 C          -7.3808  -15.3697   24.2504 C.3     1  UNL1        0.0774
     21 N          -7.0024  -15.3914   25.7017 N.3     1  UNL1       -0.2700
     22 C          -8.0631  -15.5456   26.7511 C.3     1  UNL1        0.0897
     23 C          -5.5633  -15.2591   26.1036 C.3     1  UNL1        0.0897
@<TRIPOS>BOND
     1    11    10    1
     2    11    12    1
     3    12    13   ar
     4    13    14   ar
     5    14    15   ar
     6    15    16   ar
     7    16    17   ar
     8    17    18    1
     9    11     1    1
    10     1     2   ar
    11     2    19    1
    12    19    20    1
    13    20    21    1
    14    21    22    1
    15    21    23    1
    16     2     3   ar
    17     3     4   ar
    18     4     5   ar
    19     5     6   ar
    20     6     7   ar
    21     7     8   ar
    22     8     9   ar
    23    17    12   ar
    24     9     1   ar
    25     9     4   ar
@<TRIPOS>MOLECULE
*****
 23 25 0 0 0
SMALL
GASTEIGER

@<TRIPOS>ATOM
      1 C          -9.4240  -18.0031   23.0513 C.ar    1  UNL1       -0.0143
      2 C          -8.6252  -18.8435   22.0997 C.ar    1  UNL1        0.0051
      3 S          -9.2322  -18.7026   20.7352 S.2     1  UNL1       -0.0915
      4 C         -10.4061  -17.7751   20.8436 C.ar    1  UNL1        0.0288
      5 C         -11.3824  -17.2683   19.8238 C.ar    1  UNL1        0.0065
      6 C         -12.4772  -16.3293   20.2355 C.ar    1  UNL1        0.0005
      7 C         -12.5958  -15.8970   21.6669 C.ar    1  UNL1        0.0000
      8 C         -11.6195  -16.4037   22.6867 C.ar    1  UNL1        0.0002
      9 C         -10.5247  -17.3428   22.2751 C.ar    1  UNL1        0.0025
     10 C          -9.9506  -18.6637   25.5083 C.3     1  UNL1        0.0111
     11 C          -9.1673  -17.8499   24.5212 C.3     1  UNL1        0.0649
     12 C          -8.1273  -16.8829   25.0042 C.ar    1  UNL1        0.0900
     13 N          -7.1584  -16.2764   24.0328 N.ar    1  UNL1       -0.2456
     14 C          -6.1184  -15.3093   24.5157 C.ar    1  UNL1        0.0986
     15 C          -6.0472  -14.9488   25.9701 C.ar    1  UNL1        0.0230
     16 C          -7.0161  -15.5553   26.9414 C.ar    1  UNL1        0.0325
     17 C          -8.0561  -16.5223   26.4585 C.ar    1  UNL1        0.1539
     18 F          -9.0249  -17.1287   27.4298 F       1  UNL1       -0.2029
     19 C          -7.4294  -19.6782   22.4508 C.3     1  UNL1        0.0499
     20 C          -6.0549  -19.2203   22.0624 C.3     1  UNL1        0.0774
     21 N          -5.3672  -19.8321   20.8781 N.3     1  UNL1       -0.2700
     22 C          -4.1483  -19.1779   20.2980 C.3     1  UNL1        0.0897
     23 C          -5.8983  -21.0981   20.2738 C.3     1  UNL1        0.0897
@<TRIPOS>BOND
     1    11    10    1
     2    11    12    1
     3    12    13   ar
     4    13    14   ar
     5    14    15   ar
     6    15    16   ar
     7    16    17   ar
     8    17    18    1
     9    11     1    1
    10     1     2   ar
    11     2    19    1
    12    19    20    1
    13    20    21    1
    14    21    22    1
    15    21    23    1
    16     2     3   ar
    17     3     4   ar
    18     4     5   ar
    19     5     6   ar
    20     6     7   ar
    21     7     8   ar
    22     8     9   ar
    23    17    12   ar
    24     9     1   ar
    25     9     4   ar
@<TRIPOS>MOLECULE
*****
 23 25 0 0 0
SMALL
GASTEIGER

@<TRIPOS>ATOM
      1 C          -8.5833  -17.4717   23.8521 C.ar    1  UNL1       -0.0143
      2 C          -9.6724  -18.0881   24.6790 C.ar    1  UNL1        0.0051
      3 S          -9.5060  -17.6140   26.0923 S.2     1  UNL1       -0.0915
      4 C          -8.3141  -16.7045   26.1389 C.ar    1  UNL1        0.0288
      5 C          -7.6743  -15.9451   27.2631 C.ar    1  UNL1        0.0065
      6 C          -6.4643  -15.0978   27.0028 C.ar    1  UNL1        0.0005
      7 C          -5.8940  -15.0098   25.6182 C.ar    1  UNL1        0.0000
      8 C          -6.5338  -15.7692   24.4940 C.ar    1  UNL1        0.0002
      9 C          -7.7438  -16.6166   24.7543 C.ar    1  UNL1        0.0025
     10 C          -7.0928  -18.2831   21.8848 C.3     1  UNL1        0.0111
     11 C          -8.3710  -17.6747   22.3811 C.3     1  UNL1        0.0649
     12 C          -9.4366  -17.2694   21.4065 C.ar    1  UNL1        0.0900
     13 N          -9.7696  -15.8187   21.2195 N.ar    1  UNL1       -0.2456
     14 C         -10.8353  -15.4134   20.2449 C.ar    1  UNL1        0.0986
     15 C         -11.5680  -16.4586   19.4571 C.ar    1  UNL1        0.0230
     16 C         -11.2351  -17.9092   19.6440 C.ar    1  UNL1        0.0325
     17 C         -10.1694  -18.3146   20.6187 C.ar    1  UNL1        0.1539
     18 F          -9.8365  -19.7652   20.8055 F       1  UNL1       -0.2029
     19 C         -10.7404  -19.0158   24.1802 C.3     1  UNL1        0.0499
     20 C         -12.1169  -18.9629   24.7738 C.3     1  UNL1        0.0774
     21 N         -13.2014  -18.1885   24.0852 N.3     1  UNL1       -0.2700
     22 C         -12.8677  -17.3040   22.9206 C.3     1  UNL1        0.0897
     23 C         -14.6196  -18.2987   24.5611 C.3     1  UNL1        0.0897
@<TRIPOS>BOND
     1    11    10    1
     2    11    12    1
     3    12    13   ar
     4    13    14   ar
     5    14    15   ar
     6    15    16   ar
     7    16    17   ar
     8    17    18    1
     9    11     1    1
    10     1     2   ar
    11     2    19    1
    12    19    20    1
    13    20    21    1
    14    21    22    1
    15    21    23    1
    16     2     3   ar
    17     3     4   ar
    18     4     5   ar
    19     5     6   ar
    20     6     7   ar
    21     7     8   ar
    22     8     9   ar
    23    17    12   ar
    24     9     1   ar
    25     9     4   ar
@<TRIPOS>MOLECULE
*****
 23 25 0 0 0
SMALL
GASTEIGER

@<TRIPOS>ATOM
      1 C          -6.1901  -18.4923   21.9414 C.ar    1  UNL1       -0.0143
      2 C          -6.3870  -17.3539   22.8982 C.ar    1  UNL1        0.0051
      3 S          -5.0374  -16.9270   23.3945 S.2     1  UNL1       -0.0915
      4 C          -4.0065  -17.8014   22.7445 C.ar    1  UNL1        0.0288
      5 C          -2.5111  -17.8417   22.8543 C.ar    1  UNL1        0.0065
      6 C          -1.7281  -18.8495   22.0661 C.ar    1  UNL1        0.0005
      7 C          -2.4405  -19.8169   21.1680 C.ar    1  UNL1        0.0000
      8 C          -3.9359  -19.7766   21.0582 C.ar    1  UNL1        0.0002
      9 C          -4.7189  -18.7688   21.8464 C.ar    1  UNL1        0.0025
     10 C          -7.0873  -19.5943   19.7664 C.3     1  UNL1        0.0111
     11 C          -7.2741  -19.2254   21.2083 C.3     1  UNL1        0.0649
     12 C          -8.5449  -19.5896   21.9170 C.ar    1  UNL1        0.0900
     13 N          -8.4967  -20.1130   23.3219 N.ar    1  UNL1       -0.2456
     14 C          -9.7675  -20.4773   24.0307 C.ar    1  UNL1        0.0986
     15 C         -11.0866  -20.3181   23.3345 C.ar    1  UNL1        0.0230
     16 C         -11.1349  -19.7947   21.9297 C.ar    1  UNL1        0.0325
     17 C          -9.8641  -19.4305   21.2209 C.ar    1  UNL1        0.1539
     18 F          -9.9124  -18.9071   19.8160 F       1  UNL1       -0.2029
     19 C          -7.7024  -16.7488   23.2898 C.3     1  UNL1        0.0499
     20 C          -8.4851  -15.9461   22.2934 C.3     1  UNL1        0.0774
     21 N          -9.9735  -16.1086   22.2025 N.3     1  UNL1       -0.2700
     22 C         -10.6794  -15.8408   20.9063 C.3     1  UNL1        0.0897
     23 C         -10.7559  -16.5388   23.4077 C.3     1  UNL1        0.0897
@<TRIPOS>BOND
     1    11    10    1
     2    11    12    1
     3    12    13   ar
     4    13    14   ar
     5    14    15   ar
     6    15    16   ar
     7    16    17   ar
     8    17    18    1
     9    11     1    1
    10     1     2   ar
    11     2    19    1
    12    19    20    1
    13    20    21    1
    14    21    22    1
    15    21    23    1
    16     2     3   ar
    17     3     4   ar
    18     4     5   ar
    19     5     6   ar
    20     6     7   ar
    21     7     8   ar
    22     8     9   ar
    23    17    12   ar
    24     9     1   ar
    25     9     4   ar
@<TRIPOS>MOLECULE
*****
 23 25 0 0 0
SMALL
GASTEIGER

@<TRIPOS>ATOM
      1 C         -13.4248   -4.7891   19.3653 C.ar    1  UNL1       -0.0143
      2 C         -14.4115   -5.8968   19.1434 C.ar    1  UNL1        0.0051
      3 S         -13.6552   -7.1036   18.6726 S.2     1  UNL1       -0.0915
      4 C         -12.2012   -6.7417   18.6036 C.ar    1  UNL1        0.0288
      5 C         -10.9885   -7.5299   18.2062 C.ar    1  UNL1        0.0065
      6 C          -9.6333   -6.8876   18.2370 C.ar    1  UNL1        0.0005
      7 C          -9.4909   -5.4571   18.6651 C.ar    1  UNL1        0.0000
      8 C         -10.7036   -4.6689   19.0625 C.ar    1  UNL1        0.0002
      9 C         -12.0588   -5.3112   19.0317 C.ar    1  UNL1        0.0025
     10 C         -13.9643   -3.1395   21.2988 C.3     1  UNL1        0.0111
     11 C         -13.7475   -3.4025   19.8380 C.3     1  UNL1        0.0649
     12 C         -13.8535   -2.2790   18.8499 C.ar    1  UNL1        0.0900
     13 N         -15.1018   -2.1119   18.0352 N.ar    1  UNL1       -0.2456
     14 C         -15.2078   -0.9883   17.0471 C.ar    1  UNL1        0.0986
     15 C         -14.0654   -0.0318   16.8737 C.ar    1  UNL1        0.0230
     16 C         -12.8171   -0.1988   17.6884 C.ar    1  UNL1        0.0325
     17 C         -12.7111   -1.3224   18.6765 C.ar    1  UNL1        0.1539
     18 F         -11.4628   -1.4894   19.4911 F       1  UNL1       -0.2029
     19 C         -15.8941   -5.8126   19.3550 C.3     1  UNL1        0.0499
     20 C         -16.7932   -6.8749   18.7955 C.3     1  UNL1        0.0774
     21 N         -17.3855   -7.9111   19.7040 N.3     1  UNL1       -0.2700
     22 C         -18.8017   -7.7713   20.1784 C.3     1  UNL1        0.0897
     23 C         -16.5618   -9.0871   20.1381 C.3     1  UNL1        0.0897
@<TRIPOS>BOND
     1    11    10    1
     2    11    12    1
     3    12    13   ar
     4    13    14   ar
     5    14    15   ar
     6    15    16   ar
     7    16    17   ar
     8    17    18    1
     9    11     1    1
    10     1     2   ar
    11     2    19    1
    12    19    20    1
    13    20    21    1
    14    21    22    1
    15    21    23    1
    16     2     3   ar
    17     3     4   ar
    18     4     5   ar
    19     5     6   ar
    20     6     7   ar
    21     7     8   ar
    22     8     9   ar
    23    17    12   ar
    24     9     1   ar
    25     9     4   ar
