@<TRIPOS>MOLECULE
*****
 28 31 0 0 0
SMALL
GASTEIGER

@<TRIPOS>ATOM
      1 C           6.4375   -2.1825   32.0144 C.ar    1  UNL1        0.0504
      2 C           6.8057   -3.6156   32.2608 C.ar    1  UNL1        0.0160
      3 C           7.0702   -4.5316   31.1028 C.ar    1  UNL1        0.0200
      4 C           6.9666   -4.0146   29.6986 C.ar    1  UNL1        0.1104
      5 C           6.5984   -2.5815   29.4522 C.ar    1  UNL1        0.0200
      6 C           6.3339   -1.6655   30.6102 C.ar    1  UNL1        0.0160
      7 O           3.9047   -2.4596   33.5981 O.2     1  UNL1       -0.2748
      8 C           4.9065   -1.4049   33.9642 C.2     1  UNL1        0.2260
      9 N           6.1729   -1.2664   33.1724 N.am    1  UNL1       -0.2839
     10 H           6.8305   -0.5742   33.4127 H       1  UNL1        0.1549
     11 C           4.6420   -0.4888   35.1222 C.3     1  UNL1        0.0812
     12 C           4.8239   -0.1384   36.5692 C.3     1  UNL1        0.0143
     13 C           4.0019    0.7474   35.6807 C.3     1  UNL1        0.0330
     14 C           3.1578    1.9726   35.4901 C.ar    1  UNL1       -0.0029
     15 C           2.8946    2.8896   36.6476 C.ar    1  UNL1       -0.0011
     16 C           2.0505    4.1148   36.4570 C.ar    1  UNL1        0.0204
     17 C           1.4695    4.4230   35.1088 C.ar    1  UNL1        0.0989
     18 N           1.7327    3.5060   33.9513 N.ar    1  UNL1       -0.2426
     19 C           2.5768    2.2808   34.1420 C.ar    1  UNL1        0.0946
     20 S           7.2311   -4.9307   28.5406 S.O2    1  UNL1        0.0274
     21 O           7.1366   -3.7673   27.5986 O.2     1  UNL1       -0.1642
     22 O           7.3257   -6.0942   29.4826 O.2     1  UNL1       -0.1642
     23 C           7.4957   -5.8468   27.3827 C.ar    1  UNL1        0.1103
     24 C           7.3863   -5.3312   25.9782 C.ar    1  UNL1        0.0187
     25 C           7.6509   -6.2472   24.8203 C.ar    1  UNL1        0.0013
     26 C           8.0248   -7.6788   25.0667 C.ar    1  UNL1        0.0001
     27 C           8.1341   -8.1944   26.4710 C.ar    1  UNL1        0.0013
     28 C           7.8696   -7.2784   27.6291 C.ar    1  UNL1        0.0187
@<TRIPOS>BOND
     1     7     8    2
     2     8     9   am
     3     9     1    1
     4     1     2   ar
     5     2     3   ar
     6     3     4   ar
     7     4    20    1
     8    20    21    2
     9    20    22    2
    10    20    23    1
    11    23    24   ar
    12    24    25   ar
    13    25    26   ar
    14    26    27   ar
    15    27    28   ar
    16     4     5   ar
    17     5     6   ar
    18    11     8    1
    19    11    12    1
    20    12    13    1
    21    13    14    1
    22    14    15   ar
    23    15    16   ar
    24    16    17   ar
    25    17    18   ar
    26    18    19   ar
    27     6     1   ar
    28    13    11    1
    29    19    14   ar
    30    28    23   ar
    31     9    10    1
@<TRIPOS>MOLECULE
*****
 28 31 0 0 0
SMALL
GASTEIGER

@<TRIPOS>ATOM
      1 C           5.9853   -2.6239   21.4192 C.ar    1  UNL1        0.0504
      2 C           7.2150   -3.4606   21.2251 C.ar    1  UNL1        0.0160
      3 C           7.6815   -4.3734   22.3201 C.ar    1  UNL1        0.0200
      4 C           6.9184   -4.4496   23.6092 C.ar    1  UNL1        0.1104
      5 C           5.6886   -3.6130   23.8033 C.ar    1  UNL1        0.0200
      6 C           5.2221   -2.7001   22.7083 C.ar    1  UNL1        0.0160
      7 O           3.6925   -3.4369   19.6635 O.2     1  UNL1       -0.2748
      8 C           4.3723   -2.1175   19.4464 C.2     1  UNL1        0.2260
      9 N           5.5186   -1.7110   20.3242 N.am    1  UNL1       -0.2839
     10 H           5.9648   -0.8451   20.1817 H       1  UNL1        0.1549
     11 C           3.9057   -1.2046   18.3514 C.3     1  UNL1        0.0812
     12 C           3.8038   -0.8724   16.8922 C.3     1  UNL1        0.0143
     13 C           3.1993    0.0443   17.9141 C.3     1  UNL1        0.0330
     14 C           2.4425    1.2946   18.2515 C.ar    1  UNL1       -0.0029
     15 C           3.1734    2.5956   18.4043 C.ar    1  UNL1       -0.0011
     16 C           2.4166    3.8459   18.7418 C.ar    1  UNL1        0.0204
     17 C           0.9289    3.7953   18.9265 C.ar    1  UNL1        0.0989
     18 N           0.1980    2.4944   18.7738 N.ar    1  UNL1       -0.2426
     19 C           0.9549    1.2440   18.4363 C.ar    1  UNL1        0.0946
     20 S           7.3850   -5.3625   24.7041 S.O2    1  UNL1        0.0274
     21 O           7.8728   -6.3428   23.6789 O.2     1  UNL1       -0.1642
     22 O           6.8972   -4.3823   25.7293 O.2     1  UNL1       -0.1642
     23 C           7.8516   -6.2754   25.7990 C.ar    1  UNL1        0.1103
     24 C           8.4682   -7.6000   25.4594 C.ar    1  UNL1        0.0187
     25 C           8.9348   -8.5129   26.5543 C.ar    1  UNL1        0.0013
     26 C           8.7849   -8.1013   27.9889 C.ar    1  UNL1        0.0001
     27 C           8.1683   -6.7768   28.3286 C.ar    1  UNL1        0.0013
     28 C           7.7017   -5.8638   27.2336 C.ar    1  UNL1        0.0187
@<TRIPOS>BOND
     1     7     8    2
     2     8     9   am
     3     9     1    1
     4     1     2   ar
     5     2     3   ar
     6     3     4   ar
     7     4    20    1
     8    20    21    2
     9    20    22    2
    10    20    23    1
    11    23    24   ar
    12    24    25   ar
    13    25    26   ar
    14    26    27   ar
    15    27    28   ar
    16     4     5   ar
    17     5     6   ar
    18    11     8    1
    19    11    12    1
    20    12    13    1
    21    13    14    1
    22    14    15   ar
    23    15    16   ar
    24    16    17   ar
    25    17    18   ar
    26    18    19   ar
    27     6     1   ar
    28    13    11    1
    29    19    14   ar
    30    28    23   ar
    31     9    10    1
@<TRIPOS>MOLECULE
*****
 28 31 0 0 0
SMALL
GASTEIGER

@<TRIPOS>ATOM
      1 C           3.7901   -1.2263   27.4844 C.ar    1  UNL1        0.0504
      2 C           2.7914   -0.7188   28.4819 C.ar    1  UNL1        0.0160
      3 C           3.1829   -0.5608   29.9212 C.ar    1  UNL1        0.0200
      4 C           4.5731   -0.9104   30.3631 C.ar    1  UNL1        0.1104
      5 C           5.5718   -1.4179   29.3656 C.ar    1  UNL1        0.0200
      6 C           5.1803   -1.5758   27.9263 C.ar    1  UNL1        0.0160
      7 O           3.7441    1.1635   25.6714 O.2     1  UNL1       -0.2748
      8 C           3.3757   -0.1894   25.1385 C.2     1  UNL1        0.2260
      9 N           3.3987   -1.3842   26.0450 N.am    1  UNL1       -0.2839
     10 H           3.1568   -2.2722   25.6952 H       1  UNL1        0.1549
     11 C           2.9842   -0.3473   23.6991 C.3     1  UNL1        0.0812
     12 C           2.1681    0.0907   22.5192 C.3     1  UNL1        0.0143
     13 C           3.1223   -1.0589   22.3859 C.3     1  UNL1        0.0330
     14 C           3.7530   -2.1335   21.5507 C.ar    1  UNL1       -0.0029
     15 C           3.4644   -2.2072   20.0806 C.ar    1  UNL1       -0.0011
     16 C           4.0951   -3.2817   19.2454 C.ar    1  UNL1        0.0204
     17 C           5.0144   -4.2827   19.8804 C.ar    1  UNL1        0.0989
     18 N           5.3030   -4.2090   21.3505 N.ar    1  UNL1       -0.2426
     19 C           4.6722   -3.1343   22.1857 C.ar    1  UNL1        0.0946
     20 S           4.9645   -0.7524   31.8025 S.O2    1  UNL1        0.0274
     21 O           6.2849   -0.1793   31.3805 O.2     1  UNL1       -0.1642
     22 O           3.6442   -1.3255   32.2245 O.2     1  UNL1       -0.1642
     23 C           5.3560   -0.5944   33.2419 C.ar    1  UNL1        0.1103
     24 C           6.7835   -0.3095   33.6039 C.ar    1  UNL1        0.0187
     25 C           7.1750   -0.1516   35.0433 C.ar    1  UNL1        0.0013
     26 C           6.1390   -0.2785   36.1206 C.ar    1  UNL1        0.0001
     27 C           4.7116   -0.5633   35.7586 C.ar    1  UNL1        0.0013
     28 C           4.3200   -0.7213   34.3192 C.ar    1  UNL1        0.0187
@<TRIPOS>BOND
     1     7     8    2
     2     8     9   am
     3     9     1    1
     4     1     2   ar
     5     2     3   ar
     6     3     4   ar
     7     4    20    1
     8    20    21    2
     9    20    22    2
    10    20    23    1
    11    23    24   ar
    12    24    25   ar
    13    25    26   ar
    14    26    27   ar
    15    27    28   ar
    16     4     5   ar
    17     5     6   ar
    18    11     8    1
    19    11    12    1
    20    12    13    1
    21    13    14    1
    22    14    15   ar
    23    15    16   ar
    24    16    17   ar
    25    17    18   ar
    26    18    19   ar
    27     6     1   ar
    28    13    11    1
    29    19    14   ar
    30    28    23   ar
    31     9    10    1
@<TRIPOS>MOLECULE
*****
 28 31 0 0 0
SMALL
GASTEIGER

@<TRIPOS>ATOM
      1 C           2.7651    0.4275   27.6919 C.ar    1  UNL1        0.0504
      2 C           2.1053   -0.5845   28.5810 C.ar    1  UNL1        0.0160
      3 C           2.3936   -0.5906   30.0530 C.ar    1  UNL1        0.0200
      4 C           3.3415    0.4152   30.6359 C.ar    1  UNL1        0.1104
      5 C           4.0012    1.4272   29.7468 C.ar    1  UNL1        0.0200
      6 C           3.7130    1.4334   28.2748 C.ar    1  UNL1        0.0160
      7 O           4.3754   -1.2989   25.8408 O.2     1  UNL1       -0.2748
      8 C           3.2820   -0.4294   25.2943 C.2     1  UNL1        0.2260
      9 N           2.4769    0.4337   26.2198 N.am    1  UNL1       -0.2839
     10 H           1.7592    1.0044   25.8611 H       1  UNL1        0.1549
     11 C           2.9938   -0.4232   23.8222 C.3     1  UNL1        0.0812
     12 C           2.3315    0.2028   22.6308 C.3     1  UNL1        0.0143
     13 C           3.1569   -1.0385   22.4640 C.3     1  UNL1        0.0330
     14 C           3.7276   -2.1104   21.5835 C.ar    1  UNL1       -0.0029
     15 C           3.3947   -2.1359   20.1211 C.ar    1  UNL1       -0.0011
     16 C           3.9654   -3.2078   19.2406 C.ar    1  UNL1        0.0204
     17 C           4.8690   -4.2542   19.8225 C.ar    1  UNL1        0.0989
     18 N           5.2019   -4.2287   21.2849 N.ar    1  UNL1       -0.2426
     19 C           4.6312   -3.1567   22.1654 C.ar    1  UNL1        0.0946
     20 S           3.6297    0.4090   32.1080 S.O2    1  UNL1        0.0274
     21 O           3.3230   -1.0583   32.1618 O.2     1  UNL1       -0.1642
     22 O           3.9364    1.8763   32.0542 O.2     1  UNL1       -0.1642
     23 C           3.9179    0.4027   33.5800 C.ar    1  UNL1        0.1103
     24 C           3.4277    1.5259   34.4450 C.ar    1  UNL1        0.0187
     25 C           3.7159    1.5197   35.9171 C.ar    1  UNL1        0.0013
     26 C           4.4942    0.3902   36.5241 C.ar    1  UNL1        0.0001
     27 C           4.9844   -0.7330   35.6592 C.ar    1  UNL1        0.0013
     28 C           4.6962   -0.7267   34.1871 C.ar    1  UNL1        0.0187
@<TRIPOS>BOND
     1     7     8    2
     2     8     9   am
     3     9     1    1
     4     1     2   ar
     5     2     3   ar
     6     3     4   ar
     7     4    20    1
     8    20    21    2
     9    20    22    2
    10    20    23    1
    11    23    24   ar
    12    24    25   ar
    13    25    26   ar
    14    26    27   ar
    15    27    28   ar
    16     4     5   ar
    17     5     6   ar
    18    11     8    1
    19    11    12    1
    20    12    13    1
    21    13    14    1
    22    14    15   ar
    23    15    16   ar
    24    16    17   ar
    25    17    18   ar
    26    18    19   ar
    27     6     1   ar
    28    13    11    1
    29    19    14   ar
    30    28    23   ar
    31     9    10    1
@<TRIPOS>MOLECULE
*****
 28 31 0 0 0
SMALL
GASTEIGER

@<TRIPOS>ATOM
      1 C           6.5282   -1.0422   32.4515 C.ar    1  UNL1        0.0504
      2 C           7.4163   -2.1883   32.8356 C.ar    1  UNL1        0.0160
      3 C           7.6181   -3.3317   31.8860 C.ar    1  UNL1        0.0200
      4 C           6.9317   -3.3290   30.5522 C.ar    1  UNL1        0.1104
      5 C           6.0436   -2.1829   30.1681 C.ar    1  UNL1        0.0200
      6 C           5.8418   -1.0395   31.1177 C.ar    1  UNL1        0.0160
      7 O           4.4341   -1.2218   34.5922 O.2     1  UNL1       -0.2748
      8 C           5.2793    0.0115   34.4715 C.2     1  UNL1        0.2260
      9 N           6.3263    0.1013   33.4011 N.am    1  UNL1       -0.2839
     10 H           6.8811    0.9108   33.3219 H       1  UNL1        0.1549
     11 C           5.0775    1.1550   35.4211 C.3     1  UNL1        0.0812
     12 C           5.5332    2.4648   35.9927 C.3     1  UNL1        0.0143
     13 C           4.2722    1.8258   36.4942 C.3     1  UNL1        0.0330
     14 C           3.0793    1.8441   37.4033 C.ar    1  UNL1       -0.0029
     15 C           2.8305    0.6972   38.3374 C.ar    1  UNL1       -0.0011
     16 C           1.6375    0.7155   39.2465 C.ar    1  UNL1        0.0204
     17 C           0.6933    1.8808   39.2215 C.ar    1  UNL1        0.0989
     18 N           0.9421    3.0278   38.2873 N.ar    1  UNL1       -0.2426
     19 C           2.1351    3.0094   37.3782 C.ar    1  UNL1        0.0946
     20 S           7.1335   -4.4725   29.6026 S.O2    1  UNL1        0.0274
     21 O           7.0003   -3.5320   28.4418 O.2     1  UNL1       -0.1642
     22 O           7.2667   -5.4131   30.7634 O.2     1  UNL1       -0.1642
     23 C           7.3353   -5.6159   28.6530 C.ar    1  UNL1        0.1103
     24 C           8.2349   -6.7552   29.0312 C.ar    1  UNL1        0.0187
     25 C           8.4367   -7.8986   28.0815 C.ar    1  UNL1        0.0013
     26 C           7.7390   -7.9029   26.7537 C.ar    1  UNL1        0.0001
     27 C           6.8395   -6.7637   26.3755 C.ar    1  UNL1        0.0013
     28 C           6.6376   -5.6202   27.3251 C.ar    1  UNL1        0.0187
@<TRIPOS>BOND
     1     7     8    2
     2     8     9   am
     3     9     1    1
     4     1     2   ar
     5     2     3   ar
     6     3     4   ar
     7     4    20    1
     8    20    21    2
     9    20    22    2
    10    20    23    1
    11    23    24   ar
    12    24    25   ar
    13    25    26   ar
    14    26    27   ar
    15    27    28   ar
    16     4     5   ar
    17     5     6   ar
    18    11     8    1
    19    11    12    1
    20    12    13    1
    21    13    14    1
    22    14    15   ar
    23    15    16   ar
    24    16    17   ar
    25    17    18   ar
    26    18    19   ar
    27     6     1   ar
    28    13    11    1
    29    19    14   ar
    30    28    23   ar
    31     9    10    1
@<TRIPOS>MOLECULE
*****
 28 31 0 0 0
SMALL
GASTEIGER

@<TRIPOS>ATOM
      1 C           4.0537   -2.1918   20.9509 C.ar    1  UNL1        0.0504
      2 C           3.3185   -1.4474   22.0257 C.ar    1  UNL1        0.0160
      3 C           2.3336   -0.3776   21.6577 C.ar    1  UNL1        0.0200
      4 C           2.0839   -0.0522   20.2149 C.ar    1  UNL1        0.1104
      5 C           2.8191   -0.7966   19.1400 C.ar    1  UNL1        0.0200
      6 C           3.8040   -1.8664   19.5080 C.ar    1  UNL1        0.0160
      7 O           6.9641   -1.5196   21.2301 O.2     1  UNL1       -0.2748
      8 C           6.4938   -2.9255   21.4585 C.2     1  UNL1        0.2260
      9 N           5.0387   -3.2617   21.3188 N.am    1  UNL1       -0.2839
     10 H           4.7300   -4.1844   21.4687 H       1  UNL1        0.1549
     11 C           7.4788   -3.9954   21.8264 C.3     1  UNL1        0.0812
     12 C           8.7025   -4.8008   21.5045 C.3     1  UNL1        0.0143
     13 C           7.9610   -5.0429   22.7857 C.3     1  UNL1        0.0330
     14 C           7.8112   -5.7875   24.0792 C.ar    1  UNL1       -0.0029
     15 C           8.3634   -7.1756   24.2138 C.ar    1  UNL1       -0.0011
     16 C           8.2137   -7.9202   25.5073 C.ar    1  UNL1        0.0204
     17 C           7.5117   -7.2766   26.6662 C.ar    1  UNL1        0.0989
     18 N           6.9595   -5.8885   26.5316 N.ar    1  UNL1       -0.2426
     19 C           7.1093   -5.1439   25.2380 C.ar    1  UNL1        0.0946
     20 S           1.0989    1.0176   19.8469 S.O2    1  UNL1        0.0274
     21 O           0.1071    0.4357   20.8100 O.2     1  UNL1       -0.1642
     22 O           2.0908    1.5996   18.8838 O.2     1  UNL1       -0.1642
     23 C           0.1140    2.0874   19.4790 C.ar    1  UNL1        0.1103
     24 C          -0.8847    2.5674   20.4902 C.ar    1  UNL1        0.0187
     25 C          -1.8696    3.6372   20.1222 C.ar    1  UNL1        0.0013
     26 C          -1.8560    4.2270   18.7432 C.ar    1  UNL1        0.0001
     27 C          -0.8574    3.7471   17.7320 C.ar    1  UNL1        0.0013
     28 C           0.1276    2.6773   18.0999 C.ar    1  UNL1        0.0187
@<TRIPOS>BOND
     1     7     8    2
     2     8     9   am
     3     9     1    1
     4     1     2   ar
     5     2     3   ar
     6     3     4   ar
     7     4    20    1
     8    20    21    2
     9    20    22    2
    10    20    23    1
    11    23    24   ar
    12    24    25   ar
    13    25    26   ar
    14    26    27   ar
    15    27    28   ar
    16     4     5   ar
    17     5     6   ar
    18    11     8    1
    19    11    12    1
    20    12    13    1
    21    13    14    1
    22    14    15   ar
    23    15    16   ar
    24    16    17   ar
    25    17    18   ar
    26    18    19   ar
    27     6     1   ar
    28    13    11    1
    29    19    14   ar
    30    28    23   ar
    31     9    10    1
@<TRIPOS>MOLECULE
*****
 28 31 0 0 0
SMALL
GASTEIGER

@<TRIPOS>ATOM
      1 C           5.5120   -2.5500   32.0193 C.ar    1  UNL1        0.0504
      2 C           4.8059   -2.6237   33.3407 C.ar    1  UNL1        0.0160
      3 C           4.1138   -1.4116   33.8898 C.ar    1  UNL1        0.0200
      4 C           4.1277   -0.1257   33.1176 C.ar    1  UNL1        0.1104
      5 C           4.8339   -0.0519   31.7963 C.ar    1  UNL1        0.0200
      6 C           5.5260   -1.2641   31.2472 C.ar    1  UNL1        0.0160
      7 O           8.4470   -2.9470   32.4975 O.2     1  UNL1       -0.2748
      8 C           7.6716   -3.9606   31.7092 C.2     1  UNL1        0.2260
      9 N           6.2042   -3.7622   31.4701 N.am    1  UNL1       -0.2839
     10 H           5.6953   -4.4275   30.9528 H       1  UNL1        0.1549
     11 C           8.3638   -5.1728   31.1600 C.3     1  UNL1        0.0812
     12 C           9.3779   -6.2682   31.3077 C.3     1  UNL1        0.0143
     13 C           8.5486   -6.1770   30.0611 C.3     1  UNL1        0.0330
     14 C           8.1766   -6.7040   28.7070 C.ar    1  UNL1       -0.0029
     15 C           8.7923   -7.9751   28.2017 C.ar    1  UNL1       -0.0011
     16 C           8.4202   -8.5021   26.8476 C.ar    1  UNL1        0.0204
     17 C           7.4323   -7.7581   25.9986 C.ar    1  UNL1        0.0989
     18 N           6.8166   -6.4871   26.5039 N.ar    1  UNL1       -0.2426
     19 C           7.1887   -5.9600   27.8581 C.ar    1  UNL1        0.0946
     20 S           3.4356    1.0865   33.6668 S.O2    1  UNL1        0.0274
     21 O           2.4611    1.0463   32.5272 O.2     1  UNL1       -0.1642
     22 O           4.4100    1.1267   34.8064 O.2     1  UNL1       -0.1642
     23 C           2.7434    2.2986   34.2160 C.ar    1  UNL1        0.1103
     24 C           2.8967    2.6582   35.6642 C.ar    1  UNL1        0.0187
     25 C           2.2045    3.8703   36.2133 C.ar    1  UNL1        0.0013
     26 C           1.3590    4.7229   35.3143 C.ar    1  UNL1        0.0001
     27 C           1.2057    4.3634   33.8661 C.ar    1  UNL1        0.0013
     28 C           1.8979    3.1512   33.3169 C.ar    1  UNL1        0.0187
@<TRIPOS>BOND
     1     7     8    2
     2     8     9   am
     3     9     1    1
     4     1     2   ar
     5     2     3   ar
     6     3     4   ar
     7     4    20    1
     8    20    21    2
     9    20    22    2
    10    20    23    1
    11    23    24   ar
    12    24    25   ar
    13    25    26   ar
    14    26    27   ar
    15    27    28   ar
    16     4     5   ar
    17     5     6   ar
    18    11     8    1
    19    11    12    1
    20    12    13    1
    21    13    14    1
    22    14    15   ar
    23    15    16   ar
    24    16    17   ar
    25    17    18   ar
    26    18    19   ar
    27     6     1   ar
    28    13    11    1
    29    19    14   ar
    30    28    23   ar
    31     9    10    1
@<TRIPOS>MOLECULE
*****
 28 31 0 0 0
SMALL
GASTEIGER

@<TRIPOS>ATOM
      1 C          -0.8771    2.9140   20.6969 C.ar    1  UNL1        0.0504
      2 C          -2.1567    3.1586   19.9534 C.ar    1  UNL1        0.0160
      3 C          -3.3720    3.6387   20.6899 C.ar    1  UNL1        0.0200
      4 C          -3.3078    3.8742   22.1699 C.ar    1  UNL1        0.1104
      5 C          -2.0282    3.6296   22.9134 C.ar    1  UNL1        0.0200
      6 C          -0.8129    3.1495   22.1769 C.ar    1  UNL1        0.0160
      7 O          -0.2170   -0.0119   20.6385 O.2     1  UNL1       -0.2748
      8 C           0.6683    0.9709   19.9313 C.2     1  UNL1        0.2260
      9 N           0.3383    2.4339   19.9605 N.am    1  UNL1       -0.2839
     10 H           0.9193    3.0789   19.4963 H       1  UNL1        0.1549
     11 C           1.8837    0.4908   19.1948 C.3     1  UNL1        0.0812
     12 C           2.8207    0.5940   18.0280 C.3     1  UNL1        0.0143
     13 C           3.0518   -0.4439   19.0859 C.3     1  UNL1        0.0330
     14 C           3.8596   -1.5829   19.6339 C.ar    1  UNL1       -0.0029
     15 C           3.3650   -2.9915   19.4884 C.ar    1  UNL1       -0.0011
     16 C           4.1727   -4.1304   20.0363 C.ar    1  UNL1        0.0204
     17 C           5.4752   -3.8607   20.7299 C.ar    1  UNL1        0.0989
     18 N           5.9698   -2.4521   20.8755 N.ar    1  UNL1       -0.2426
     19 C           5.1619   -1.3132   20.3274 C.ar    1  UNL1        0.0946
     20 S          -4.5232    4.3543   22.9064 S.O2    1  UNL1        0.0274
     21 O          -5.2832    3.1491   22.4377 O.2     1  UNL1       -0.1642
     22 O          -3.7631    5.5595   23.3751 O.2     1  UNL1       -0.1642
     23 C          -5.7385    4.8344   23.6428 C.ar    1  UNL1        0.1103
     24 C          -5.5927    5.7982   24.7830 C.ar    1  UNL1        0.0187
     25 C          -6.8080    6.2783   25.5194 C.ar    1  UNL1        0.0013
     26 C          -8.1693    5.7946   25.1158 C.ar    1  UNL1        0.0001
     27 C          -8.3152    4.8308   23.9757 C.ar    1  UNL1        0.0013
     28 C          -7.0998    4.3507   23.2392 C.ar    1  UNL1        0.0187
@<TRIPOS>BOND
     1     7     8    2
     2     8     9   am
     3     9     1    1
     4     1     2   ar
     5     2     3   ar
     6     3     4   ar
     7     4    20    1
     8    20    21    2
     9    20    22    2
    10    20    23    1
    11    23    24   ar
    12    24    25   ar
    13    25    26   ar
    14    26    27   ar
    15    27    28   ar
    16     4     5   ar
    17     5     6   ar
    18    11     8    1
    19    11    12    1
    20    12    13    1
    21    13    14    1
    22    14    15   ar
    23    15    16   ar
    24    16    17   ar
    25    17    18   ar
    26    18    19   ar
    27     6     1   ar
    28    13    11    1
    29    19    14   ar
    30    28    23   ar
    31     9    10    1
@<TRIPOS>MOLECULE
*****
 28 31 0 0 0
SMALL
GASTEIGER

@<TRIPOS>ATOM
      1 C           1.9821    0.1475   18.8705 C.ar    1  UNL1        0.0504
      2 C           3.2344   -0.1386   18.0960 C.ar    1  UNL1        0.0160
      3 C           4.3055   -1.0016   18.6943 C.ar    1  UNL1        0.0200
      4 C           4.1244   -1.5784   20.0670 C.ar    1  UNL1        0.1104
      5 C           2.8721   -1.2923   20.8415 C.ar    1  UNL1        0.0200
      6 C           1.8010   -0.4294   20.2432 C.ar    1  UNL1        0.0160
      7 O           1.8651    3.0705   19.5353 O.2     1  UNL1       -0.2748
      8 C           0.8524    2.4720   18.6047 C.2     1  UNL1        0.2260
      9 N           0.9109    1.0105   18.2722 N.am    1  UNL1       -0.2839
     10 H           0.2463    0.6176   17.6614 H       1  UNL1        0.1549
     11 C          -0.2188    3.3349   18.0064 C.3     1  UNL1        0.0812
     12 C          -0.6536    4.3480   16.9893 C.3     1  UNL1        0.0143
     13 C          -1.6392    3.8165   17.9873 C.3     1  UNL1        0.0330
     14 C          -3.0284    3.7877   18.5525 C.ar    1  UNL1       -0.0029
     15 C          -4.2107    3.9612   17.6458 C.ar    1  UNL1       -0.0011
     16 C          -5.5998    3.9324   18.2110 C.ar    1  UNL1        0.0204
     17 C          -5.8067    3.7299   19.6829 C.ar    1  UNL1        0.0989
     18 N          -4.6243    3.5564   20.5895 N.ar    1  UNL1       -0.2426
     19 C          -3.2352    3.5853   20.0243 C.ar    1  UNL1        0.0946
     20 S           5.1956   -2.4414   20.6653 S.O2    1  UNL1        0.0274
     21 O           4.2818   -2.7865   21.8036 O.2     1  UNL1       -0.1642
     22 O           6.1094   -2.0964   19.5269 O.2     1  UNL1       -0.1642
     23 C           6.2667   -3.3044   21.2635 C.ar    1  UNL1        0.1103
     24 C           7.4746   -3.6707   20.4530 C.ar    1  UNL1        0.0187
     25 C           8.5458   -4.5336   21.0513 C.ar    1  UNL1        0.0013
     26 C           8.4091   -5.0303   22.4600 C.ar    1  UNL1        0.0001
     27 C           7.2012   -4.6641   23.2705 C.ar    1  UNL1        0.0013
     28 C           6.1300   -3.8011   22.6723 C.ar    1  UNL1        0.0187
@<TRIPOS>BOND
     1     7     8    2
     2     8     9   am
     3     9     1    1
     4     1     2   ar
     5     2     3   ar
     6     3     4   ar
     7     4    20    1
     8    20    21    2
     9    20    22    2
    10    20    23    1
    11    23    24   ar
    12    24    25   ar
    13    25    26   ar
    14    26    27   ar
    15    27    28   ar
    16     4     5   ar
    17     5     6   ar
    18    11     8    1
    19    11    12    1
    20    12    13    1
    21    13    14    1
    22    14    15   ar
    23    15    16   ar
    24    16    17   ar
    25    17    18   ar
    26    18    19   ar
    27     6     1   ar
    28    13    11    1
    29    19    14   ar
    30    28    23   ar
    31     9    10    1
