@<TRIPOS>MOLECULE
*****
 24 26 0 0 0
SMALL
GASTEIGER

@<TRIPOS>ATOM
      1 C          -7.5071  -16.5371   23.5660 C.2     1  UNL1        0.1045
      2 C          -8.7295  -16.6635   24.4260 C.2     1  UNL1        0.1076
      3 C          -8.1153  -15.7390   25.4350 C.2     1  UNL1        0.2500
      4 O          -8.5453  -15.1747   26.7566 O.2     1  UNL1       -0.2817
      5 C          -6.8929  -15.6126   24.5749 C.2     1  UNL1        0.2497
      6 O          -5.5941  -14.8694   24.6802 O.2     1  UNL1       -0.2817
      7 N          -7.0771  -17.1014   22.2443 N.pl3   1  UNL1       -0.3270
      8 H          -6.9941  -16.5113   21.4606 H       1  UNL1        0.1472
      9 C          -7.8481  -19.5790   22.3753 C.3     1  UNL1        0.0261
     10 C          -6.7736  -18.5649   22.1167 C.3     1  UNL1        0.0920
     11 C          -5.3955  -19.0141   21.7306 C.ar    1  UNL1       -0.0046
     12 C          -4.2112  -18.5860   22.5455 C.ar    1  UNL1       -0.0027
     13 C          -2.8332  -19.0353   22.1594 C.ar    1  UNL1       -0.0003
     14 C          -2.6394  -19.9127   20.9582 C.ar    1  UNL1       -0.0000
     15 C          -3.8237  -20.3407   20.1433 C.ar    1  UNL1       -0.0003
     16 C          -5.2017  -19.8915   20.5295 C.ar    1  UNL1       -0.0027
     17 N         -10.0282  -17.4067   24.3208 N.pl3   1  UNL1       -0.3088
     18 H         -10.3136  -18.0046   25.0490 H       1  UNL1        0.1523
     19 C         -10.8921  -17.2388   23.1060 C.ar    1  UNL1        0.0515
     20 C         -12.1538  -18.0379   22.9667 C.ar    1  UNL1        0.0353
     21 C         -13.0176  -17.8700   21.7520 C.ar    1  UNL1        0.1002
     22 N         -12.6197  -16.9030   20.6766 N.ar    1  UNL1       -0.2422
     23 C         -11.3580  -16.1039   20.8158 C.ar    1  UNL1        0.1002
     24 C         -10.4942  -16.2718   22.0306 C.ar    1  UNL1        0.0353
@<TRIPOS>BOND
     1    10     9    1
     2    10     7    1
     3     7     1    1
     4     1     2    2
     5     2    17    1
     6    17    19    1
     7    19    20   ar
     8    20    21   ar
     9    21    22   ar
    10    22    23   ar
    11    23    24   ar
    12     2     3    1
    13     3     4    2
    14     3     5    1
    15     5     6    2
    16    10    11    1
    17    11    12   ar
    18    12    13   ar
    19    13    14   ar
    20    14    15   ar
    21    15    16   ar
    22     5     1    1
    23    16    11   ar
    24    24    19   ar
    25     7     8    1
    26    17    18    1
@<TRIPOS>MOLECULE
*****
 24 26 0 0 0
SMALL
GASTEIGER

@<TRIPOS>ATOM
      1 C          -8.4326  -17.5627   21.5022 C.2     1  UNL1        0.1045
      2 C          -8.7864  -16.3717   22.3426 C.2     1  UNL1        0.1076
      3 C         -10.2275  -16.7875   22.3253 C.2     1  UNL1        0.2500
      4 O         -11.4967  -16.2395   22.9073 O.2     1  UNL1       -0.2817
      5 C          -9.8737  -17.9785   21.4848 C.2     1  UNL1        0.2497
      6 O         -10.6425  -19.1148   20.8782 O.2     1  UNL1       -0.2817
      7 N          -7.1633  -18.1107   20.9201 N.pl3   1  UNL1       -0.3270
      8 H          -6.8481  -17.7958   20.0423 H       1  UNL1        0.1472
      9 C          -7.0723  -20.3121   22.2969 C.3     1  UNL1        0.0261
     10 C          -6.3744  -19.1387   21.6757 C.3     1  UNL1        0.0920
     11 C          -4.8875  -18.9931   21.8101 C.ar    1  UNL1       -0.0046
     12 C          -3.9731  -19.7907   20.9282 C.ar    1  UNL1       -0.0027
     13 C          -2.4863  -19.6451   21.0626 C.ar    1  UNL1       -0.0003
     14 C          -1.9138  -18.7020   22.0788 C.ar    1  UNL1       -0.0000
     15 C          -2.8282  -17.9044   22.9607 C.ar    1  UNL1       -0.0003
     16 C          -4.3150  -18.0499   22.8263 C.ar    1  UNL1       -0.0027
     17 N          -8.0176  -15.2355   22.9492 N.pl3   1  UNL1       -0.3088
     18 H          -7.8174  -14.4347   22.4126 H       1  UNL1        0.1523
     19 C          -7.5539  -15.3193   24.3733 C.ar    1  UNL1        0.0515
     20 C          -6.0879  -15.2799   24.6882 C.ar    1  UNL1        0.0353
     21 C          -5.6242  -15.3638   26.1123 C.ar    1  UNL1        0.1002
     22 N          -6.6266  -15.4871   27.2214 N.ar    1  UNL1       -0.2422
     23 C          -8.0926  -15.5265   26.9064 C.ar    1  UNL1        0.1002
     24 C          -8.5562  -15.4426   25.4824 C.ar    1  UNL1        0.0353
@<TRIPOS>BOND
     1    10     9    1
     2    10     7    1
     3     7     1    1
     4     1     2    2
     5     2    17    1
     6    17    19    1
     7    19    20   ar
     8    20    21   ar
     9    21    22   ar
    10    22    23   ar
    11    23    24   ar
    12     2     3    1
    13     3     4    2
    14     3     5    1
    15     5     6    2
    16    10    11    1
    17    11    12   ar
    18    12    13   ar
    19    13    14   ar
    20    14    15   ar
    21    15    16   ar
    22     5     1    1
    23    16    11   ar
    24    24    19   ar
    25     7     8    1
    26    17    18    1
@<TRIPOS>MOLECULE
*****
 24 26 0 0 0
SMALL
GASTEIGER

@<TRIPOS>ATOM
      1 C          -7.2170  -18.2257   21.4529 C.2     1  UNL1        0.1045
      2 C          -5.9690  -19.0181   21.7071 C.2     1  UNL1        0.1076
      3 C          -6.4966  -20.1259   20.8442 C.2     1  UNL1        0.2500
      4 O          -5.9872  -21.4694   20.4138 O.2     1  UNL1       -0.2817
      5 C          -7.7446  -19.3335   20.5900 C.2     1  UNL1        0.2497
      6 O          -9.0002  -19.5565   19.8001 O.2     1  UNL1       -0.2817
      7 N          -7.7264  -16.8821   21.8833 N.pl3   1  UNL1       -0.3270
      8 H          -7.5664  -16.0912   21.3193 H       1  UNL1        0.1472
      9 C          -9.9358  -17.0984   23.2331 C.3     1  UNL1        0.0261
     10 C          -8.4796  -16.7435   23.1731 C.3     1  UNL1        0.0920
     11 C          -7.7765  -16.2501   24.4029 C.ar    1  UNL1       -0.0046
     12 C          -8.5172  -16.1576   25.7039 C.ar    1  UNL1       -0.0027
     13 C          -7.8141  -15.6642   26.9337 C.ar    1  UNL1       -0.0003
     14 C          -6.3704  -15.2633   26.8623 C.ar    1  UNL1       -0.0000
     15 C          -5.6298  -15.3559   25.5612 C.ar    1  UNL1       -0.0003
     16 C          -6.3329  -15.8493   24.3315 C.ar    1  UNL1       -0.0027
     17 N          -4.7135  -18.7951   22.4970 N.pl3   1  UNL1       -0.3088
     18 H          -4.6892  -19.0172   23.4558 H       1  UNL1        0.1523
     19 C          -3.4950  -18.2337   21.8260 C.ar    1  UNL1        0.0515
     20 C          -2.9385  -16.9120   22.2658 C.ar    1  UNL1        0.0353
     21 C          -1.7201  -16.3507   21.5948 C.ar    1  UNL1        0.1002
     22 N          -1.0581  -17.1111   20.4841 N.ar    1  UNL1       -0.2422
     23 C          -1.6146  -18.4327   20.0443 C.ar    1  UNL1        0.1002
     24 C          -2.8331  -18.9941   20.7153 C.ar    1  UNL1        0.0353
@<TRIPOS>BOND
     1    10     9    1
     2    10     7    1
     3     7     1    1
     4     1     2    2
     5     2    17    1
     6    17    19    1
     7    19    20   ar
     8    20    21   ar
     9    21    22   ar
    10    22    23   ar
    11    23    24   ar
    12     2     3    1
    13     3     4    2
    14     3     5    1
    15     5     6    2
    16    10    11    1
    17    11    12   ar
    18    12    13   ar
    19    13    14   ar
    20    14    15   ar
    21    15    16   ar
    22     5     1    1
    23    16    11   ar
    24    24    19   ar
    25     7     8    1
    26    17    18    1
@<TRIPOS>MOLECULE
*****
 24 26 0 0 0
SMALL
GASTEIGER

@<TRIPOS>ATOM
      1 C          -7.1431  -16.0516   23.2880 C.2     1  UNL1        0.1045
      2 C          -5.7717  -15.8242   23.8515 C.2     1  UNL1        0.1076
      3 C          -6.3747  -15.4860   25.1826 C.2     1  UNL1        0.2500
      4 O          -5.8314  -15.0860   26.5223 O.2     1  UNL1       -0.2817
      5 C          -7.7461  -15.7134   24.6192 C.2     1  UNL1        0.2497
      6 O          -9.1423  -15.6351   25.1620 O.2     1  UNL1       -0.2817
      7 N          -7.6864  -16.4516   21.9482 N.pl3   1  UNL1       -0.3270
      8 H          -7.4383  -15.9408   21.1440 H       1  UNL1        0.1472
      9 C          -8.1002  -18.9277   21.2794 C.3     1  UNL1        0.0261
     10 C          -8.6078  -17.6297   21.8339 C.3     1  UNL1        0.0920
     11 C         -10.0368  -17.5098   22.2740 C.ar    1  UNL1       -0.0046
     12 C         -10.8420  -16.3048   21.8873 C.ar    1  UNL1       -0.0027
     13 C         -12.2709  -16.1849   22.3274 C.ar    1  UNL1       -0.0003
     14 C         -12.8946  -17.2700   23.1543 C.ar    1  UNL1       -0.0000
     15 C         -12.0893  -18.4749   23.5410 C.ar    1  UNL1       -0.0003
     16 C         -10.6604  -18.5948   23.1009 C.ar    1  UNL1       -0.0027
     17 N          -4.3756  -15.9025   23.3086 N.pl3   1  UNL1       -0.3088
     18 H          -3.8127  -15.0953   23.2796 H       1  UNL1        0.1523
     19 C          -3.8370  -17.2107   22.8100 C.ar    1  UNL1        0.0515
     20 C          -2.4171  -17.3054   22.3360 C.ar    1  UNL1        0.0353
     21 C          -1.8786  -18.6136   21.8374 C.ar    1  UNL1        0.1002
     22 N          -2.7600  -19.8271   21.8128 N.ar    1  UNL1       -0.2422
     23 C          -4.1799  -19.7323   22.2869 C.ar    1  UNL1        0.1002
     24 C          -4.7184  -18.4242   22.7855 C.ar    1  UNL1        0.0353
@<TRIPOS>BOND
     1    10     9    1
     2    10     7    1
     3     7     1    1
     4     1     2    2
     5     2    17    1
     6    17    19    1
     7    19    20   ar
     8    20    21   ar
     9    21    22   ar
    10    22    23   ar
    11    23    24   ar
    12     2     3    1
    13     3     4    2
    14     3     5    1
    15     5     6    2
    16    10    11    1
    17    11    12   ar
    18    12    13   ar
    19    13    14   ar
    20    14    15   ar
    21    15    16   ar
    22     5     1    1
    23    16    11   ar
    24    24    19   ar
    25     7     8    1
    26    17    18    1
@<TRIPOS>MOLECULE
*****
 24 26 0 0 0
SMALL
GASTEIGER

@<TRIPOS>ATOM
      1 C          -7.1934  -18.3528   21.4170 C.2     1  UNL1        0.1045
      2 C          -6.1627  -18.9597   20.5120 C.2     1  UNL1        0.1076
      3 C          -6.5294  -20.3260   21.0105 C.2     1  UNL1        0.2500
      4 O          -6.0599  -21.7213   20.7230 O.2     1  UNL1       -0.2817
      5 C          -7.5602  -19.7191   21.9156 C.2     1  UNL1        0.2497
      6 O          -8.5485  -20.2561   22.9081 O.2     1  UNL1       -0.2817
      7 N          -7.6629  -16.9574   21.7045 N.pl3   1  UNL1       -0.3270
      8 H          -7.3350  -16.2057   21.1599 H       1  UNL1        0.1472
      9 C          -8.1508  -16.1188   24.1146 C.3     1  UNL1        0.0261
     10 C          -8.6322  -16.7074   22.8217 C.3     1  UNL1        0.0920
     11 C         -10.0829  -17.0461   22.6459 C.ar    1  UNL1       -0.0046
     12 C         -10.7905  -16.6777   21.3756 C.ar    1  UNL1       -0.0027
     13 C         -12.2411  -17.0164   21.1999 C.ar    1  UNL1       -0.0003
     14 C         -12.9841  -17.7235   22.2944 C.ar    1  UNL1       -0.0000
     15 C         -12.2765  -18.0919   23.5647 C.ar    1  UNL1       -0.0003
     16 C         -10.8259  -17.7532   23.7404 C.ar    1  UNL1       -0.0027
     17 N          -5.1745  -18.4227   19.5195 N.pl3   1  UNL1       -0.3088
     18 H          -5.4906  -18.0203   18.6784 H       1  UNL1        0.1523
     19 C          -3.7045  -18.4987   19.8084 C.ar    1  UNL1        0.0515
     20 C          -3.2122  -19.2756   20.9934 C.ar    1  UNL1        0.0353
     21 C          -1.7423  -19.3516   21.2823 C.ar    1  UNL1        0.1002
     22 N          -0.7646  -18.6508   20.3862 N.ar    1  UNL1       -0.2422
     23 C          -1.2568  -17.8739   19.2013 C.ar    1  UNL1        0.1002
     24 C          -2.7268  -17.7979   18.9124 C.ar    1  UNL1        0.0353
@<TRIPOS>BOND
     1    10     9    1
     2    10     7    1
     3     7     1    1
     4     1     2    2
     5     2    17    1
     6    17    19    1
     7    19    20   ar
     8    20    21   ar
     9    21    22   ar
    10    22    23   ar
    11    23    24   ar
    12     2     3    1
    13     3     4    2
    14     3     5    1
    15     5     6    2
    16    10    11    1
    17    11    12   ar
    18    12    13   ar
    19    13    14   ar
    20    14    15   ar
    21    15    16   ar
    22     5     1    1
    23    16    11   ar
    24    24    19   ar
    25     7     8    1
    26    17    18    1
@<TRIPOS>MOLECULE
*****
 24 26 0 0 0
SMALL
GASTEIGER

@<TRIPOS>ATOM
      1 C          -6.9298  -18.0263   22.1750 C.2     1  UNL1        0.1045
      2 C          -5.7354  -18.9337   22.1779 C.2     1  UNL1        0.1076
      3 C          -6.4915  -19.9316   21.3517 C.2     1  UNL1        0.2500
      4 O          -6.1816  -21.2788   20.7695 O.2     1  UNL1       -0.2817
      5 C          -7.6859  -19.0241   21.3488 C.2     1  UNL1        0.2497
      6 O          -9.0651  -19.0880   20.7625 O.2     1  UNL1       -0.2817
      7 N          -7.2396  -16.6790   22.7572 N.pl3   1  UNL1       -0.3270
      8 H          -6.8106  -15.8731   22.3888 H       1  UNL1        0.1472
      9 C          -7.7857  -15.8673   25.1640 C.3     1  UNL1        0.0261
     10 C          -8.2031  -16.5597   23.9006 C.3     1  UNL1        0.0920
     11 C          -9.5842  -17.1328   23.7805 C.ar    1  UNL1       -0.0046
     12 C          -9.9640  -18.3470   24.5751 C.ar    1  UNL1       -0.0027
     13 C         -11.3450  -18.9200   24.4551 C.ar    1  UNL1       -0.0003
     14 C         -12.3461  -18.2789   23.5404 C.ar    1  UNL1       -0.0000
     15 C         -11.9663  -17.0647   22.7458 C.ar    1  UNL1       -0.0003
     16 C         -10.5853  -16.4917   22.8659 C.ar    1  UNL1       -0.0027
     17 N          -4.3562  -18.8698   22.7641 N.pl3   1  UNL1       -0.3088
     18 H          -4.1880  -19.2254   23.6666 H       1  UNL1        0.1523
     19 C          -3.2332  -18.2641   21.9753 C.ar    1  UNL1        0.0515
     20 C          -2.5529  -19.0634   20.9038 C.ar    1  UNL1        0.0353
     21 C          -1.4300  -18.4577   20.1150 C.ar    1  UNL1        0.1002
     22 N          -0.9875  -17.0526   20.3978 N.ar    1  UNL1       -0.2422
     23 C          -1.6678  -16.2533   21.4693 C.ar    1  UNL1        0.1002
     24 C          -2.7907  -16.8590   22.2580 C.ar    1  UNL1        0.0353
@<TRIPOS>BOND
     1    10     9    1
     2    10     7    1
     3     7     1    1
     4     1     2    2
     5     2    17    1
     6    17    19    1
     7    19    20   ar
     8    20    21   ar
     9    21    22   ar
    10    22    23   ar
    11    23    24   ar
    12     2     3    1
    13     3     4    2
    14     3     5    1
    15     5     6    2
    16    10    11    1
    17    11    12   ar
    18    12    13   ar
    19    13    14   ar
    20    14    15   ar
    21    15    16   ar
    22     5     1    1
    23    16    11   ar
    24    24    19   ar
    25     7     8    1
    26    17    18    1
@<TRIPOS>MOLECULE
*****
 24 26 0 0 0
SMALL
GASTEIGER

@<TRIPOS>ATOM
      1 C          -7.4397  -16.3737   23.6464 C.2     1  UNL1        0.1045
      2 C          -8.7106  -16.3760   24.4431 C.2     1  UNL1        0.1076
      3 C          -8.0486  -15.5446   25.5017 C.2     1  UNL1        0.2500
      4 O          -8.4791  -14.9584   26.8135 O.2     1  UNL1       -0.2817
      5 C          -6.7777  -15.5422   24.7049 C.2     1  UNL1        0.2497
      6 O          -5.4108  -14.9527   24.8900 O.2     1  UNL1       -0.2817
      7 N          -7.0092  -16.9599   22.3345 N.pl3   1  UNL1       -0.3270
      8 H          -6.6763  -16.3722   21.6182 H       1  UNL1        0.1472
      9 C          -5.8305  -19.2618   22.0856 C.3     1  UNL1        0.0261
     10 C          -7.0861  -18.4416   22.1138 C.3     1  UNL1        0.0920
     11 C          -8.4186  -19.1031   21.9214 C.ar    1  UNL1       -0.0046
     12 C          -9.1007  -19.0417   20.5870 C.ar    1  UNL1       -0.0027
     13 C         -10.4331  -19.7032   20.3946 C.ar    1  UNL1       -0.0003
     14 C         -11.0834  -20.4261   21.5368 C.ar    1  UNL1       -0.0000
     15 C         -10.4013  -20.4875   22.8712 C.ar    1  UNL1       -0.0003
     16 C          -9.0689  -19.8260   23.0636 C.ar    1  UNL1       -0.0027
     17 N         -10.0774  -16.9656   24.2580 N.pl3   1  UNL1       -0.3088
     18 H         -10.4861  -17.4968   24.9791 H       1  UNL1        0.1523
     19 C         -10.8215  -16.7458   22.9742 C.ar    1  UNL1        0.0515
     20 C         -12.1937  -17.3242   22.7941 C.ar    1  UNL1        0.0353
     21 C         -12.9377  -17.1044   21.5104 C.ar    1  UNL1        0.1002
     22 N         -12.3095  -16.3061   20.4067 N.ar    1  UNL1       -0.2422
     23 C         -10.9373  -15.7277   20.5867 C.ar    1  UNL1        0.1002
     24 C         -10.1933  -15.9475   21.8705 C.ar    1  UNL1        0.0353
@<TRIPOS>BOND
     1    10     9    1
     2    10     7    1
     3     7     1    1
     4     1     2    2
     5     2    17    1
     6    17    19    1
     7    19    20   ar
     8    20    21   ar
     9    21    22   ar
    10    22    23   ar
    11    23    24   ar
    12     2     3    1
    13     3     4    2
    14     3     5    1
    15     5     6    2
    16    10    11    1
    17    11    12   ar
    18    12    13   ar
    19    13    14   ar
    20    14    15   ar
    21    15    16   ar
    22     5     1    1
    23    16    11   ar
    24    24    19   ar
    25     7     8    1
    26    17    18    1
@<TRIPOS>MOLECULE
*****
 24 26 0 0 0
SMALL
GASTEIGER

@<TRIPOS>ATOM
      1 C          -9.7955  -17.8549   21.8067 C.2     1  UNL1        0.1045
      2 C          -8.8913  -19.0159   21.5158 C.2     1  UNL1        0.1076
      3 C          -9.5299  -19.1754   20.1679 C.2     1  UNL1        0.2500
      4 O          -9.3421  -20.1091   19.0091 O.2     1  UNL1       -0.2817
      5 C         -10.4340  -18.0144   20.4588 C.2     1  UNL1        0.2497
      6 O         -11.5249  -17.3062   19.7114 O.2     1  UNL1       -0.2817
      7 N          -9.9833  -16.9212   22.9656 N.pl3   1  UNL1       -0.3270
      8 H         -10.4270  -16.0527   22.8311 H       1  UNL1        0.1472
      9 C         -10.1465  -18.4450   25.0636 C.3     1  UNL1        0.0261
     10 C          -9.4950  -17.3108   24.3294 C.3     1  UNL1        0.0920
     11 C          -8.3551  -16.5661   24.9589 C.ar    1  UNL1       -0.0046
     12 C          -8.3524  -16.3088   26.4367 C.ar    1  UNL1       -0.0027
     13 C          -7.2126  -15.5642   27.0661 C.ar    1  UNL1       -0.0003
     14 C          -6.0755  -15.0768   26.2179 C.ar    1  UNL1       -0.0000
     15 C          -6.0783  -15.3340   24.7401 C.ar    1  UNL1       -0.0003
     16 C          -7.2181  -16.0787   24.1107 C.ar    1  UNL1       -0.0027
     17 N          -7.8005  -19.7241   22.2632 N.pl3   1  UNL1       -0.3088
     18 H          -8.0035  -20.1888   23.1070 H       1  UNL1        0.1523
     19 C          -6.4004  -19.7241   21.7249 C.ar    1  UNL1        0.0515
     20 C          -6.0304  -20.6415   20.5974 C.ar    1  UNL1        0.0353
     21 C          -4.6303  -20.6415   20.0591 C.ar    1  UNL1        0.1002
     22 N          -3.6002  -19.7241   20.6484 N.ar    1  UNL1       -0.2422
     23 C          -3.9702  -18.8066   21.7759 C.ar    1  UNL1        0.1002
     24 C          -5.3703  -18.8066   22.3142 C.ar    1  UNL1        0.0353
@<TRIPOS>BOND
     1    10     9    1
     2    10     7    1
     3     7     1    1
     4     1     2    2
     5     2    17    1
     6    17    19    1
     7    19    20   ar
     8    20    21   ar
     9    21    22   ar
    10    22    23   ar
    11    23    24   ar
    12     2     3    1
    13     3     4    2
    14     3     5    1
    15     5     6    2
    16    10    11    1
    17    11    12   ar
    18    12    13   ar
    19    13    14   ar
    20    14    15   ar
    21    15    16   ar
    22     5     1    1
    23    16    11   ar
    24    24    19   ar
    25     7     8    1
    26    17    18    1
@<TRIPOS>MOLECULE
*****
 24 26 0 0 0
SMALL
GASTEIGER

@<TRIPOS>ATOM
      1 C          -7.9464  -19.3674   20.7330 C.2     1  UNL1        0.1045
      2 C          -7.3186  -18.1508   21.3460 C.2     1  UNL1        0.1076
      3 C          -5.9764  -18.8186   21.2967 C.2     1  UNL1        0.2500
      4 O          -4.5834  -18.4306   21.6952 O.2     1  UNL1       -0.2817
      5 C          -6.6042  -20.0352   20.6837 C.2     1  UNL1        0.2497
      6 O          -6.0991  -21.3677   20.2153 O.2     1  UNL1       -0.2817
      7 N          -9.3396  -19.7554   20.3344 N.pl3   1  UNL1       -0.3270
      8 H          -9.5001  -20.6123   19.8771 H       1  UNL1        0.1472
      9 C         -11.0310  -17.9422   19.5589 C.3     1  UNL1        0.0261
     10 C         -10.4880  -18.8377   20.6327 C.3     1  UNL1        0.0920
     11 C         -11.0935  -18.8157   22.0050 C.ar    1  UNL1       -0.0046
     12 C         -10.4488  -19.5821   23.1216 C.ar    1  UNL1       -0.0027
     13 C         -11.0543  -19.5600   24.4938 C.ar    1  UNL1       -0.0003
     14 C         -12.3046  -18.7716   24.7492 C.ar    1  UNL1       -0.0000
     15 C         -12.9493  -18.0052   23.6326 C.ar    1  UNL1       -0.0003
     16 C         -12.3438  -18.0273   22.2604 C.ar    1  UNL1       -0.0027
     17 N          -7.8238  -16.8183   21.8143 N.pl3   1  UNL1       -0.3088
     18 H          -8.2969  -16.2236   21.1885 H       1  UNL1        0.1523
     19 C          -7.6081  -16.3920   23.2363 C.ar    1  UNL1        0.0515
     20 C          -6.2460  -15.9585   23.6909 C.ar    1  UNL1        0.0353
     21 C          -6.0304  -15.5322   25.1128 C.ar    1  UNL1        0.1002
     22 N          -7.1769  -15.5395   26.0800 N.ar    1  UNL1       -0.2422
     23 C          -8.5390  -15.9730   25.6254 C.ar    1  UNL1        0.1002
     24 C          -8.7546  -16.3993   24.2035 C.ar    1  UNL1        0.0353
@<TRIPOS>BOND
     1    10     9    1
     2    10     7    1
     3     7     1    1
     4     1     2    2
     5     2    17    1
     6    17    19    1
     7    19    20   ar
     8    20    21   ar
     9    21    22   ar
    10    22    23   ar
    11    23    24   ar
    12     2     3    1
    13     3     4    2
    14     3     5    1
    15     5     6    2
    16    10    11    1
    17    11    12   ar
    18    12    13   ar
    19    13    14   ar
    20    14    15   ar
    21    15    16   ar
    22     5     1    1
    23    16    11   ar
    24    24    19   ar
    25     7     8    1
    26    17    18    1
