@<TRIPOS>MOLECULE
*****
 32 35 0 0 0
SMALL
GASTEIGER

@<TRIPOS>ATOM
      1 C          -6.7364  -19.7170   20.2439 C.ar    1  UNL1        0.0536
      2 C          -6.3623  -20.3349   21.5585 C.ar    1  UNL1        0.0042
      3 C          -4.9439  -20.2681   22.0420 C.ar    1  UNL1       -0.0033
      4 C          -3.8997  -19.5833   21.2109 C.ar    1  UNL1       -0.0110
      5 C          -4.2738  -18.9654   19.8963 C.ar    1  UNL1       -0.0033
      6 C          -5.6922  -19.0322   19.4129 C.ar    1  UNL1        0.0042
      7 C         -11.4018  -17.6244   22.0063 C.3     1  UNL1        0.1025
      8 C          -9.9834  -17.5576   22.4899 C.3     1  UNL1        0.0327
      9 C          -8.9011  -18.2774   21.7412 C.3     1  UNL1        0.0943
     10 N          -9.2371  -19.0640   20.5090 N.am    1  UNL1       -0.2761
     11 C          -8.1548  -19.7838   19.7604 C.2     1  UNL1        0.2490
     12 O          -8.4908  -20.5705   18.5282 O.2     1  UNL1       -0.2699
     13 C         -10.6554  -19.1309   20.0255 C.3     1  UNL1        0.0943
     14 C         -11.7378  -18.4111   20.7741 C.3     1  UNL1        0.0327
     15 C         -12.4841  -16.9046   22.7549 C.2     1  UNL1        0.3167
     16 O         -12.4881  -15.4056   22.8106 O.2     1  UNL1       -0.2501
     17 C         -13.2350  -18.4994   24.6636 C.3     1  UNL1        0.2556
     18 O         -13.5623  -17.6838   23.4479 O.3     1  UNL1       -0.4444
     19 C          -2.4813  -19.5165   21.6945 C.3     1  UNL1        0.0884
     20 S          -2.0039  -18.3148   22.4547 S.3     1  UNL1       -0.1088
     21 C          -2.9956  -17.3353   23.0090 C.ar    1  UNL1        0.0261
     22 C          -3.3472  -16.1023   22.2306 C.ar    1  UNL1        0.0077
     23 C          -4.3389  -15.1228   22.7848 C.ar    1  UNL1        0.0202
     24 C          -4.9790  -15.3764   24.1175 C.ar    1  UNL1        0.0893
     25 N          -5.9836  -14.5967   24.9130 N.ar    1  UNL1       -0.2245
     26 C          -6.2529  -15.3479   26.1831 C.ar    1  UNL1        0.1567
     27 N          -7.1951  -14.9288   27.2725 N.pl3   1  UNL1       -0.3375
     28 S          -5.4147  -16.5919   26.1725 S.2     1  UNL1       -0.0520
     29 C          -4.6274  -16.6094   24.8959 C.ar    1  UNL1        0.0502
     30 C          -3.6357  -17.5889   24.3416 C.ar    1  UNL1        0.0142
     31 H          -7.7041  -14.0904   27.1876 H       1  UNL1        0.1442
     32 H          -7.3044  -15.4922   28.0725 H       1  UNL1        0.1442
@<TRIPOS>BOND
     1    17    18    1
     2    18    15    1
     3    15    16    2
     4    15     7    1
     5     7     8    1
     6     8     9    1
     7     9    10    1
     8    10    11   am
     9    11    12    2
    10    11     1    1
    11     1     2   ar
    12     2     3   ar
    13     3     4   ar
    14     4    19    1
    15    19    20    1
    16    20    21    1
    17    21    22   ar
    18    22    23   ar
    19    23    24   ar
    20    24    25   ar
    21    25    26   ar
    22    26    27    1
    23    26    28   ar
    24    28    29   ar
    25    29    30   ar
    26     4     5   ar
    27     5     6   ar
    28    10    13    1
    29    13    14    1
    30    14     7    1
    31     6     1   ar
    32    30    21   ar
    33    29    24   ar
    34    27    31    1
    35    27    32    1
@<TRIPOS>MOLECULE
*****
 32 35 0 0 0
SMALL
GASTEIGER

@<TRIPOS>ATOM
      1 C           7.0321   -2.5011   20.0383 C.ar    1  UNL1        0.0536
      2 C           6.8327   -3.9286   20.4534 C.ar    1  UNL1        0.0042
      3 C           7.5271   -4.4591   21.6725 C.ar    1  UNL1       -0.0033
      4 C           8.4210   -3.5621   22.4765 C.ar    1  UNL1       -0.0110
      5 C           8.6204   -2.1346   22.0614 C.ar    1  UNL1       -0.0033
      6 C           7.9260   -1.6041   20.8423 C.ar    1  UNL1        0.0042
      7 C           2.2439   -0.1373   19.1803 C.3     1  UNL1        0.1025
      8 C           2.9384   -0.6679   20.3994 C.3     1  UNL1        0.0327
      9 C           4.3029   -1.2789   20.2791 C.3     1  UNL1        0.0943
     10 N           4.9731   -1.3594   18.9395 N.am    1  UNL1       -0.2761
     11 C           6.3377   -1.9705   18.8191 C.2     1  UNL1        0.2490
     12 O           7.0079   -2.0510   17.4796 O.2     1  UNL1       -0.2699
     13 C           4.2788   -0.8289   17.7204 C.3     1  UNL1        0.0943
     14 C           2.9141   -0.2178   17.8407 C.3     1  UNL1        0.0327
     15 C           0.8794    0.4737   19.3007 C.2     1  UNL1        0.3167
     16 O           0.0344    0.1903   20.5073 O.2     1  UNL1       -0.2501
     17 C           0.5603    2.8521   18.3048 C.3     1  UNL1        0.2556
     18 O           0.3597    1.3683   18.2145 O.3     1  UNL1       -0.4444
     19 C           9.1154   -4.0927   23.6957 C.3     1  UNL1        0.0884
     20 S           8.4512   -5.1380   24.5419 S.3     1  UNL1       -0.1088
     21 C           7.9315   -4.7819   25.9033 C.ar    1  UNL1        0.0261
     22 C           7.2318   -3.4731   26.1203 C.ar    1  UNL1        0.0077
     23 C           6.7122   -3.1171   27.4816 C.ar    1  UNL1        0.0202
     24 C           6.8924   -4.0700   28.6260 C.ar    1  UNL1        0.0893
     25 N           6.4897   -3.9932   30.0689 N.ar    1  UNL1       -0.2245
     26 C           6.9406   -5.2547   30.7437 C.ar    1  UNL1        0.1567
     27 N           6.7447   -5.5994   32.1904 N.pl3   1  UNL1       -0.3375
     28 S           7.6220   -6.1111   29.7178 S.2     1  UNL1       -0.0520
     29 C           7.5921   -5.3789   28.4090 C.ar    1  UNL1        0.0502
     30 C           8.1117   -5.7348   27.0476 C.ar    1  UNL1        0.0142
     31 H           6.2826   -4.9685   32.7885 H       1  UNL1        0.1442
     32 H           7.0781   -6.4564   32.5418 H       1  UNL1        0.1442
@<TRIPOS>BOND
     1    17    18    1
     2    18    15    1
     3    15    16    2
     4    15     7    1
     5     7     8    1
     6     8     9    1
     7     9    10    1
     8    10    11   am
     9    11    12    2
    10    11     1    1
    11     1     2   ar
    12     2     3   ar
    13     3     4   ar
    14     4    19    1
    15    19    20    1
    16    20    21    1
    17    21    22   ar
    18    22    23   ar
    19    23    24   ar
    20    24    25   ar
    21    25    26   ar
    22    26    27    1
    23    26    28   ar
    24    28    29   ar
    25    29    30   ar
    26     4     5   ar
    27     5     6   ar
    28    10    13    1
    29    13    14    1
    30    14     7    1
    31     6     1   ar
    32    30    21   ar
    33    29    24   ar
    34    27    31    1
    35    27    32    1
@<TRIPOS>MOLECULE
*****
 32 35 0 0 0
SMALL
GASTEIGER

@<TRIPOS>ATOM
      1 C          -8.2056  -20.1723   20.1592 C.ar    1  UNL1        0.0536
      2 C          -8.5941  -20.0676   21.6042 C.ar    1  UNL1        0.0042
      3 C          -9.8842  -19.4055   21.9878 C.ar    1  UNL1       -0.0033
      4 C         -10.7858  -18.8481   20.9265 C.ar    1  UNL1       -0.0110
      5 C         -10.3972  -18.9527   19.4815 C.ar    1  UNL1       -0.0033
      6 C          -9.1071  -19.6148   19.0979 C.ar    1  UNL1        0.0042
      7 C          -3.0041  -19.1597   21.2407 C.3     1  UNL1        0.1025
      8 C          -4.2942  -18.4976   21.6244 C.3     1  UNL1        0.0327
      9 C          -5.5980  -19.0558   21.1360 C.3     1  UNL1        0.0943
     10 N          -5.6117  -20.2762   20.2639 N.am    1  UNL1       -0.2761
     11 C          -6.9154  -20.8344   19.7755 C.2     1  UNL1        0.2490
     12 O          -6.9291  -22.0547   18.9034 O.2     1  UNL1       -0.2699
     13 C          -4.3216  -20.9383   19.8802 C.3     1  UNL1        0.0943
     14 C          -3.0177  -20.3801   20.3686 C.3     1  UNL1        0.0327
     15 C          -1.7003  -18.6015   21.7290 C.2     1  UNL1        0.3167
     16 O          -1.5921  -18.0585   23.1232 O.2     1  UNL1       -0.2501
     17 C          -0.5577  -17.8387   19.5239 C.3     1  UNL1        0.2556
     18 O          -0.5047  -18.5862   20.8234 O.3     1  UNL1       -0.4444
     19 C         -12.0759  -18.1859   21.3102 C.3     1  UNL1        0.0884
     20 S         -12.0594  -16.9275   22.1264 S.3     1  UNL1       -0.1088
     21 C         -10.7553  -16.3597   22.6028 C.ar    1  UNL1        0.0261
     22 C          -9.8380  -15.6729   21.6349 C.ar    1  UNL1        0.0077
     23 C          -8.5340  -15.1051   22.1113 C.ar    1  UNL1        0.0202
     24 C          -8.1472  -15.2240   23.5557 C.ar    1  UNL1        0.0893
     25 N          -6.9353  -14.7652   24.3113 N.ar    1  UNL1       -0.2245
     26 C          -7.1036  -15.1685   25.7462 C.ar    1  UNL1        0.1567
     27 N          -6.1274  -14.9093   26.8553 N.pl3   1  UNL1       -0.3375
     28 S          -8.4196  -15.8764   25.8775 S.2     1  UNL1       -0.0520
     29 C          -9.0645  -15.9107   24.5237 C.ar    1  UNL1        0.0502
     30 C         -10.3685  -16.4786   24.0472 C.ar    1  UNL1        0.0142
     31 H          -5.2857  -14.4339   26.6691 H       1  UNL1        0.1442
     32 H          -6.3285  -15.2146   27.7694 H       1  UNL1        0.1442
@<TRIPOS>BOND
     1    17    18    1
     2    18    15    1
     3    15    16    2
     4    15     7    1
     5     7     8    1
     6     8     9    1
     7     9    10    1
     8    10    11   am
     9    11    12    2
    10    11     1    1
    11     1     2   ar
    12     2     3   ar
    13     3     4   ar
    14     4    19    1
    15    19    20    1
    16    20    21    1
    17    21    22   ar
    18    22    23   ar
    19    23    24   ar
    20    24    25   ar
    21    25    26   ar
    22    26    27    1
    23    26    28   ar
    24    28    29   ar
    25    29    30   ar
    26     4     5   ar
    27     5     6   ar
    28    10    13    1
    29    13    14    1
    30    14     7    1
    31     6     1   ar
    32    30    21   ar
    33    29    24   ar
    34    27    31    1
    35    27    32    1
@<TRIPOS>MOLECULE
*****
 32 35 0 0 0
SMALL
GASTEIGER

@<TRIPOS>ATOM
      1 C           2.8675    0.6390   18.0875 C.ar    1  UNL1        0.0536
      2 C           1.3784    0.5382   18.2365 C.ar    1  UNL1        0.0042
      3 C           0.5715    1.7631   18.5505 C.ar    1  UNL1       -0.0033
      4 C           1.2537    3.0887   18.7155 C.ar    1  UNL1       -0.0110
      5 C           2.7429    3.1895   18.5665 C.ar    1  UNL1       -0.0033
      6 C           3.5498    1.9647   18.2525 C.ar    1  UNL1        0.0042
      7 C           5.4351   -3.0371   21.1114 C.3     1  UNL1        0.1025
      8 C           4.6281   -1.8122   21.4254 C.3     1  UNL1        0.0327
      9 C           4.0413   -0.9952   20.3128 C.3     1  UNL1        0.0943
     10 N           4.2614   -1.4029   18.8861 N.am    1  UNL1       -0.2761
     11 C           3.6745   -0.5858   17.7735 C.2     1  UNL1        0.2490
     12 O           3.8946   -0.9936   16.3469 O.2     1  UNL1       -0.2699
     13 C           5.0683   -2.6277   18.5721 C.3     1  UNL1        0.0943
     14 C           5.6552   -3.4448   19.6848 C.3     1  UNL1        0.0327
     15 C           6.0220   -3.8542   22.2240 C.2     1  UNL1        0.3167
     16 O           7.1784   -4.7703   21.9525 O.2     1  UNL1       -0.2501
     17 C           6.2583   -3.1290   24.7077 C.3     1  UNL1        0.2556
     18 O           5.4525   -3.7552   23.6082 O.3     1  UNL1       -0.4444
     19 C           0.4468    4.3136   19.0295 C.3     1  UNL1        0.0884
     20 S          -1.0363    4.3125   18.8052 S.3     1  UNL1       -0.1088
     21 C          -1.9701    4.1295   19.9648 C.ar    1  UNL1        0.0261
     22 C          -1.4268    3.7682   21.3155 C.ar    1  UNL1        0.0077
     23 C          -2.3606    3.5853   22.4750 C.ar    1  UNL1        0.0202
     24 C          -3.8376    3.7636   22.2839 C.ar    1  UNL1        0.0893
     25 N          -4.9935    3.6494   23.2332 N.ar    1  UNL1       -0.2245
     26 C          -6.2511    3.9402   22.4691 C.ar    1  UNL1        0.1567
     27 N          -7.6431    3.9375   23.0283 N.pl3   1  UNL1       -0.3375
     28 S          -5.8725    4.2340   21.0478 S.2     1  UNL1       -0.0520
     29 C          -4.3809    4.1249   20.9333 C.ar    1  UNL1        0.0502
     30 C          -3.4472    4.3078   19.7738 C.ar    1  UNL1        0.0142
     31 H          -7.7911    3.7313   23.9795 H       1  UNL1        0.1442
     32 H          -8.4087    4.1420   22.4441 H       1  UNL1        0.1442
@<TRIPOS>BOND
     1    17    18    1
     2    18    15    1
     3    15    16    2
     4    15     7    1
     5     7     8    1
     6     8     9    1
     7     9    10    1
     8    10    11   am
     9    11    12    2
    10    11     1    1
    11     1     2   ar
    12     2     3   ar
    13     3     4   ar
    14     4    19    1
    15    19    20    1
    16    20    21    1
    17    21    22   ar
    18    22    23   ar
    19    23    24   ar
    20    24    25   ar
    21    25    26   ar
    22    26    27    1
    23    26    28   ar
    24    28    29   ar
    25    29    30   ar
    26     4     5   ar
    27     5     6   ar
    28    10    13    1
    29    13    14    1
    30    14     7    1
    31     6     1   ar
    32    30    21   ar
    33    29    24   ar
    34    27    31    1
    35    27    32    1
@<TRIPOS>MOLECULE
*****
 32 35 0 0 0
SMALL
GASTEIGER

@<TRIPOS>ATOM
      1 C           5.3789   -1.8076   18.9079 C.ar    1  UNL1        0.0536
      2 C           5.2183   -3.2201   19.3866 C.ar    1  UNL1        0.0042
      3 C           6.3515   -3.9072   20.0891 C.ar    1  UNL1       -0.0033
      4 C           7.6453   -3.1820   20.3129 C.ar    1  UNL1       -0.0110
      5 C           7.8059   -1.7695   19.8342 C.ar    1  UNL1       -0.0033
      6 C           6.6726   -1.0824   19.1317 C.ar    1  UNL1        0.0042
      7 C           1.0883    1.0226   20.5906 C.3     1  UNL1        0.1025
      8 C           2.2216    0.3354   21.2931 C.3     1  UNL1        0.0327
      9 C           3.2740   -0.3789   20.4981 C.3     1  UNL1        0.0943
     10 N           3.1932   -0.4061   19.0005 N.am    1  UNL1       -0.2761
     11 C           4.2456   -1.1204   18.2054 C.2     1  UNL1        0.2490
     12 O           4.1648   -1.1475   16.7078 O.2     1  UNL1       -0.2699
     13 C           2.0600    0.2811   18.2980 C.3     1  UNL1        0.0943
     14 C           1.0075    0.9955   19.0930 C.3     1  UNL1        0.0327
     15 C           0.0359    1.7369   21.3857 C.2     1  UNL1        0.3167
     16 O           0.2456    1.9923   22.8489 O.2     1  UNL1       -0.2501
     17 C          -2.0033    3.3441   21.2905 C.3     1  UNL1        0.2556
     18 O          -1.2262    2.1960   20.7176 O.3     1  UNL1       -0.4444
     19 C           8.7786   -3.8692   21.0154 C.3     1  UNL1        0.0884
     20 S           8.7110   -5.3434   21.2837 S.3     1  UNL1       -0.1088
     21 C           8.4831   -5.8420   22.6800 C.ar    1  UNL1        0.0261
     22 C           8.9878   -7.1952   23.0849 C.ar    1  UNL1        0.0077
     23 C           8.7599   -7.6937   24.4812 C.ar    1  UNL1        0.0202
     24 C           8.0274   -6.8389   25.4725 C.ar    1  UNL1        0.0893
     25 N           7.6560   -7.0616   26.9087 N.ar    1  UNL1       -0.2245
     26 C           6.9218   -5.8458   27.3914 C.ar    1  UNL1        0.1567
     27 N           6.3673   -5.6401   28.7699 N.pl3   1  UNL1       -0.3375
     28 S           6.8395   -4.8719   26.2535 S.2     1  UNL1       -0.0520
     29 C           7.5228   -5.4857   25.0676 C.ar    1  UNL1        0.0502
     30 C           7.7506   -4.9872   23.6714 C.ar    1  UNL1        0.0142
     31 H           6.4722   -6.3418   29.4525 H       1  UNL1        0.1442
     32 H           5.8985   -4.8034   28.9921 H       1  UNL1        0.1442
@<TRIPOS>BOND
     1    17    18    1
     2    18    15    1
     3    15    16    2
     4    15     7    1
     5     7     8    1
     6     8     9    1
     7     9    10    1
     8    10    11   am
     9    11    12    2
    10    11     1    1
    11     1     2   ar
    12     2     3   ar
    13     3     4   ar
    14     4    19    1
    15    19    20    1
    16    20    21    1
    17    21    22   ar
    18    22    23   ar
    19    23    24   ar
    20    24    25   ar
    21    25    26   ar
    22    26    27    1
    23    26    28   ar
    24    28    29   ar
    25    29    30   ar
    26     4     5   ar
    27     5     6   ar
    28    10    13    1
    29    13    14    1
    30    14     7    1
    31     6     1   ar
    32    30    21   ar
    33    29    24   ar
    34    27    31    1
    35    27    32    1
@<TRIPOS>MOLECULE
*****
 32 35 0 0 0
SMALL
GASTEIGER

@<TRIPOS>ATOM
      1 C           2.6180   -1.0427   19.7159 C.ar    1  UNL1        0.0536
      2 C           3.2811   -0.1166   18.7399 C.ar    1  UNL1        0.0042
      3 C           2.5589    1.1060   18.2567 C.ar    1  UNL1       -0.0033
      4 C           1.1735    1.4025   18.7494 C.ar    1  UNL1       -0.0110
      5 C           0.5104    0.4764   19.7254 C.ar    1  UNL1       -0.0033
      6 C           1.2326   -0.7462   20.2087 C.ar    1  UNL1        0.0042
      7 C           5.1569   -2.3255   24.3158 C.3     1  UNL1        0.1025
      8 C           4.4347   -1.1029   23.8325 C.3     1  UNL1        0.0327
      9 C           3.8291   -1.0828   22.4603 C.3     1  UNL1        0.0943
     10 N           3.9457   -2.2854   21.5714 N.am    1  UNL1       -0.2761
     11 C           3.3402   -2.2654   20.1992 C.2     1  UNL1        0.2490
     12 O           3.4568   -3.4680   19.3103 O.2     1  UNL1       -0.2699
     13 C           4.6679   -3.5080   22.0546 C.3     1  UNL1        0.0943
     14 C           5.2735   -3.5281   23.4269 C.3     1  UNL1        0.0327
     15 C           5.7624   -2.3456   25.6879 C.2     1  UNL1        0.3167
     16 O           5.0443   -1.6971   26.8342 O.2     1  UNL1       -0.2501
     17 C           7.1373   -4.4167   26.4431 C.3     1  UNL1        0.2556
     18 O           7.0861   -3.0141   25.9139 O.3     1  UNL1       -0.4444
     19 C           0.4513    2.6252   18.2661 C.3     1  UNL1        0.0884
     20 S          -0.0771    3.6234   19.2532 S.3     1  UNL1       -0.1088
     21 C          -1.5346    3.6285   19.6076 C.ar    1  UNL1        0.0261
     22 C          -1.9651    3.3420   21.0156 C.ar    1  UNL1        0.0077
     23 C          -3.4226    3.3471   21.3700 C.ar    1  UNL1        0.0202
     24 C          -4.4496    3.6388   20.3164 C.ar    1  UNL1        0.0893
     25 N          -5.9470    3.7132   20.3676 N.ar    1  UNL1       -0.2245
     26 C          -6.4418    4.0456   18.9912 C.ar    1  UNL1        0.1567
     27 N          -7.8763    4.2170   18.5874 N.pl3   1  UNL1       -0.3375
     28 S          -5.2504    4.1767   18.0893 S.2     1  UNL1       -0.0520
     29 C          -4.0192    3.9253   18.9083 C.ar    1  UNL1        0.0502
     30 C          -2.5617    3.9201   18.5540 C.ar    1  UNL1        0.0142
     31 H          -8.5918    4.1103   19.2553 H       1  UNL1        0.1442
     32 H          -8.1024    4.4360   17.6546 H       1  UNL1        0.1442
@<TRIPOS>BOND
     1    17    18    1
     2    18    15    1
     3    15    16    2
     4    15     7    1
     5     7     8    1
     6     8     9    1
     7     9    10    1
     8    10    11   am
     9    11    12    2
    10    11     1    1
    11     1     2   ar
    12     2     3   ar
    13     3     4   ar
    14     4    19    1
    15    19    20    1
    16    20    21    1
    17    21    22   ar
    18    22    23   ar
    19    23    24   ar
    20    24    25   ar
    21    25    26   ar
    22    26    27    1
    23    26    28   ar
    24    28    29   ar
    25    29    30   ar
    26     4     5   ar
    27     5     6   ar
    28    10    13    1
    29    13    14    1
    30    14     7    1
    31     6     1   ar
    32    30    21   ar
    33    29    24   ar
    34    27    31    1
    35    27    32    1
@<TRIPOS>MOLECULE
*****
 32 35 0 0 0
SMALL
GASTEIGER

@<TRIPOS>ATOM
      1 C           0.7160    2.1590   20.6801 C.ar    1  UNL1        0.0536
      2 C           2.0170    2.8566   20.4144 C.ar    1  UNL1        0.0042
      3 C           2.9965    2.2716   19.4406 C.ar    1  UNL1       -0.0033
      4 C           2.6750    0.9889   18.7325 C.ar    1  UNL1       -0.0110
      5 C           1.3740    0.2913   18.9983 C.ar    1  UNL1       -0.0033
      6 C           0.3945    0.8763   19.9721 C.ar    1  UNL1        0.0042
      7 C          -0.0973    1.5668   25.9941 C.3     1  UNL1        0.1025
      8 C           0.8822    0.9818   25.0202 C.3     1  UNL1        0.0327
      9 C           0.8268    1.3742   23.5736 C.3     1  UNL1        0.0943
     10 N          -0.2081    2.3516   23.1007 N.am    1  UNL1       -0.2761
     11 C          -0.2635    2.7440   21.6540 C.2     1  UNL1        0.2490
     12 O          -1.2984    3.7214   21.1811 O.2     1  UNL1       -0.2699
     13 C          -1.1876    2.9366   24.0744 C.3     1  UNL1        0.0943
     14 C          -1.1322    2.5442   25.5212 C.3     1  UNL1        0.0327
     15 C          -0.0419    1.1744   27.4408 C.2     1  UNL1        0.3167
     16 O           1.2624    1.2180   28.1803 O.2     1  UNL1       -0.2501
     17 C          -1.3213   -0.5726   28.8764 C.3     1  UNL1        0.2556
     18 O          -1.2908    0.7383   28.1480 O.3     1  UNL1       -0.4444
     19 C           3.6545    0.4039   17.7586 C.3     1  UNL1        0.0884
     20 S           3.6523   -1.0713   17.4873 S.3     1  UNL1       -0.1088
     21 C           4.4048   -2.0014   18.3922 C.ar    1  UNL1        0.0261
     22 C           3.6827   -3.1147   19.0916 C.ar    1  UNL1        0.0077
     23 C           4.4352   -4.0448   19.9963 C.ar    1  UNL1        0.0202
     24 C           5.9098   -3.8616   20.2017 C.ar    1  UNL1        0.0893
     25 N           6.9095   -4.6158   21.0275 N.ar    1  UNL1       -0.2245
     26 C           8.2494   -3.9685   20.8384 C.ar    1  UNL1        0.1567
     27 N           9.5352   -4.3997   21.4794 N.pl3   1  UNL1       -0.3375
     28 S           8.0777   -2.8144   19.8958 S.2     1  UNL1       -0.0520
     29 C           6.6318   -2.7483   19.5023 C.ar    1  UNL1        0.0502
     30 C           5.8793   -1.8182   18.5976 C.ar    1  UNL1        0.0142
     31 H           9.5468   -5.1741   22.0873 H       1  UNL1        0.1442
     32 H          10.3675   -3.9084   21.2922 H       1  UNL1        0.1442
@<TRIPOS>BOND
     1    17    18    1
     2    18    15    1
     3    15    16    2
     4    15     7    1
     5     7     8    1
     6     8     9    1
     7     9    10    1
     8    10    11   am
     9    11    12    2
    10    11     1    1
    11     1     2   ar
    12     2     3   ar
    13     3     4   ar
    14     4    19    1
    15    19    20    1
    16    20    21    1
    17    21    22   ar
    18    22    23   ar
    19    23    24   ar
    20    24    25   ar
    21    25    26   ar
    22    26    27    1
    23    26    28   ar
    24    28    29   ar
    25    29    30   ar
    26     4     5   ar
    27     5     6   ar
    28    10    13    1
    29    13    14    1
    30    14     7    1
    31     6     1   ar
    32    30    21   ar
    33    29    24   ar
    34    27    31    1
    35    27    32    1
@<TRIPOS>MOLECULE
*****
 32 35 0 0 0
SMALL
GASTEIGER

@<TRIPOS>ATOM
      1 C           4.8407   -2.1291   20.0877 C.ar    1  UNL1        0.0536
      2 C           6.1150   -1.6158   20.6899 C.ar    1  UNL1        0.0042
      3 C           6.7554   -2.3512   21.8295 C.ar    1  UNL1       -0.0033
      4 C           6.1216   -3.5999   22.3671 C.ar    1  UNL1       -0.0110
      5 C           4.8473   -4.1132   21.7649 C.ar    1  UNL1       -0.0033
      6 C           4.2068   -3.3778   20.6253 C.ar    1  UNL1        0.0042
      7 C           0.7980    1.4458   19.7309 C.3     1  UNL1        0.1025
      8 C           1.4385    0.7104   20.8706 C.3     1  UNL1        0.0327
      9 C           2.5726   -0.2361   20.6096 C.3     1  UNL1        0.0943
     10 N           3.0661   -0.4472   19.2090 N.am    1  UNL1       -0.2761
     11 C           4.2001   -1.3936   18.9480 C.2     1  UNL1        0.2490
     12 O           4.6936   -1.6047   17.5473 O.2     1  UNL1       -0.2699
     13 C           2.4256    0.2882   18.0693 C.3     1  UNL1        0.0943
     14 C           1.2915    1.2347   18.3302 C.3     1  UNL1        0.0327
     15 C          -0.3360    2.3923   19.9918 C.2     1  UNL1        0.3167
     16 O          -0.6538    3.4733   19.0016 O.2     1  UNL1       -0.2501
     17 C          -0.9517    3.2197   22.3765 C.3     1  UNL1        0.2556
     18 O          -1.1524    2.2578   21.2430 O.3     1  UNL1       -0.4444
     19 C           6.7622   -4.3354   23.5068 C.3     1  UNL1        0.0884
     20 S           7.1408   -3.5980   24.7569 S.3     1  UNL1       -0.1088
     21 C           7.1148   -4.3031   26.0807 C.ar    1  UNL1        0.0261
     22 C           7.3138   -5.7885   26.1432 C.ar    1  UNL1        0.0077
     23 C           7.2877   -6.4935   27.4669 C.ar    1  UNL1        0.0202
     24 C           7.0627   -5.7131   28.7280 C.ar    1  UNL1        0.0893
     25 N           6.9864   -6.1309   30.1667 N.ar    1  UNL1       -0.2245
     26 C           6.7402   -4.9036   30.9933 C.ar    1  UNL1        0.1567
     27 N           6.5953   -4.8601   32.4857 N.pl3   1  UNL1       -0.3375
     28 S           6.6644   -3.7274   30.0654 S.2     1  UNL1       -0.0520
     29 C           6.8638   -4.2277   28.6655 C.ar    1  UNL1        0.0502
     30 C           6.8898   -3.5227   27.3418 C.ar    1  UNL1        0.0142
     31 H           6.6608   -5.6901   33.0110 H       1  UNL1        0.1442
     32 H           6.4346   -4.0015   32.9398 H       1  UNL1        0.1442
@<TRIPOS>BOND
     1    17    18    1
     2    18    15    1
     3    15    16    2
     4    15     7    1
     5     7     8    1
     6     8     9    1
     7     9    10    1
     8    10    11   am
     9    11    12    2
    10    11     1    1
    11     1     2   ar
    12     2     3   ar
    13     3     4   ar
    14     4    19    1
    15    19    20    1
    16    20    21    1
    17    21    22   ar
    18    22    23   ar
    19    23    24   ar
    20    24    25   ar
    21    25    26   ar
    22    26    27    1
    23    26    28   ar
    24    28    29   ar
    25    29    30   ar
    26     4     5   ar
    27     5     6   ar
    28    10    13    1
    29    13    14    1
    30    14     7    1
    31     6     1   ar
    32    30    21   ar
    33    29    24   ar
    34    27    31    1
    35    27    32    1
@<TRIPOS>MOLECULE
*****
 32 35 0 0 0
SMALL
GASTEIGER

@<TRIPOS>ATOM
      1 C           5.8201   -2.2786   24.0078 C.ar    1  UNL1        0.0536
      2 C           6.8552   -1.6407   23.1294 C.ar    1  UNL1        0.0042
      3 C           6.9393   -2.0118   21.6785 C.ar    1  UNL1       -0.0033
      4 C           5.9884   -3.0207   21.1060 C.ar    1  UNL1       -0.0110
      5 C           4.9534   -3.6587   21.9844 C.ar    1  UNL1       -0.0033
      6 C           4.8692   -3.2876   23.4353 C.ar    1  UNL1        0.0042
      7 C           7.1844   -4.7816   28.6039 C.3     1  UNL1        0.1025
      8 C           7.2686   -5.1526   27.1529 C.3     1  UNL1        0.0327
      9 C           6.7858   -4.1946   26.1046 C.3     1  UNL1        0.0943
     10 N           6.2187   -2.8656   26.5071 N.am    1  UNL1       -0.2761
     11 C           5.7359   -1.9076   25.4588 C.2     1  UNL1        0.2490
     12 O           5.1688   -0.5786   25.8613 O.2     1  UNL1       -0.2699
     13 C           6.1345   -2.4945   27.9580 C.3     1  UNL1        0.0943
     14 C           6.6173   -3.4525   29.0065 C.3     1  UNL1        0.0327
     15 C           7.6673   -5.7396   29.6523 C.2     1  UNL1        0.3167
     16 O           6.8027   -6.0527   30.8374 O.2     1  UNL1       -0.2501
     17 C           9.1430   -7.7177   28.8402 C.3     1  UNL1        0.2556
     18 O           9.0147   -6.3844   29.5155 O.3     1  UNL1       -0.4444
     19 C           6.0727   -3.3918   19.6550 C.3     1  UNL1        0.0884
     20 S           4.8386   -3.3709   18.8026 S.3     1  UNL1       -0.1088
     21 C           3.9867   -2.1374   18.7464 C.ar    1  UNL1        0.0261
     22 C           4.2466   -1.0934   17.7012 C.ar    1  UNL1        0.0077
     23 C           3.3947    0.1399   17.6451 C.ar    1  UNL1        0.0202
     24 C           2.2830    0.3292   18.6341 C.ar    1  UNL1        0.0893
     25 N           1.2850    1.4331   18.8232 N.ar    1  UNL1       -0.2245
     26 C           0.4084    1.0712   19.9854 C.ar    1  UNL1        0.1567
     27 N          -0.7254    1.8926   20.5240 N.pl3   1  UNL1       -0.3375
     28 S           0.8645   -0.2563   20.5144 S.2     1  UNL1       -0.0520
     29 C           2.0231   -0.7148   19.6792 C.ar    1  UNL1        0.0502
     30 C           2.8749   -1.9481   19.7354 C.ar    1  UNL1        0.0142
     31 H          -0.9497    2.7556   20.1066 H       1  UNL1        0.1442
     32 H          -1.2451    1.5687   21.2948 H       1  UNL1        0.1442
@<TRIPOS>BOND
     1    17    18    1
     2    18    15    1
     3    15    16    2
     4    15     7    1
     5     7     8    1
     6     8     9    1
     7     9    10    1
     8    10    11   am
     9    11    12    2
    10    11     1    1
    11     1     2   ar
    12     2     3   ar
    13     3     4   ar
    14     4    19    1
    15    19    20    1
    16    20    21    1
    17    21    22   ar
    18    22    23   ar
    19    23    24   ar
    20    24    25   ar
    21    25    26   ar
    22    26    27    1
    23    26    28   ar
    24    28    29   ar
    25    29    30   ar
    26     4     5   ar
    27     5     6   ar
    28    10    13    1
    29    13    14    1
    30    14     7    1
    31     6     1   ar
    32    30    21   ar
    33    29    24   ar
    34    27    31    1
    35    27    32    1
