@<TRIPOS>MOLECULE
*****
 30 32 0 0 0
SMALL
GASTEIGER

@<TRIPOS>ATOM
      1 N         -10.5401  -17.7301   21.5468 N.ar    1  UNL1       -0.2487
      2 C          -9.4406  -18.6137   21.0365 C.ar    1  UNL1        0.2658
      3 O          -9.7353  -19.6521   19.9948 O.2     1  UNL1       -0.2668
      4 C          -8.0465  -18.4590   21.5679 C.ar    1  UNL1        0.0751
      5 C          -6.7683  -19.1801   21.2576 C.ar    1  UNL1       -0.0049
      6 C          -6.6036  -20.2976   20.2707 C.3     1  UNL1        0.0319
      7 C          -5.6837  -18.5874   22.1076 C.ar    1  UNL1        0.0805
      8 S          -6.2916  -17.5001   22.9431 S.2     1  UNL1       -0.0653
      9 C          -7.7518  -17.4207   22.6096 C.ar    1  UNL1        0.0982
     10 N          -8.8513  -16.5371   23.1198 N.ar    1  UNL1       -0.2754
     11 C         -10.2455  -16.6918   22.5884 C.ar    1  UNL1        0.3341
     12 O         -11.3450  -15.8082   23.0987 O.2     1  UNL1       -0.2462
     13 C          -4.2440  -19.0082   22.1198 C.2     1  UNL1        0.2548
     14 O          -3.6922  -19.7596   23.2949 O.2     1  UNL1       -0.2694
     15 N          -3.3561  -18.6777   20.9569 N.am    1  UNL1       -0.2755
     16 C          -3.9078  -17.9263   19.7818 C.3     1  UNL1        0.0962
     17 C          -3.0199  -17.5958   18.6189 C.3     1  UNL1        0.0508
     18 C          -1.5801  -18.0166   18.6311 C.3     1  UNL1        0.1139
     19 O          -0.6922  -17.6860   17.4682 O.3     1  UNL1       -0.3843
     20 C          -1.0284  -18.7680   19.8064 C.3     1  UNL1        0.0508
     21 C          -1.9163  -19.0985   20.9693 C.3     1  UNL1        0.0962
     22 H          -1.2018  -17.2022   16.7996 H       1  UNL1        0.2103
     23 C         -13.0769  -18.1089   21.9610 C.3     1  UNL1        0.0267
     24 C         -11.9343  -17.8848   21.0153 C.3     1  UNL1        0.1136
     25 C          -8.5567  -15.4988   24.1615 C.3     1  UNL1        0.1198
     26 C          -8.7447  -15.8198   25.6146 C.3     1  UNL1        0.1279
     27 C          -7.6513  -15.5191   26.5966 C.3     1  UNL1        0.3997
     28 F          -6.5580  -15.2185   27.5786 F       1  UNL1       -0.1700
     29 F          -8.5566  -15.9144   27.7255 F       1  UNL1       -0.1700
     30 F          -6.7461  -15.1239   25.4678 F       1  UNL1       -0.1700
@<TRIPOS>BOND
     1    23    24    1
     2    24     1    1
     3     1     2   ar
     4     2     3    2
     5     2     4   ar
     6     4     5   ar
     7     5     6    1
     8     5     7   ar
     9     7    13    1
    10    13    14    2
    11    13    15   am
    12    15    16    1
    13    16    17    1
    14    17    18    1
    15    18    19    1
    16    18    20    1
    17    20    21    1
    18     7     8   ar
    19     8     9   ar
    20     9    10   ar
    21    10    25    1
    22    25    26    1
    23    26    27    1
    24    27    28    1
    25    27    29    1
    26    27    30    1
    27    10    11   ar
    28    11    12    2
    29    11     1   ar
    30     9     4   ar
    31    21    15    1
    32    19    22    1
@<TRIPOS>MOLECULE
*****
 30 32 0 0 0
SMALL
GASTEIGER

@<TRIPOS>ATOM
      1 N         -10.4784  -17.3287   22.4240 N.ar    1  UNL1       -0.2487
      2 C          -9.2018  -16.8301   23.0339 C.ar    1  UNL1        0.2658
      3 O          -9.2273  -15.6678   23.9818 O.2     1  UNL1       -0.2668
      4 C          -7.8999  -17.4940   22.6960 C.ar    1  UNL1        0.0751
      5 C          -6.4919  -17.2256   23.1382 C.ar    1  UNL1       -0.0049
      6 C          -6.0561  -16.1496   24.0881 C.3     1  UNL1        0.0319
      7 C          -5.5963  -18.2220   22.4636 C.ar    1  UNL1        0.0805
      8 S          -6.4508  -19.1062   21.6045 S.2     1  UNL1       -0.0653
      9 C          -7.8745  -18.6563   21.7481 C.ar    1  UNL1        0.0982
     10 N          -9.1510  -19.1548   21.1383 N.ar    1  UNL1       -0.2754
     11 C         -10.4529  -18.4909   21.4762 C.ar    1  UNL1        0.3341
     12 O         -11.7295  -18.9895   20.8663 O.2     1  UNL1       -0.2462
     13 C          -4.1076  -18.3175   22.6206 C.2     1  UNL1        0.2548
     14 O          -3.5086  -18.5249   23.9801 O.2     1  UNL1       -0.2694
     15 N          -3.2179  -18.2056   21.4181 N.am    1  UNL1       -0.2755
     16 C          -3.8169  -17.9982   20.0587 C.3     1  UNL1        0.0962
     17 C          -2.9272  -17.8862   18.8562 C.3     1  UNL1        0.0508
     18 C          -1.4385  -17.9817   19.0132 C.3     1  UNL1        0.1139
     19 O          -0.5488  -17.8698   17.8107 O.3     1  UNL1       -0.3843
     20 C          -0.8395  -18.1891   20.3728 C.3     1  UNL1        0.0508
     21 C          -1.7292  -18.3010   21.5752 C.3     1  UNL1        0.0962
     22 H          -1.0919  -17.7391   17.0177 H       1  UNL1        0.2103
     23 C         -12.8982  -17.4668   23.3598 C.3     1  UNL1        0.0267
     24 C         -11.7804  -16.6648   22.7620 C.3     1  UNL1        0.1136
     25 C          -9.1256  -20.3171   20.1904 C.3     1  UNL1        0.1198
     26 C          -8.8078  -20.0962   18.7412 C.3     1  UNL1        0.1279
     27 C          -9.0578  -21.1884   17.7437 C.3     1  UNL1        0.3997
     28 F          -9.3078  -22.2805   16.7463 F       1  UNL1       -0.1700
     29 F          -7.8795  -21.9467   18.2789 F       1  UNL1       -0.1700
     30 F         -10.2361  -20.4300   17.2086 F       1  UNL1       -0.1700
@<TRIPOS>BOND
     1    23    24    1
     2    24     1    1
     3     1     2   ar
     4     2     3    2
     5     2     4   ar
     6     4     5   ar
     7     5     6    1
     8     5     7   ar
     9     7    13    1
    10    13    14    2
    11    13    15   am
    12    15    16    1
    13    16    17    1
    14    17    18    1
    15    18    19    1
    16    18    20    1
    17    20    21    1
    18     7     8   ar
    19     8     9   ar
    20     9    10   ar
    21    10    25    1
    22    25    26    1
    23    26    27    1
    24    27    28    1
    25    27    29    1
    26    27    30    1
    27    10    11   ar
    28    11    12    2
    29    11     1   ar
    30     9     4   ar
    31    21    15    1
    32    19    22    1
@<TRIPOS>MOLECULE
*****
 30 32 0 0 0
SMALL
GASTEIGER

@<TRIPOS>ATOM
      1 N         -10.9622  -17.2599   21.5970 N.ar    1  UNL1       -0.2487
      2 C         -10.2051  -18.1664   20.6722 C.ar    1  UNL1        0.2658
      3 O         -10.8754  -18.7203   19.4499 O.2     1  UNL1       -0.2668
      4 C          -8.7778  -18.5190   20.9698 C.ar    1  UNL1        0.0751
      5 C          -7.7856  -19.3815   20.2477 C.ar    1  UNL1       -0.0049
      6 C          -8.0332  -20.1329   18.9733 C.3     1  UNL1        0.0319
      7 C          -6.5021  -19.3607   21.0238 C.ar    1  UNL1        0.0805
      8 S          -6.7011  -18.4853   22.2255 S.2     1  UNL1       -0.0653
      9 C          -8.1077  -17.9651   22.1921 C.ar    1  UNL1        0.0982
     10 N          -8.8647  -17.0586   23.1168 N.ar    1  UNL1       -0.2754
     11 C         -10.2920  -16.7060   22.8192 C.ar    1  UNL1        0.3341
     12 O         -11.0491  -15.7995   23.7440 O.2     1  UNL1       -0.2462
     13 C          -5.2409  -20.0876   20.6617 C.2     1  UNL1        0.2548
     14 O          -5.2948  -21.5357   20.2744 O.2     1  UNL1       -0.2694
     15 N          -3.9259  -19.3664   20.6870 N.am    1  UNL1       -0.2755
     16 C          -3.8720  -17.9183   21.0743 C.3     1  UNL1        0.0962
     17 C          -2.5570  -17.1971   21.0996 C.3     1  UNL1        0.0508
     18 C          -1.2959  -17.9240   20.7375 C.3     1  UNL1        0.1139
     19 O           0.0191  -17.2029   20.7628 O.3     1  UNL1       -0.3843
     20 C          -1.3498  -19.3722   20.3502 C.3     1  UNL1        0.0508
     21 C          -2.6648  -20.0934   20.3249 C.3     1  UNL1        0.0962
     22 H          -0.1224  -16.2818   21.0320 H       1  UNL1        0.2103
     23 C         -13.5023  -17.7126   21.9020 C.3     1  UNL1        0.0267
     24 C         -12.3895  -16.9073   21.2994 C.3     1  UNL1        0.1136
     25 C          -8.1946  -16.5047   24.3392 C.3     1  UNL1        0.1198
     26 C          -7.3037  -15.3032   24.2266 C.3     1  UNL1        0.1279
     27 C          -6.1032  -15.1737   25.1167 C.3     1  UNL1        0.3997
     28 F          -4.9027  -15.0441   26.0066 F       1  UNL1       -0.1700
     29 F          -5.2182  -15.0804   23.9092 F       1  UNL1       -0.1700
     30 F          -6.9882  -15.2669   26.3241 F       1  UNL1       -0.1700
@<TRIPOS>BOND
     1    23    24    1
     2    24     1    1
     3     1     2   ar
     4     2     3    2
     5     2     4   ar
     6     4     5   ar
     7     5     6    1
     8     5     7   ar
     9     7    13    1
    10    13    14    2
    11    13    15   am
    12    15    16    1
    13    16    17    1
    14    17    18    1
    15    18    19    1
    16    18    20    1
    17    20    21    1
    18     7     8   ar
    19     8     9   ar
    20     9    10   ar
    21    10    25    1
    22    25    26    1
    23    26    27    1
    24    27    28    1
    25    27    29    1
    26    27    30    1
    27    10    11   ar
    28    11    12    2
    29    11     1   ar
    30     9     4   ar
    31    21    15    1
    32    19    22    1
@<TRIPOS>MOLECULE
*****
 30 32 0 0 0
SMALL
GASTEIGER

@<TRIPOS>ATOM
      1 N          -8.2610  -16.0218   24.6527 N.ar    1  UNL1       -0.2487
      2 C          -6.8161  -16.4031   24.5216 C.ar    1  UNL1        0.2658
      3 O          -5.8150  -15.9035   25.5207 O.2     1  UNL1       -0.2668
      4 C          -6.3726  -17.2839   23.3914 C.ar    1  UNL1        0.0751
      5 C          -5.0263  -17.8226   23.0075 C.ar    1  UNL1       -0.0049
      6 C          -3.7372  -17.5727   23.7326 C.3     1  UNL1        0.0319
      7 C          -5.1955  -18.6550   21.7712 C.ar    1  UNL1        0.0805
      8 S          -6.6463  -18.6309   21.3910 S.2     1  UNL1       -0.0653
      9 C          -7.3738  -17.7835   22.3923 C.ar    1  UNL1        0.0982
     10 N          -8.8186  -17.4022   22.5235 N.ar    1  UNL1       -0.2754
     11 C          -9.2621  -16.5213   23.6537 C.ar    1  UNL1        0.3341
     12 O         -10.7070  -16.1400   23.7848 O.2     1  UNL1       -0.2462
     13 C          -4.1052  -19.3837   21.0430 C.2     1  UNL1        0.2548
     14 O          -4.2968  -20.8175   20.6459 O.2     1  UNL1       -0.2694
     15 N          -2.8233  -18.6787   20.7118 N.am    1  UNL1       -0.2755
     16 C          -2.6316  -17.2450   21.1088 C.3     1  UNL1        0.0962
     17 C          -1.3497  -16.5400   20.7776 C.3     1  UNL1        0.0508
     18 C          -0.2595  -17.2687   20.0493 C.3     1  UNL1        0.1139
     19 O           1.0224  -16.5637   19.7181 O.3     1  UNL1       -0.3843
     20 C          -0.4512  -18.7025   19.6523 C.3     1  UNL1        0.0508
     21 C          -1.7331  -19.4075   19.9835 C.3     1  UNL1        0.0962
     22 H           0.9824  -15.6506   20.0429 H       1  UNL1        0.2103
     23 C          -8.4307  -15.5455   27.2012 C.3     1  UNL1        0.0267
     24 C          -8.7046  -15.1409   25.7829 C.3     1  UNL1        0.1136
     25 C          -9.8198  -17.9017   21.5245 C.3     1  UNL1        0.1198
     26 C         -10.5110  -19.2141   21.7474 C.3     1  UNL1        0.1279
     27 C         -10.7423  -19.7123   23.1432 C.3     1  UNL1        0.3997
     28 F         -10.9735  -20.2106   24.5390 F       1  UNL1       -0.1700
     29 F          -9.4409  -20.4564   23.0932 F       1  UNL1       -0.1700
     30 F         -12.0437  -18.9683   23.1932 F       1  UNL1       -0.1700
@<TRIPOS>BOND
     1    23    24    1
     2    24     1    1
     3     1     2   ar
     4     2     3    2
     5     2     4   ar
     6     4     5   ar
     7     5     6    1
     8     5     7   ar
     9     7    13    1
    10    13    14    2
    11    13    15   am
    12    15    16    1
    13    16    17    1
    14    17    18    1
    15    18    19    1
    16    18    20    1
    17    20    21    1
    18     7     8   ar
    19     8     9   ar
    20     9    10   ar
    21    10    25    1
    22    25    26    1
    23    26    27    1
    24    27    28    1
    25    27    29    1
    26    27    30    1
    27    10    11   ar
    28    11    12    2
    29    11     1   ar
    30     9     4   ar
    31    21    15    1
    32    19    22    1
@<TRIPOS>MOLECULE
*****
 30 32 0 0 0
SMALL
GASTEIGER

@<TRIPOS>ATOM
      1 N           6.2029    1.0999   17.7627 N.ar    1  UNL1       -0.2487
      2 C           5.3257    2.1849   18.3136 C.ar    1  UNL1        0.2658
      3 O           5.8450    3.5883   18.4186 O.2     1  UNL1       -0.2668
      4 C           3.9294    1.8665   18.7594 C.ar    1  UNL1        0.0751
      5 C           2.8415    2.7211   19.3392 C.ar    1  UNL1       -0.0049
      6 C           2.9297    4.1925   19.6169 C.3     1  UNL1        0.0319
      7 C           1.6499    1.8459   19.5925 C.ar    1  UNL1        0.0805
      8 S           2.0014    0.4504   19.1693 S.2     1  UNL1       -0.0653
      9 C           3.4102    0.4631   18.6544 C.ar    1  UNL1        0.0982
     10 N           4.2874   -0.6218   18.1036 N.ar    1  UNL1       -0.2754
     11 C           5.6837   -0.3034   17.6577 C.ar    1  UNL1        0.3341
     12 O           6.5609   -1.3884   17.1069 O.2     1  UNL1       -0.2462
     13 C           0.3373    2.2884   20.1679 C.2     1  UNL1        0.2548
     14 O           0.0242    2.0253   21.6111 O.2     1  UNL1       -0.2694
     15 N          -0.6623    2.9941   19.3002 N.am    1  UNL1       -0.2755
     16 C          -0.3492    3.2573   17.8571 C.3     1  UNL1        0.0962
     17 C          -1.3488    3.9630   16.9894 C.3     1  UNL1        0.0508
     18 C          -2.6614    4.4055   17.5648 C.3     1  UNL1        0.1139
     19 O          -3.6610    5.1112   16.6971 O.3     1  UNL1       -0.3843
     20 C          -2.9744    4.1423   19.0080 C.3     1  UNL1        0.0508
     21 C          -1.9749    3.4367   19.8757 C.3     1  UNL1        0.0962
     22 H          -3.3042    5.2002   15.7995 H       1  UNL1        0.2103
     23 C           7.8321    2.0617   15.9820 C.3     1  UNL1        0.0267
     24 C           7.5993    1.4183   17.3169 C.3     1  UNL1        0.1136
     25 C           3.7682   -2.0252   17.9986 C.3     1  UNL1        0.1198
     26 C           3.8351   -2.9404   19.1851 C.3     1  UNL1        0.1279
     27 C           4.2478   -4.3714   19.0062 C.3     1  UNL1        0.3997
     28 F           4.6605   -5.8024   18.8272 F       1  UNL1       -0.1700
     29 F           2.8072   -4.7889   19.0235 F       1  UNL1       -0.1700
     30 F           5.6883   -3.9538   18.9888 F       1  UNL1       -0.1700
@<TRIPOS>BOND
     1    23    24    1
     2    24     1    1
     3     1     2   ar
     4     2     3    2
     5     2     4   ar
     6     4     5   ar
     7     5     6    1
     8     5     7   ar
     9     7    13    1
    10    13    14    2
    11    13    15   am
    12    15    16    1
    13    16    17    1
    14    17    18    1
    15    18    19    1
    16    18    20    1
    17    20    21    1
    18     7     8   ar
    19     8     9   ar
    20     9    10   ar
    21    10    25    1
    22    25    26    1
    23    26    27    1
    24    27    28    1
    25    27    29    1
    26    27    30    1
    27    10    11   ar
    28    11    12    2
    29    11     1   ar
    30     9     4   ar
    31    21    15    1
    32    19    22    1
@<TRIPOS>MOLECULE
*****
 30 32 0 0 0
SMALL
GASTEIGER

@<TRIPOS>ATOM
      1 N           6.5829    1.0011   17.7580 N.ar    1  UNL1       -0.2487
      2 C           5.6860    2.1754   18.0161 C.ar    1  UNL1        0.2658
      3 O           6.2615    3.5592   18.0789 O.2     1  UNL1       -0.2668
      4 C           4.2136    1.9659   18.2113 C.ar    1  UNL1        0.0751
      5 C           3.0904    2.9232   18.4796 C.ar    1  UNL1       -0.0049
      6 C           3.2150    4.4114   18.6202 C.3     1  UNL1        0.0319
      7 C           1.8208    2.1311   18.5825 C.ar    1  UNL1        0.0805
      8 S           2.1593    0.6842   18.3779 S.2     1  UNL1       -0.0653
      9 C           3.6381    0.5821   18.1485 C.ar    1  UNL1        0.0982
     10 N           4.5351   -0.5922   17.8904 N.ar    1  UNL1       -0.2754
     11 C           6.0075   -0.3826   17.6952 C.ar    1  UNL1        0.3341
     12 O           6.9044   -1.5570   17.4372 O.2     1  UNL1       -0.2462
     13 C           0.4529    2.6881   18.8442 C.2     1  UNL1        0.2548
     14 O          -0.4323    3.0732   17.6962 O.2     1  UNL1       -0.2694
     15 N          -0.0299    2.8599   20.2540 N.am    1  UNL1       -0.2755
     16 C           0.8552    2.4748   21.4021 C.3     1  UNL1        0.0962
     17 C           0.3724    2.6466   22.8118 C.3     1  UNL1        0.0508
     18 C          -0.9955    3.2036   23.0735 C.3     1  UNL1        0.1139
     19 O          -1.4783    3.3754   24.4832 O.3     1  UNL1       -0.3843
     20 C          -1.8807    3.5887   21.9253 C.3     1  UNL1        0.0508
     21 C          -1.3979    3.4169   20.5156 C.3     1  UNL1        0.0962
     22 H          -0.7892    3.0808   25.0991 H       1  UNL1        0.2103
     23 C           8.9929    1.0750   18.7259 C.3     1  UNL1        0.0267
     24 C           8.0554    1.2107   17.5628 C.3     1  UNL1        0.1136
     25 C           3.9596   -1.9760   17.8276 C.3     1  UNL1        0.1198
     26 C           3.9189   -2.8281   19.0614 C.3     1  UNL1        0.1279
     27 C           4.2821   -4.2813   18.9816 C.3     1  UNL1        0.3997
     28 F           4.6451   -5.7345   18.9017 F       1  UNL1       -0.1700
     29 F           2.8307   -4.6367   18.8504 F       1  UNL1       -0.1700
     30 F           5.7333   -3.9259   19.1128 F       1  UNL1       -0.1700
@<TRIPOS>BOND
     1    23    24    1
     2    24     1    1
     3     1     2   ar
     4     2     3    2
     5     2     4   ar
     6     4     5   ar
     7     5     6    1
     8     5     7   ar
     9     7    13    1
    10    13    14    2
    11    13    15   am
    12    15    16    1
    13    16    17    1
    14    17    18    1
    15    18    19    1
    16    18    20    1
    17    20    21    1
    18     7     8   ar
    19     8     9   ar
    20     9    10   ar
    21    10    25    1
    22    25    26    1
    23    26    27    1
    24    27    28    1
    25    27    29    1
    26    27    30    1
    27    10    11   ar
    28    11    12    2
    29    11     1   ar
    30     9     4   ar
    31    21    15    1
    32    19    22    1
@<TRIPOS>MOLECULE
*****
 30 32 0 0 0
SMALL
GASTEIGER

@<TRIPOS>ATOM
      1 N           5.2670   -3.1639   21.9935 N.ar    1  UNL1       -0.2487
      2 C           4.7308   -2.4570   23.2031 C.ar    1  UNL1        0.2658
      3 O           3.4724   -1.6468   23.1019 O.2     1  UNL1       -0.2668
      4 C           5.4529   -2.5605   24.5137 C.ar    1  UNL1        0.0751
      5 C           5.1662   -1.9788   25.8663 C.ar    1  UNL1       -0.0049
      6 C           4.0026   -1.1007   26.2197 C.3     1  UNL1        0.0319
      7 C           6.2473   -2.4296   26.8033 C.ar    1  UNL1        0.0805
      8 S           7.2022   -3.2898   26.0299 S.2     1  UNL1       -0.0653
      9 C           6.7113   -3.3707   24.6148 C.ar    1  UNL1        0.0982
     10 N           7.2474   -4.0775   23.4052 N.ar    1  UNL1       -0.2754
     11 C           6.5253   -3.9740   22.0946 C.ar    1  UNL1        0.3341
     12 O           7.0615   -4.6808   20.8850 O.2     1  UNL1       -0.2462
     13 C           6.3547   -2.0813   28.2583 C.2     1  UNL1        0.2548
     14 O           6.2737   -0.6484   28.6945 O.2     1  UNL1       -0.2694
     15 N           6.5430   -3.1658   29.2772 N.am    1  UNL1       -0.2755
     16 C           6.6240   -4.5987   28.8412 C.3     1  UNL1        0.0962
     17 C           6.8124   -5.6833   29.8601 C.3     1  UNL1        0.0508
     18 C           6.9198   -5.3350   31.3152 C.3     1  UNL1        0.1139
     19 O           7.1081   -6.4196   32.3341 O.3     1  UNL1       -0.3843
     20 C           6.8388   -3.9020   31.7512 C.3     1  UNL1        0.0508
     21 C           6.6504   -2.8174   30.7323 C.3     1  UNL1        0.0962
     22 H           7.1394   -7.2804   31.8880 H       1  UNL1        0.2103
     23 C           4.8006   -1.8935   19.7756 C.3     1  UNL1        0.0267
     24 C           4.5448   -3.0604   20.6828 C.3     1  UNL1        0.1136
     25 C           8.5057   -4.8877   23.5063 C.3     1  UNL1        0.1198
     26 C           8.4310   -6.3541   23.8128 C.3     1  UNL1        0.1279
     27 C           8.5923   -6.8343   25.2247 C.3     1  UNL1        0.3997
     28 F           8.7536   -7.3146   26.6366 F       1  UNL1       -0.1700
     29 F           7.6486   -7.9668   24.9473 F       1  UNL1       -0.1700
     30 F           9.5360   -5.7020   25.5021 F       1  UNL1       -0.1700
@<TRIPOS>BOND
     1    23    24    1
     2    24     1    1
     3     1     2   ar
     4     2     3    2
     5     2     4   ar
     6     4     5   ar
     7     5     6    1
     8     5     7   ar
     9     7    13    1
    10    13    14    2
    11    13    15   am
    12    15    16    1
    13    16    17    1
    14    17    18    1
    15    18    19    1
    16    18    20    1
    17    20    21    1
    18     7     8   ar
    19     8     9   ar
    20     9    10   ar
    21    10    25    1
    22    25    26    1
    23    26    27    1
    24    27    28    1
    25    27    29    1
    26    27    30    1
    27    10    11   ar
    28    11    12    2
    29    11     1   ar
    30     9     4   ar
    31    21    15    1
    32    19    22    1
@<TRIPOS>MOLECULE
*****
 30 32 0 0 0
SMALL
GASTEIGER

@<TRIPOS>ATOM
      1 N          -3.7346    3.3979   21.6280 N.ar    1  UNL1       -0.2487
      2 C          -3.8856    3.4989   23.1170 C.ar    1  UNL1        0.2658
      3 O          -5.2480    3.4209   23.7397 O.2     1  UNL1       -0.2668
      4 C          -2.6741    3.6780   23.9832 C.ar    1  UNL1        0.0751
      5 C          -2.5128    3.8076   25.4689 C.ar    1  UNL1       -0.0049
      6 C          -3.6193    3.7834   26.4813 C.3     1  UNL1        0.0319
      7 C          -1.0507    3.9658   25.7643 C.ar    1  UNL1        0.0805
      8 S          -0.3084    3.9338   24.4612 S.2     1  UNL1       -0.0653
      9 C          -1.3117    3.7560   23.3604 C.ar    1  UNL1        0.0982
     10 N          -1.1608    3.6549   21.8715 N.ar    1  UNL1       -0.2754
     11 C          -2.3723    3.4759   21.0053 C.ar    1  UNL1        0.3341
     12 O          -2.2213    3.3749   19.5163 O.2     1  UNL1       -0.2462
     13 C          -0.4384    4.1275   27.1240 C.2     1  UNL1        0.2548
     14 O          -0.2588    5.4976   27.7075 O.2     1  UNL1       -0.2694
     15 N          -0.0058    2.9191   27.9003 N.am    1  UNL1       -0.2755
     16 C          -0.1854    1.5489   27.3168 C.3     1  UNL1        0.0962
     17 C           0.2473    0.3405   28.0930 C.3     1  UNL1        0.0508
     18 C           0.8596    0.5022   29.4528 C.3     1  UNL1        0.1139
     19 O           1.2923   -0.7062   30.2290 O.3     1  UNL1       -0.3843
     20 C           1.0392    1.8725   30.0363 C.3     1  UNL1        0.0508
     21 C           0.6066    3.0809   29.2600 C.3     1  UNL1        0.0962
     22 H           1.1067   -1.5059   29.7123 H       1  UNL1        0.2103
     23 C          -5.6800    4.4191   20.2414 C.3     1  UNL1        0.0267
     24 C          -4.9461    3.2189   20.7618 C.3     1  UNL1        0.1136
     25 C           0.2016    3.7329   21.2487 C.3     1  UNL1        0.1198
     26 C           1.0518    2.5012   21.1479 C.3     1  UNL1        0.1279
     27 C           0.4213    1.1792   20.8240 C.3     1  UNL1        0.3997
     28 F          -0.2092   -0.1428   20.5003 F       1  UNL1       -0.1700
     29 F           0.4498    0.8097   22.2775 F       1  UNL1       -0.1700
     30 F           0.3928    1.5488   19.3706 F       1  UNL1       -0.1700
@<TRIPOS>BOND
     1    23    24    1
     2    24     1    1
     3     1     2   ar
     4     2     3    2
     5     2     4   ar
     6     4     5   ar
     7     5     6    1
     8     5     7   ar
     9     7    13    1
    10    13    14    2
    11    13    15   am
    12    15    16    1
    13    16    17    1
    14    17    18    1
    15    18    19    1
    16    18    20    1
    17    20    21    1
    18     7     8   ar
    19     8     9   ar
    20     9    10   ar
    21    10    25    1
    22    25    26    1
    23    26    27    1
    24    27    28    1
    25    27    29    1
    26    27    30    1
    27    10    11   ar
    28    11    12    2
    29    11     1   ar
    30     9     4   ar
    31    21    15    1
    32    19    22    1
@<TRIPOS>MOLECULE
*****
 30 32 0 0 0
SMALL
GASTEIGER

@<TRIPOS>ATOM
      1 N           6.1992    0.1802   18.3071 N.ar    1  UNL1       -0.2487
      2 C           5.4745    1.1947   19.1413 C.ar    1  UNL1        0.2658
      3 O           5.9819    2.6043   19.2164 O.2     1  UNL1       -0.2668
      4 C           4.2426    0.7995   19.9003 C.ar    1  UNL1        0.0751
      5 C           3.3250    1.5752   20.7983 C.ar    1  UNL1       -0.0049
      6 C           3.4584    3.0263   21.1540 C.3     1  UNL1        0.0319
      7 C           2.2506    0.6449   21.2781 C.ar    1  UNL1        0.0805
      8 S           2.5041   -0.7056   20.6767 S.2     1  UNL1       -0.0653
      9 C           3.7352   -0.6101   19.8251 C.ar    1  UNL1        0.0982
     10 N           4.4599   -1.6245   18.9910 N.ar    1  UNL1       -0.2754
     11 C           5.6918   -1.2294   18.2320 C.ar    1  UNL1        0.3341
     12 O           6.4165   -2.2439   17.3978 O.2     1  UNL1       -0.2462
     13 C           1.1209    1.0025   22.1979 C.2     1  UNL1        0.2548
     14 O          -0.2160    1.3802   21.6323 O.2     1  UNL1       -0.2694
     15 N           1.3282    0.9823   23.6834 N.am    1  UNL1       -0.2755
     16 C           2.6650    0.6046   24.2491 C.3     1  UNL1        0.0962
     17 C           2.8723    0.5844   25.7346 C.3     1  UNL1        0.0508
     18 C           1.7426    0.9420   26.6544 C.3     1  UNL1        0.1139
     19 O           1.9498    0.9218   28.1399 O.3     1  UNL1       -0.3843
     20 C           0.4057    1.3197   26.0886 C.3     1  UNL1        0.0508
     21 C           0.1984    1.3398   24.6032 C.3     1  UNL1        0.0962
     22 H           2.8628    0.6586   28.3354 H       1  UNL1        0.2103
     23 C           7.3070    1.3229   16.2536 C.3     1  UNL1        0.0267
     24 C           7.4312    0.5753   17.5481 C.3     1  UNL1        0.1136
     25 C           3.9526   -3.0341   18.9158 C.3     1  UNL1        0.1198
     26 C           4.6239   -4.1161   19.7086 C.3     1  UNL1        0.1279
     27 C           5.4188   -3.7664   20.9317 C.3     1  UNL1        0.3997
     28 F           6.2137   -3.4168   22.1547 F       1  UNL1       -0.1700
     29 F           6.6907   -3.9611   20.1607 F       1  UNL1       -0.1700
     30 F           4.1470   -3.5718   21.7027 F       1  UNL1       -0.1700
@<TRIPOS>BOND
     1    23    24    1
     2    24     1    1
     3     1     2   ar
     4     2     3    2
     5     2     4   ar
     6     4     5   ar
     7     5     6    1
     8     5     7   ar
     9     7    13    1
    10    13    14    2
    11    13    15   am
    12    15    16    1
    13    16    17    1
    14    17    18    1
    15    18    19    1
    16    18    20    1
    17    20    21    1
    18     7     8   ar
    19     8     9   ar
    20     9    10   ar
    21    10    25    1
    22    25    26    1
    23    26    27    1
    24    27    28    1
    25    27    29    1
    26    27    30    1
    27    10    11   ar
    28    11    12    2
    29    11     1   ar
    30     9     4   ar
    31    21    15    1
    32    19    22    1
