@<TRIPOS>MOLECULE
*****
 17 18 0 0 0
SMALL
GASTEIGER

@<TRIPOS>ATOM
      1 C          -9.0006  -16.2163   23.6336 C.ar    1  UNL1        0.1493
      2 C          -8.9087  -15.6317   25.0119 C.ar    1  UNL1        0.0405
      3 C          -7.4737  -15.2810   25.2719 C.ar    1  UNL1        0.0375
      4 C          -6.6786  -15.6489   24.0543 C.ar    1  UNL1        0.1385
      5 O          -7.6223  -16.2269   23.0417 O.2     1  UNL1       -0.4562
      6 C         -11.0290  -17.8384   23.5642 C.ar    1  UNL1        0.1447
      7 C         -12.2796  -18.3266   22.8951 C.ar    1  UNL1        0.0577
      8 C         -12.7524  -17.6811   21.6264 C.ar    1  UNL1        0.1020
      9 N         -11.9746  -16.5473   21.0267 N.ar    1  UNL1       -0.2420
     10 C         -10.7241  -16.0591   21.6957 C.ar    1  UNL1        0.1049
     11 C         -10.2513  -16.7046   22.9645 C.ar    1  UNL1        0.0876
     12 C         -10.1536  -19.9288   24.8345 C.3     1  UNL1        0.2525
     13 O         -10.5562  -18.4839   24.8330 O.3     1  UNL1       -0.4712
     14 C          -5.1996  -15.4701   23.8798 C.3     1  UNL1        0.1307
     15 N          -4.6761  -14.5113   22.8518 N.3     1  UNL1       -0.3148
     16 H          -4.9187  -14.8466   21.9195 H       1  UNL1        0.1192
     17 H          -3.6619  -14.4434   22.9355 H       1  UNL1        0.1192
@<TRIPOS>BOND
     1    12    13    1
     2    13     6    1
     3     6     7   ar
     4     7     8   ar
     5     8     9   ar
     6     9    10   ar
     7    10    11   ar
     8    11     1    1
     9     1     2   ar
    10     2     3   ar
    11     3     4   ar
    12     4    14    1
    13    14    15    1
    14     4     5   ar
    15    11     6   ar
    16     5     1   ar
    17    15    16    1
    18    15    17    1
@<TRIPOS>MOLECULE
*****
 17 18 0 0 0
SMALL
GASTEIGER

@<TRIPOS>ATOM
      1 C          -8.3540  -18.5601   21.3390 C.ar    1  UNL1        0.1493
      2 C          -7.9737  -19.6597   22.2856 C.ar    1  UNL1        0.0405
      3 C          -6.5608  -20.0629   21.9841 C.ar    1  UNL1        0.0375
      4 C          -6.0677  -19.2125   20.8511 C.ar    1  UNL1        0.1385
      5 O          -7.1761  -18.2837   20.4524 O.2     1  UNL1       -0.4562
      6 C         -10.0194  -16.8215   22.3156 C.ar    1  UNL1        0.1447
      7 C         -11.3449  -16.1212   22.2644 C.ar    1  UNL1        0.0577
      8 C         -12.3305  -16.4593   21.1855 C.ar    1  UNL1        0.1020
      9 N         -11.9907  -17.4976   20.1577 N.ar    1  UNL1       -0.2420
     10 C         -10.6652  -18.1978   20.2089 C.ar    1  UNL1        0.1049
     11 C          -9.6796  -17.8598   21.2878 C.ar    1  UNL1        0.0876
     12 C          -9.1963  -17.0645   24.7678 C.3     1  UNL1        0.2525
     13 O          -9.0337  -16.4834   23.3946 O.3     1  UNL1       -0.4712
     14 C          -4.7056  -19.2792   20.2264 C.3     1  UNL1        0.1307
     15 N          -4.2672  -18.2121   19.2677 N.3     1  UNL1       -0.3148
     16 H          -4.8428  -18.2533   18.4267 H       1  UNL1        0.1192
     17 H          -3.2893  -18.3603   19.0180 H       1  UNL1        0.1192
@<TRIPOS>BOND
     1    12    13    1
     2    13     6    1
     3     6     7   ar
     4     7     8   ar
     5     8     9   ar
     6     9    10   ar
     7    10    11   ar
     8    11     1    1
     9     1     2   ar
    10     2     3   ar
    11     3     4   ar
    12     4    14    1
    13    14    15    1
    14     4     5   ar
    15    11     6   ar
    16     5     1   ar
    17    15    16    1
    18    15    17    1
@<TRIPOS>MOLECULE
*****
 17 18 0 0 0
SMALL
GASTEIGER

@<TRIPOS>ATOM
      1 C          -4.4375  -19.1625   20.1803 C.ar    1  UNL1        0.1493
      2 C          -4.6306  -20.6492   20.2313 C.ar    1  UNL1        0.0405
      3 C          -6.1049  -20.9251   20.2398 C.ar    1  UNL1        0.0375
      4 C          -6.8231  -19.6090   20.1940 C.ar    1  UNL1        0.1385
      5 O          -5.7926  -18.5197   20.1572 O.2     1  UNL1       -0.4562
      6 C          -2.7881  -17.4518   21.2304 C.ar    1  UNL1        0.1447
      7 C          -1.4713  -16.7340   21.2066 C.ar    1  UNL1        0.0577
      8 C          -0.4868  -17.0092   20.1087 C.ar    1  UNL1        0.1020
      9 N          -0.8193  -18.0022   19.0348 N.ar    1  UNL1       -0.2420
     10 C          -2.1362  -18.7199   19.0586 C.ar    1  UNL1        0.1049
     11 C          -3.1206  -18.4447   20.1564 C.ar    1  UNL1        0.0876
     12 C          -3.6648  -17.9084   23.6331 C.3     1  UNL1        0.2525
     13 O          -3.7725  -17.1765   22.3282 O.3     1  UNL1       -0.4712
     14 C          -8.3107  -19.4161   20.1864 C.3     1  UNL1        0.1307
     15 N          -8.9080  -18.1674   20.7643 N.3     1  UNL1       -0.3148
     16 H          -8.7378  -18.1429   21.7697 H       1  UNL1        0.1192
     17 H          -9.9128  -18.1586   20.5892 H       1  UNL1        0.1192
@<TRIPOS>BOND
     1    12    13    1
     2    13     6    1
     3     6     7   ar
     4     7     8   ar
     5     8     9   ar
     6     9    10   ar
     7    10    11   ar
     8    11     1    1
     9     1     2   ar
    10     2     3   ar
    11     3     4   ar
    12     4    14    1
    13    14    15    1
    14     4     5   ar
    15    11     6   ar
    16     5     1   ar
    17    15    16    1
    18    15    17    1
@<TRIPOS>MOLECULE
*****
 17 18 0 0 0
SMALL
GASTEIGER

@<TRIPOS>ATOM
      1 C          -5.9730  -19.3995   20.1659 C.ar    1  UNL1        0.1493
      2 C          -5.3307  -20.7507   20.2736 C.ar    1  UNL1        0.0405
      3 C          -3.8627  -20.5884   20.0117 C.ar    1  UNL1        0.0375
      4 C          -3.5976  -19.1368   19.7422 C.ar    1  UNL1        0.1385
      5 O          -4.9018  -18.4020   19.8375 O.2     1  UNL1       -0.4562
      6 C          -7.8770  -18.2368   21.4974 C.ar    1  UNL1        0.1447
      7 C          -9.3344  -17.9358   21.6851 C.ar    1  UNL1        0.0577
      8 C         -10.3453  -18.4965   20.7292 C.ar    1  UNL1        0.1020
      9 N          -9.8987  -19.3581   19.5855 N.ar    1  UNL1       -0.2420
     10 C          -8.4413  -19.6591   19.3977 C.ar    1  UNL1        0.1049
     11 C          -7.4304  -19.0984   20.3537 C.ar    1  UNL1        0.0876
     12 C          -7.2031  -16.4702   23.2792 C.3     1  UNL1        0.2525
     13 O          -6.8662  -17.6762   22.4534 O.3     1  UNL1       -0.4712
     14 C          -2.2628  -18.5271   19.4318 C.3     1  UNL1        0.1307
     15 N          -1.0865  -18.8052   20.3201 N.3     1  UNL1       -0.3148
     16 H          -1.2510  -18.3967   21.2401 H       1  UNL1        0.1192
     17 H          -0.2470  -18.3949   19.9110 H       1  UNL1        0.1192
@<TRIPOS>BOND
     1    12    13    1
     2    13     6    1
     3     6     7   ar
     4     7     8   ar
     5     8     9   ar
     6     9    10   ar
     7    10    11   ar
     8    11     1    1
     9     1     2   ar
    10     2     3   ar
    11     3     4   ar
    12     4    14    1
    13    14    15    1
    14     4     5   ar
    15    11     6   ar
    16     5     1   ar
    17    15    16    1
    18    15    17    1
@<TRIPOS>MOLECULE
*****
 17 18 0 0 0
SMALL
GASTEIGER

@<TRIPOS>ATOM
      1 C          -9.5841  -18.7777   20.8234 C.ar    1  UNL1        0.1493
      2 C          -9.6793  -19.5726   19.5549 C.ar    1  UNL1        0.0405
      3 C          -8.2908  -19.9752   19.1549 C.ar    1  UNL1        0.0375
      4 C          -7.3374  -19.4292   20.1762 C.ar    1  UNL1        0.1385
      5 O          -8.1368  -18.6891   21.2074 O.2     1  UNL1       -0.4562
      6 C         -11.3086  -18.8910   22.7633 C.ar    1  UNL1        0.1447
      7 C         -12.4587  -18.2902   23.5157 C.ar    1  UNL1        0.0577
      8 C         -13.0346  -16.9752   23.0807 C.ar    1  UNL1        0.1020
      9 N         -12.4603  -16.2611   21.8932 N.ar    1  UNL1       -0.2420
     10 C         -11.3101  -16.8619   21.1408 C.ar    1  UNL1        0.1049
     11 C         -10.7343  -18.1769   21.5759 C.ar    1  UNL1        0.0876
     12 C          -9.8700  -20.2785   24.4233 C.3     1  UNL1        0.2525
     13 O         -10.7328  -20.2060   23.1984 O.3     1  UNL1       -0.4712
     14 C          -5.8466  -19.5943   20.1678 C.3     1  UNL1        0.1307
     15 N          -4.9744  -18.5042   19.6192 N.3     1  UNL1       -0.3148
     16 H          -5.1411  -18.4070   18.6176 H       1  UNL1        0.1192
     17 H          -3.9949  -18.7392   19.7796 H       1  UNL1        0.1192
@<TRIPOS>BOND
     1    12    13    1
     2    13     6    1
     3     6     7   ar
     4     7     8   ar
     5     8     9   ar
     6     9    10   ar
     7    10    11   ar
     8    11     1    1
     9     1     2   ar
    10     2     3   ar
    11     3     4   ar
    12     4    14    1
    13    14    15    1
    14     4     5   ar
    15    11     6   ar
    16     5     1   ar
    17    15    16    1
    18    15    17    1
@<TRIPOS>MOLECULE
*****
 17 18 0 0 0
SMALL
GASTEIGER

@<TRIPOS>ATOM
      1 C          -9.6938  -17.1298   24.0624 C.ar    1  UNL1        0.1493
      2 C         -10.3273  -18.3771   24.6036 C.ar    1  UNL1        0.0405
      3 C         -11.5734  -18.6448   23.8126 C.ar    1  UNL1        0.0375
      4 C         -11.7099  -17.5629   22.7825 C.ar    1  UNL1        0.1385
      5 O         -10.5483  -16.6266   22.9369 O.2     1  UNL1       -0.4562
      6 C          -7.2367  -16.3908   23.6542 C.ar    1  UNL1        0.1447
      7 C          -5.9709  -15.7578   24.1512 C.ar    1  UNL1        0.0577
      8 C          -5.8964  -15.2307   25.5536 C.ar    1  UNL1        0.1020
      9 N          -7.0877  -15.3366   26.4589 N.ar    1  UNL1       -0.2420
     10 C          -8.3535  -15.9696   25.9618 C.ar    1  UNL1        0.1049
     11 C          -8.4279  -16.4967   24.5595 C.ar    1  UNL1        0.0876
     12 C          -7.0348  -18.3669   21.9795 C.3     1  UNL1        0.2525
     13 O          -7.3112  -16.9180   22.2518 O.3     1  UNL1       -0.4712
     14 C         -12.8143  -17.4391   21.7750 C.3     1  UNL1        0.1307
     15 N         -12.5852  -16.6822   20.5004 N.3     1  UNL1       -0.3148
     16 H         -12.4366  -15.6957   20.7129 H       1  UNL1        0.1192
     17 H         -13.4004  -16.7806   19.8953 H       1  UNL1        0.1192
@<TRIPOS>BOND
     1    12    13    1
     2    13     6    1
     3     6     7   ar
     4     7     8   ar
     5     8     9   ar
     6     9    10   ar
     7    10    11   ar
     8    11     1    1
     9     1     2   ar
    10     2     3   ar
    11     3     4   ar
    12     4    14    1
    13    14    15    1
    14     4     5   ar
    15    11     6   ar
    16     5     1   ar
    17    15    16    1
    18    15    17    1
@<TRIPOS>MOLECULE
*****
 17 18 0 0 0
SMALL
GASTEIGER

@<TRIPOS>ATOM
      1 C          -6.6393  -18.6556   21.9628 C.ar    1  UNL1        0.1493
      2 C          -7.5827  -19.7742   22.2925 C.ar    1  UNL1        0.0405
      3 C          -8.9824  -19.2435   22.1964 C.ar    1  UNL1        0.0375
      4 C          -8.9040  -17.7969   21.8072 C.ar    1  UNL1        0.1385
      5 O          -7.4559  -17.4337   21.6629 O.2     1  UNL1       -0.4562
      6 C          -4.3261  -17.9206   22.8898 C.ar    1  UNL1        0.1447
      7 C          -2.8290  -18.0086   22.8644 C.ar    1  UNL1        0.0577
      8 C          -2.1477  -18.9196   21.8866 C.ar    1  UNL1        0.1020
      9 N          -2.9636  -19.7426   20.9343 N.ar    1  UNL1       -0.2420
     10 C          -4.4607  -19.6546   20.9597 C.ar    1  UNL1        0.1049
     11 C          -5.1420  -18.7436   21.9374 C.ar    1  UNL1        0.0876
     12 C          -4.9142  -15.5223   23.6973 C.3     1  UNL1        0.2525
     13 O          -5.0074  -17.0097   23.8675 O.3     1  UNL1       -0.4712
     14 C         -10.0692  -16.8755   21.5990 C.3     1  UNL1        0.1307
     15 N          -9.8469  -15.4980   21.0485 N.3     1  UNL1       -0.3148
     16 H          -9.3108  -14.9465   21.7184 H       1  UNL1        0.1192
     17 H         -10.7475  -15.0490   20.8820 H       1  UNL1        0.1192
@<TRIPOS>BOND
     1    12    13    1
     2    13     6    1
     3     6     7   ar
     4     7     8   ar
     5     8     9   ar
     6     9    10   ar
     7    10    11   ar
     8    11     1    1
     9     1     2   ar
    10     2     3   ar
    11     3     4   ar
    12     4    14    1
    13    14    15    1
    14     4     5   ar
    15    11     6   ar
    16     5     1   ar
    17    15    16    1
    18    15    17    1
@<TRIPOS>MOLECULE
*****
 17 18 0 0 0
SMALL
GASTEIGER

@<TRIPOS>ATOM
      1 C          -6.5107  -18.6860   21.8940 C.ar    1  UNL1        0.1493
      2 C          -6.3217  -19.1855   20.4924 C.ar    1  UNL1        0.0405
      3 C          -4.8492  -19.3334   20.2476 C.ar    1  UNL1        0.0375
      4 C          -4.1281  -18.9253   21.4980 C.ar    1  UNL1        0.1385
      5 O          -5.1550  -18.5252   22.5156 O.2     1  UNL1       -0.4562
      6 C          -8.1591  -16.9989   22.9834 C.ar    1  UNL1        0.1447
      7 C          -9.4730  -16.7108   23.6471 C.ar    1  UNL1        0.0577
      8 C         -10.4526  -17.8215   23.8851 C.ar    1  UNL1        0.1020
      9 N         -10.1182  -19.2204   23.4594 N.ar    1  UNL1       -0.2420
     10 C          -8.8043  -19.5085   22.7957 C.ar    1  UNL1        0.1049
     11 C          -7.8247  -18.3978   22.5577 C.ar    1  UNL1        0.0876
     12 C          -6.4178  -15.3004   23.8963 C.3     1  UNL1        0.2525
     13 O          -7.1795  -15.8881   22.7455 O.3     1  UNL1       -0.4712
     14 C          -2.6413  -18.9186   21.6961 C.3     1  UNL1        0.1307
     15 N          -1.8426  -20.1585   21.4226 N.3     1  UNL1       -0.3148
     16 H          -2.1007  -20.8837   22.0918 H       1  UNL1        0.1192
     17 H          -0.8484  -19.9496   21.5141 H       1  UNL1        0.1192
@<TRIPOS>BOND
     1    12    13    1
     2    13     6    1
     3     6     7   ar
     4     7     8   ar
     5     8     9   ar
     6     9    10   ar
     7    10    11   ar
     8    11     1    1
     9     1     2   ar
    10     2     3   ar
    11     3     4   ar
    12     4    14    1
    13    14    15    1
    14     4     5   ar
    15    11     6   ar
    16     5     1   ar
    17    15    16    1
    18    15    17    1
@<TRIPOS>MOLECULE
*****
 17 18 0 0 0
SMALL
GASTEIGER

@<TRIPOS>ATOM
      1 C          -4.2457  -16.9714   23.2378 C.ar    1  UNL1        0.1493
      2 C          -3.9194  -18.4276   23.0866 C.ar    1  UNL1        0.0405
      3 C          -2.7607  -18.5473   22.1416 C.ar    1  UNL1        0.0375
      4 C          -2.3708  -17.1650   21.7088 C.ar    1  UNL1        0.1385
      5 O          -3.2885  -16.1911   22.3863 O.2     1  UNL1       -0.4562
      6 C          -6.7478  -16.3617   23.5813 C.ar    1  UNL1        0.1447
      7 C          -7.8394  -15.7867   24.4343 C.ar    1  UNL1        0.0577
      8 C          -7.5207  -15.2462   25.7968 C.ar    1  UNL1        0.1020
      9 N          -6.1103  -15.2808   26.3062 N.ar    1  UNL1       -0.2420
     10 C          -5.0187  -15.8558   25.4533 C.ar    1  UNL1        0.1049
     11 C          -5.3374  -16.3963   24.0908 C.ar    1  UNL1        0.0876
     12 C          -7.5732  -18.3059   22.0685 C.3     1  UNL1        0.2525
     13 O          -7.0665  -16.9022   22.2188 O.3     1  UNL1       -0.4712
     14 C          -1.2584  -16.8178   20.7643 C.3     1  UNL1        0.1307
     15 N          -0.0214  -17.6649   20.7187 N.3     1  UNL1       -0.3148
     16 H           0.4769  -17.5871   21.6053 H       1  UNL1        0.1192
     17 H           0.5817  -17.3455   19.9606 H       1  UNL1        0.1192
@<TRIPOS>BOND
     1    12    13    1
     2    13     6    1
     3     6     7   ar
     4     7     8   ar
     5     8     9   ar
     6     9    10   ar
     7    10    11   ar
     8    11     1    1
     9     1     2   ar
    10     2     3   ar
    11     3     4   ar
    12     4    14    1
    13    14    15    1
    14     4     5   ar
    15    11     6   ar
    16     5     1   ar
    17    15    16    1
    18    15    17    1
