@<TRIPOS>MOLECULE
*****
 41 44 0 0 0
SMALL
GASTEIGER

@<TRIPOS>ATOM
      1 C           6.5235   -3.1719   25.6119 C.2     1  UNL1        0.2485
      2 O           7.2619   -1.9536   25.1427 O.2     1  UNL1       -0.2726
      3 N           5.5706   -3.8729   24.6896 N.am    1  UNL1       -0.2823
      4 H           5.0859   -4.6726   24.9976 H       1  UNL1        0.1549
      5 C           6.1477   -1.9595   31.0914 C.ar    1  UNL1        0.1054
      6 C           5.7948   -1.0639   29.9410 C.ar    1  UNL1        0.0181
      7 C           5.9579   -1.5529   28.5324 C.ar    1  UNL1       -0.0011
      8 C           6.4740   -2.9374   28.2741 C.ar    1  UNL1        0.0022
      9 C           6.8270   -3.8329   29.4245 C.ar    1  UNL1       -0.0030
     10 C           6.6638   -3.3439   30.8332 C.ar    1  UNL1        0.0155
     11 C           7.3091   -5.1385   28.8648 C.3     1  UNL1        0.1207
     12 N           7.2541   -5.0497   27.3684 N.am    1  UNL1       -0.2635
     13 C           7.6463   -6.1314   26.4060 C.2     1  UNL1        0.2537
     14 O           7.5367   -5.8967   24.9285 O.2     1  UNL1       -0.2722
     15 C           6.7380   -3.6894   27.0034 C.3     1  UNL1        0.1751
     16 C           8.1480   -7.4479   26.9211 C.3     1  UNL1        0.1935
     17 C           9.3474   -7.8927   27.7044 C.3     1  UNL1        0.0711
     18 C           8.8576   -9.3095   27.6495 C.3     1  UNL1        0.1457
     19 O           7.6583   -8.8645   26.8662 O.3     1  UNL1       -0.3469
     20 S           5.9845   -1.4705   32.5000 S.O2    1  UNL1        0.0086
     21 O           5.2701   -2.7399   32.8580 O.2     1  UNL1       -0.1686
     22 O           6.6989   -0.2010   32.1421 O.2     1  UNL1       -0.1686
     23 C           4.4807   -1.0548   34.5775 C.3     1  UNL1        0.0276
     24 C           5.8213   -0.9815   33.9087 C.3     1  UNL1        0.1560
     25 C           5.3561   -3.3554   23.2981 C.ar    1  UNL1        0.0503
     26 C           6.3004   -3.7444   22.1994 C.ar    1  UNL1        0.0144
     27 C           6.0859   -3.2269   20.8080 C.ar    1  UNL1       -0.0002
     28 C           4.9272   -2.3205   20.5151 C.ar    1  UNL1        0.0182
     29 C           3.9829   -1.9315   21.6138 C.ar    1  UNL1       -0.0002
     30 C           4.1974   -2.4490   23.0053 C.ar    1  UNL1        0.0144
     31 C           4.7127   -1.8030   19.1236 C.3     1  UNL1        0.2827
     32 O           4.7853   -0.3951   19.6360 O.3     1  UNL1       -0.3692
     33 H           4.9317   -0.4071   20.5949 H       1  UNL1        0.2112
     34 C           4.4982   -1.2855   17.7322 C.3     1  UNL1        0.4311
     35 F           4.2838   -0.7680   16.3407 F       1  UNL1       -0.1669
     36 F           5.9325   -0.8505   17.6729 F       1  UNL1       -0.1669
     37 F           3.6422   -1.5033   17.6668 F       1  UNL1       -0.1669
     38 C           4.6402   -3.2109   18.6112 C.3     1  UNL1        0.4311
     39 F           4.5676   -4.6188   18.0988 F       1  UNL1       -0.1669
     40 F           5.4181   -3.2119   18.1878 F       1  UNL1       -0.1669
     41 F           3.3261   -3.7177   19.1272 F       1  UNL1       -0.1669
@<TRIPOS>BOND
     1    23    24    1
     2    24    20    1
     3    20    21    2
     4    20    22    2
     5    20     5    1
     6     5     6   ar
     7     6     7   ar
     8     7     8   ar
     9     8     9   ar
    10     9    10   ar
    11     9    11    1
    12    11    12    1
    13    12    13   am
    14    13    14    2
    15    13    16    1
    16    16    17    1
    17    17    18    1
    18    18    19    1
    19    12    15    1
    20    15     1    1
    21     1     2    2
    22     1     3   am
    23     3    25    1
    24    25    26   ar
    25    26    27   ar
    26    27    28   ar
    27    28    31    1
    28    31    32    1
    29    31    34    1
    30    34    35    1
    31    34    36    1
    32    34    37    1
    33    31    38    1
    34    38    39    1
    35    38    40    1
    36    38    41    1
    37    28    29   ar
    38    29    30   ar
    39    10     5   ar
    40    19    16    1
    41    30    25   ar
    42    15     8    1
    43     3     4    1
    44    32    33    1
@<TRIPOS>MOLECULE
*****
 41 44 0 0 0
SMALL
GASTEIGER

@<TRIPOS>ATOM
      1 C           4.9733   -1.0758   26.2571 C.2     1  UNL1        0.2485
      2 O           5.7395    0.0391   25.6093 O.2     1  UNL1       -0.2726
      3 N           4.1769   -2.0272   25.4141 N.am    1  UNL1       -0.2823
      4 H           3.6740   -2.7590   25.8392 H       1  UNL1        0.1549
      5 C           3.1051    0.9573   31.1574 C.ar    1  UNL1        0.1054
      6 C           2.7945    1.4777   29.7854 C.ar    1  UNL1        0.0181
      7 C           3.3831    0.8091   28.5785 C.ar    1  UNL1       -0.0011
      8 C           4.2823   -0.3801   28.7437 C.ar    1  UNL1        0.0022
      9 C           4.5929   -0.9006   30.1158 C.ar    1  UNL1       -0.0030
     10 C           4.0043   -0.2319   31.3226 C.ar    1  UNL1        0.0155
     11 C           5.5058   -2.0816   29.9679 C.3     1  UNL1        0.1207
     12 N           5.7594   -2.2910   28.5044 N.am    1  UNL1       -0.2635
     13 C           6.6184   -3.3636   27.9030 C.2     1  UNL1        0.2537
     14 O           6.7789   -3.4492   26.4141 O.2     1  UNL1       -0.2722
     15 C           5.0032   -1.2394   27.7479 C.3     1  UNL1        0.1751
     16 C           7.3169   -4.3507   28.7906 C.3     1  UNL1        0.1935
     17 C           6.8880   -5.5396   29.5984 C.3     1  UNL1        0.0711
     18 C           8.3047   -5.7466   30.0458 C.3     1  UNL1        0.1457
     19 O           8.7335   -4.5578   29.2379 O.3     1  UNL1       -0.3469
     20 S           2.5165    1.6259   32.3642 S.O2    1  UNL1        0.0086
     21 O           3.8873    1.7603   32.9583 O.2     1  UNL1       -0.1686
     22 O           1.1457    1.4916   31.7701 O.2     1  UNL1       -0.1686
     23 C           2.6673    2.2728   34.8760 C.3     1  UNL1        0.0276
     24 C           1.9279    2.2946   33.5711 C.3     1  UNL1        0.1560
     25 C           4.1470   -1.8636   23.9233 C.ar    1  UNL1        0.0503
     26 C           3.2034   -0.8811   23.2954 C.ar    1  UNL1        0.0144
     27 C           3.1734   -0.7175   21.8047 C.ar    1  UNL1       -0.0002
     28 C           4.0870   -1.5364   20.9418 C.ar    1  UNL1        0.0182
     29 C           5.0306   -2.5190   21.5697 C.ar    1  UNL1       -0.0002
     30 C           5.0605   -2.6825   23.0604 C.ar    1  UNL1        0.0144
     31 C           4.0570   -1.3729   19.4510 C.3     1  UNL1        0.2827
     32 O           4.6391    0.0026   19.5902 O.3     1  UNL1       -0.3692
     33 H           4.7828    0.1993   20.5291 H       1  UNL1        0.2112
     34 C           4.0270   -1.2093   17.9603 C.3     1  UNL1        0.4311
     35 F           3.9970   -1.0457   16.4695 F       1  UNL1       -0.1669
     36 F           5.5239   -1.2965   17.9206 F       1  UNL1       -0.1669
     37 F           3.1475   -1.1464   17.8763 F       1  UNL1       -0.1669
     38 C           3.4749   -2.7483   19.3118 C.3     1  UNL1        0.4311
     39 F           2.8928   -4.1237   19.1726 F       1  UNL1       -0.1669
     40 F           2.6918   -2.5726   19.6867 F       1  UNL1       -0.1669
     41 F           4.5610   -3.5359   18.6410 F       1  UNL1       -0.1669
@<TRIPOS>BOND
     1    23    24    1
     2    24    20    1
     3    20    21    2
     4    20    22    2
     5    20     5    1
     6     5     6   ar
     7     6     7   ar
     8     7     8   ar
     9     8     9   ar
    10     9    10   ar
    11     9    11    1
    12    11    12    1
    13    12    13   am
    14    13    14    2
    15    13    16    1
    16    16    17    1
    17    17    18    1
    18    18    19    1
    19    12    15    1
    20    15     1    1
    21     1     2    2
    22     1     3   am
    23     3    25    1
    24    25    26   ar
    25    26    27   ar
    26    27    28   ar
    27    28    31    1
    28    31    32    1
    29    31    34    1
    30    34    35    1
    31    34    36    1
    32    34    37    1
    33    31    38    1
    34    38    39    1
    35    38    40    1
    36    38    41    1
    37    28    29   ar
    38    29    30   ar
    39    10     5   ar
    40    19    16    1
    41    30    25   ar
    42    15     8    1
    43     3     4    1
    44    32    33    1
@<TRIPOS>MOLECULE
*****
 41 44 0 0 0
SMALL
GASTEIGER

@<TRIPOS>ATOM
      1 C          -0.5308    2.7724   20.9386 C.2     1  UNL1        0.2485
      2 O           0.7778    3.3645   21.3709 O.2     1  UNL1       -0.2726
      3 N          -0.5639    1.4220   20.2865 N.am    1  UNL1       -0.2823
      4 H          -1.4228    1.0333   20.0028 H       1  UNL1        0.1549
      5 C          -4.1655    4.6628   24.7925 C.ar    1  UNL1        0.1054
      6 C          -2.9113    3.8783   25.0406 C.ar    1  UNL1        0.0181
      7 C          -2.0526    3.4521   23.8869 C.ar    1  UNL1       -0.0011
      8 C          -2.4481    3.8104   22.4851 C.ar    1  UNL1        0.0022
      9 C          -3.7023    4.5948   22.2369 C.ar    1  UNL1       -0.0030
     10 C          -4.5609    5.0210   23.3906 C.ar    1  UNL1        0.0155
     11 C          -3.8355    4.8000   20.7570 C.3     1  UNL1        0.1207
     12 N          -2.6637    4.1423   20.0905 N.am    1  UNL1       -0.2635
     13 C          -2.3962    4.1030   18.6150 C.2     1  UNL1        0.2537
     14 O          -1.1764    3.4040   18.0922 O.2     1  UNL1       -0.2722
     15 C          -1.8062    3.5306   21.1585 C.3     1  UNL1        0.1751
     16 C          -3.3487    4.7628   17.6624 C.3     1  UNL1        0.1935
     17 C          -4.2271    4.2891   16.5425 C.3     1  UNL1        0.0711
     18 C          -4.6956    5.6958   16.3151 C.3     1  UNL1        0.1457
     19 O          -3.8172    6.1694   17.4350 O.3     1  UNL1       -0.3469
     20 S          -5.0242    5.0890   25.9461 S.O2    1  UNL1        0.0086
     21 O          -5.5216    6.2554   25.1449 O.2     1  UNL1       -0.1686
     22 O          -4.5267    3.9226   26.7474 O.2     1  UNL1       -0.1686
     23 C          -7.1072    6.3468   26.8564 C.3     1  UNL1        0.0276
     24 C          -5.8828    5.5152   27.0998 C.3     1  UNL1        0.1560
     25 C           0.7115    0.6638   20.0666 C.ar    1  UNL1        0.0503
     26 C           1.2958   -0.1590   21.1764 C.ar    1  UNL1        0.0144
     27 C           2.5712   -0.9172   20.9565 C.ar    1  UNL1       -0.0002
     28 C           3.2624   -0.8527   19.6269 C.ar    1  UNL1        0.0182
     29 C           2.6781   -0.0299   18.5171 C.ar    1  UNL1       -0.0002
     30 C           1.4027    0.7283   18.7369 C.ar    1  UNL1        0.0144
     31 C           4.5379   -1.6109   19.4070 C.3     1  UNL1        0.2827
     32 O           5.3168   -0.3343   19.5234 O.3     1  UNL1       -0.3692
     33 H           4.7071    0.4031   19.6825 H       1  UNL1        0.2112
     34 C           5.8133   -2.3691   19.1871 C.3     1  UNL1        0.4311
     35 F           7.0887   -3.1273   18.9672 F       1  UNL1       -0.1669
     36 F           6.2949   -1.9528   20.5453 F       1  UNL1       -0.1669
     37 F           5.6228   -2.6676   18.3752 F       1  UNL1       -0.1669
     38 C           3.7589   -2.8875   19.2906 C.3     1  UNL1        0.4311
     39 F           2.9799   -4.1640   19.1742 F       1  UNL1       -0.1669
     40 F           3.4090   -2.7281   18.4926 F       1  UNL1       -0.1669
     41 F           4.0568   -3.6123   20.5695 F       1  UNL1       -0.1669
@<TRIPOS>BOND
     1    23    24    1
     2    24    20    1
     3    20    21    2
     4    20    22    2
     5    20     5    1
     6     5     6   ar
     7     6     7   ar
     8     7     8   ar
     9     8     9   ar
    10     9    10   ar
    11     9    11    1
    12    11    12    1
    13    12    13   am
    14    13    14    2
    15    13    16    1
    16    16    17    1
    17    17    18    1
    18    18    19    1
    19    12    15    1
    20    15     1    1
    21     1     2    2
    22     1     3   am
    23     3    25    1
    24    25    26   ar
    25    26    27   ar
    26    27    28   ar
    27    28    31    1
    28    31    32    1
    29    31    34    1
    30    34    35    1
    31    34    36    1
    32    34    37    1
    33    31    38    1
    34    38    39    1
    35    38    40    1
    36    38    41    1
    37    28    29   ar
    38    29    30   ar
    39    10     5   ar
    40    19    16    1
    41    30    25   ar
    42    15     8    1
    43     3     4    1
    44    32    33    1
@<TRIPOS>MOLECULE
*****
 41 44 0 0 0
SMALL
GASTEIGER

@<TRIPOS>ATOM
      1 C           1.4103    1.4512   24.4685 C.2     1  UNL1        0.2485
      2 O           2.1251    2.4672   23.6278 O.2     1  UNL1       -0.2726
      3 N           1.5894   -0.0119   24.1906 N.am    1  UNL1       -0.2823
      4 H           1.1203   -0.6788   24.7423 H       1  UNL1        0.1549
      5 C          -3.4129    4.0390   25.7631 C.ar    1  UNL1        0.1054
      6 C          -2.8614    3.7885   24.3909 C.ar    1  UNL1        0.0181
      7 C          -1.5504    3.0781   24.2277 C.ar    1  UNL1       -0.0011
      8 C          -0.7909    2.6182   25.4367 C.ar    1  UNL1        0.0022
      9 C          -1.3425    2.8687   26.8089 C.ar    1  UNL1       -0.0030
     10 C          -2.6535    3.5791   26.9721 C.ar    1  UNL1        0.0155
     11 C          -0.3761    2.3036   27.8073 C.3     1  UNL1        0.1207
     12 N           0.7727    1.7037   27.0520 N.am    1  UNL1       -0.2635
     13 C           1.9681    1.0281   27.6558 C.2     1  UNL1        0.2537
     14 O           3.0435    0.4733   26.7694 O.2     1  UNL1       -0.2722
     15 C           0.5163    1.8982   25.5869 C.3     1  UNL1        0.1751
     16 C           2.0882    0.9072   29.1461 C.3     1  UNL1        0.1935
     17 C           2.7645    1.7018   30.2236 C.3     1  UNL1        0.0711
     18 C           2.2579    0.7362   31.2537 C.3     1  UNL1        0.1457
     19 O           1.5815   -0.0583   30.1761 O.3     1  UNL1       -0.3469
     20 S          -4.7239    4.7494   25.9262 S.O2    1  UNL1        0.0086
     21 O          -4.7842    4.9784   24.4450 O.2     1  UNL1       -0.1686
     22 O          -4.6636    4.5205   27.4074 O.2     1  UNL1       -0.1686
     23 C          -6.3850    6.0959   27.4020 C.3     1  UNL1        0.0276
     24 C          -6.0349    5.4598   26.0894 C.3     1  UNL1        0.1560
     25 C           2.4834   -0.4590   23.0721 C.ar    1  UNL1        0.0503
     26 C           2.0399   -0.2995   21.6481 C.ar    1  UNL1        0.0144
     27 C           2.9338   -0.7465   20.5296 C.ar    1  UNL1       -0.0002
     28 C           4.2713   -1.3530   20.8350 C.ar    1  UNL1        0.0182
     29 C           4.7147   -1.5125   22.2591 C.ar    1  UNL1       -0.0002
     30 C           3.8208   -1.0655   23.3776 C.ar    1  UNL1        0.0144
     31 C           5.1652   -1.8001   19.7166 C.3     1  UNL1        0.2827
     32 O           6.1706   -0.7560   20.1028 O.3     1  UNL1       -0.3692
     33 H           5.8423   -0.2584   20.8680 H       1  UNL1        0.2112
     34 C           6.0591   -2.2471   18.5981 C.3     1  UNL1        0.4311
     35 F           6.9531   -2.6941   17.4796 F       1  UNL1       -0.1669
     36 F           5.9687   -0.8831   17.9806 F       1  UNL1       -0.1669
     37 F           6.1765   -3.0787   18.8795 F       1  UNL1       -0.1669
     38 C           4.1598   -2.8441   19.3303 C.3     1  UNL1        0.4311
     39 F           3.1545   -3.8881   18.9440 F       1  UNL1       -0.1669
     40 F           3.9059   -2.4725   18.5674 F       1  UNL1       -0.1669
     41 F           4.2170   -3.8363   20.4538 F       1  UNL1       -0.1669
@<TRIPOS>BOND
     1    23    24    1
     2    24    20    1
     3    20    21    2
     4    20    22    2
     5    20     5    1
     6     5     6   ar
     7     6     7   ar
     8     7     8   ar
     9     8     9   ar
    10     9    10   ar
    11     9    11    1
    12    11    12    1
    13    12    13   am
    14    13    14    2
    15    13    16    1
    16    16    17    1
    17    17    18    1
    18    18    19    1
    19    12    15    1
    20    15     1    1
    21     1     2    2
    22     1     3   am
    23     3    25    1
    24    25    26   ar
    25    26    27   ar
    26    27    28   ar
    27    28    31    1
    28    31    32    1
    29    31    34    1
    30    34    35    1
    31    34    36    1
    32    34    37    1
    33    31    38    1
    34    38    39    1
    35    38    40    1
    36    38    41    1
    37    28    29   ar
    38    29    30   ar
    39    10     5   ar
    40    19    16    1
    41    30    25   ar
    42    15     8    1
    43     3     4    1
    44    32    33    1
@<TRIPOS>MOLECULE
*****
 41 44 0 0 0
SMALL
GASTEIGER

@<TRIPOS>ATOM
      1 C           3.5870   -0.0343   26.3915 C.2     1  UNL1        0.2485
      2 O           4.7549    0.8384   26.7443 O.2     1  UNL1       -0.2726
      3 N           2.9336   -0.8757   27.4475 N.am    1  UNL1       -0.2823
      4 H           2.1670   -1.4484   27.2161 H       1  UNL1        0.1549
      5 C           4.1891   -2.3765   21.3134 C.ar    1  UNL1        0.1054
      6 C           4.9927   -2.6701   22.5455 C.ar    1  UNL1        0.0181
      7 C           4.6946   -1.9469   23.8254 C.ar    1  UNL1       -0.0011
      8 C           3.5928   -0.9302   23.8732 C.ar    1  UNL1        0.0022
      9 C           2.7892   -0.6366   22.6411 C.ar    1  UNL1       -0.0030
     10 C           3.0873   -1.3598   21.3613 C.ar    1  UNL1        0.0155
     11 C           1.7721    0.4095   22.9894 C.3     1  UNL1        0.1207
     12 N           1.9471    0.7625   24.4367 N.am    1  UNL1       -0.2635
     13 C           1.1389    1.7671   25.2033 C.2     1  UNL1        0.2537
     14 O           1.4307    2.0151   26.6536 O.2     1  UNL1       -0.2722
     15 C           3.0724   -0.0655   24.9829 C.3     1  UNL1        0.1751
     16 C           0.0388    2.5236   24.5196 C.3     1  UNL1        0.1935
     17 C          -1.2338    3.1800   24.9665 C.3     1  UNL1        0.0711
     18 C          -1.5170    3.5934   23.5527 C.3     1  UNL1        0.1457
     19 O          -0.2444    2.9369   23.1059 O.3     1  UNL1       -0.3469
     20 S           4.4872   -3.0997   20.0335 S.O2    1  UNL1        0.0086
     21 O           4.2759   -1.8285   19.2660 O.2     1  UNL1       -0.1686
     22 O           4.6986   -4.3710   20.8011 O.2     1  UNL1       -0.1686
     23 C           4.6346   -5.3136   18.6818 C.3     1  UNL1        0.0276
     24 C           4.7854   -3.8229   18.7537 C.3     1  UNL1        0.1560
     25 C           3.4481   -0.8445   28.8562 C.ar    1  UNL1        0.0503
     26 C           2.5466   -0.4125   29.9745 C.ar    1  UNL1        0.0144
     27 C           3.0612   -0.3813   31.3832 C.ar    1  UNL1       -0.0002
     28 C           4.4772   -0.7820   31.6735 C.ar    1  UNL1        0.0182
     29 C           5.3787   -1.2139   30.5551 C.ar    1  UNL1       -0.0002
     30 C           4.8641   -1.2452   29.1465 C.ar    1  UNL1        0.0144
     31 C           4.9917   -0.7507   33.0821 C.3     1  UNL1        0.2827
     32 O           4.6158    0.6976   33.1874 O.3     1  UNL1       -0.3692
     33 H           4.2210    0.9907   32.3512 H       1  UNL1        0.2112
     34 C           5.5063   -0.7195   34.4908 C.3     1  UNL1        0.4311
     35 F           6.0208   -0.6883   35.8994 F       1  UNL1       -0.1669
     36 F           4.2436   -1.3748   34.9665 F       1  UNL1       -0.1669
     37 F           6.2833   -0.3332   34.3133 F       1  UNL1       -0.1669
     38 C           5.3677   -2.1990   32.9769 C.3     1  UNL1        0.4311
     39 F           5.7436   -3.6473   32.8717 F       1  UNL1       -0.1669
     40 F           6.2458   -2.0833   32.9815 F       1  UNL1       -0.1669
     41 F           4.0497   -2.9138   32.9313 F       1  UNL1       -0.1669
@<TRIPOS>BOND
     1    23    24    1
     2    24    20    1
     3    20    21    2
     4    20    22    2
     5    20     5    1
     6     5     6   ar
     7     6     7   ar
     8     7     8   ar
     9     8     9   ar
    10     9    10   ar
    11     9    11    1
    12    11    12    1
    13    12    13   am
    14    13    14    2
    15    13    16    1
    16    16    17    1
    17    17    18    1
    18    18    19    1
    19    12    15    1
    20    15     1    1
    21     1     2    2
    22     1     3   am
    23     3    25    1
    24    25    26   ar
    25    26    27   ar
    26    27    28   ar
    27    28    31    1
    28    31    32    1
    29    31    34    1
    30    34    35    1
    31    34    36    1
    32    34    37    1
    33    31    38    1
    34    38    39    1
    35    38    40    1
    36    38    41    1
    37    28    29   ar
    38    29    30   ar
    39    10     5   ar
    40    19    16    1
    41    30    25   ar
    42    15     8    1
    43     3     4    1
    44    32    33    1
@<TRIPOS>MOLECULE
*****
 41 44 0 0 0
SMALL
GASTEIGER

@<TRIPOS>ATOM
      1 C          -0.8145    3.2067   20.6716 C.2     1  UNL1        0.2485
      2 O          -0.7756    3.0471   22.1625 O.2     1  UNL1       -0.2726
      3 N          -2.0703    3.6784   20.0004 N.am    1  UNL1       -0.2823
      4 H          -2.0959    3.7832   19.0218 H       1  UNL1        0.1549
      5 C           2.8624   -0.7924   19.2144 C.ar    1  UNL1        0.1054
      6 C           1.6960   -0.9331   20.1469 C.ar    1  UNL1        0.0181
      7 C           0.8116    0.2461   20.4250 C.ar    1  UNL1       -0.0011
      8 C           1.0935    1.5660   19.7704 C.ar    1  UNL1        0.0022
      9 C           2.2599    1.7067   18.8379 C.ar    1  UNL1       -0.0030
     10 C           3.1443    0.5275   18.5599 C.ar    1  UNL1        0.0155
     11 C           2.2896    3.1224   18.3429 C.3     1  UNL1        0.1207
     12 N           1.1415    3.8566   18.9696 N.am    1  UNL1       -0.2635
     13 C           0.7936    5.2995   18.7522 C.2     1  UNL1        0.2537
     14 O          -0.3904    5.8990   19.4512 O.2     1  UNL1       -0.2722
     15 C           0.4023    2.8947   19.8518 C.3     1  UNL1        0.1751
     16 C           1.6298    6.1428   17.8359 C.3     1  UNL1        0.1935
     17 C           1.9545    6.1163   16.3717 C.3     1  UNL1        0.0711
     18 C           2.8124    7.3353   16.5400 C.3     1  UNL1        0.1457
     19 O           2.4876    7.3616   18.0042 O.3     1  UNL1       -0.3469
     20 S           3.7468   -1.9716   18.9363 S.O2    1  UNL1        0.0086
     21 O           4.0300   -1.4356   17.5643 O.2     1  UNL1       -0.1686
     22 O           3.4637   -2.5075   20.3084 O.2     1  UNL1       -0.1686
     23 C           4.1549   -4.5371   18.9762 C.3     1  UNL1        0.0276
     24 C           4.6313   -3.1507   18.6583 C.3     1  UNL1        0.1560
     25 C          -3.2871    3.9904   20.8202 C.ar    1  UNL1        0.0503
     26 C          -4.3468    2.9471   21.0167 C.ar    1  UNL1        0.0144
     27 C          -5.5636    3.2592   21.8365 C.ar    1  UNL1       -0.0002
     28 C          -5.7208    4.6144   22.4597 C.ar    1  UNL1        0.0182
     29 C          -4.6611    5.6578   22.2631 C.ar    1  UNL1       -0.0002
     30 C          -3.4443    5.3457   21.4434 C.ar    1  UNL1        0.0144
     31 C          -6.9376    4.9265   23.2795 C.3     1  UNL1        0.2827
     32 O          -7.7423    5.0873   22.0238 O.3     1  UNL1       -0.3692
     33 H          -7.1739    4.9318   21.2534 H       1  UNL1        0.2112
     34 C          -8.1544    5.2385   24.0992 C.3     1  UNL1        0.4311
     35 F          -9.3712    5.5505   24.9190 F       1  UNL1       -0.1669
     36 F          -8.6989    3.8707   23.8116 F       1  UNL1       -0.1669
     37 F          -7.9228    6.0626   24.3268 F       1  UNL1       -0.1669
     38 C          -6.1329    4.7656   24.5351 C.3     1  UNL1        0.4311
     39 F          -5.3283    4.6047   25.7907 F       1  UNL1       -0.1669
     40 F          -6.2374    3.8900   24.6189 F       1  UNL1       -0.1669
     41 F          -5.6693    6.1570   24.8498 F       1  UNL1       -0.1669
@<TRIPOS>BOND
     1    23    24    1
     2    24    20    1
     3    20    21    2
     4    20    22    2
     5    20     5    1
     6     5     6   ar
     7     6     7   ar
     8     7     8   ar
     9     8     9   ar
    10     9    10   ar
    11     9    11    1
    12    11    12    1
    13    12    13   am
    14    13    14    2
    15    13    16    1
    16    16    17    1
    17    17    18    1
    18    18    19    1
    19    12    15    1
    20    15     1    1
    21     1     2    2
    22     1     3   am
    23     3    25    1
    24    25    26   ar
    25    26    27   ar
    26    27    28   ar
    27    28    31    1
    28    31    32    1
    29    31    34    1
    30    34    35    1
    31    34    36    1
    32    34    37    1
    33    31    38    1
    34    38    39    1
    35    38    40    1
    36    38    41    1
    37    28    29   ar
    38    29    30   ar
    39    10     5   ar
    40    19    16    1
    41    30    25   ar
    42    15     8    1
    43     3     4    1
    44    32    33    1
@<TRIPOS>MOLECULE
*****
 41 44 0 0 0
SMALL
GASTEIGER

@<TRIPOS>ATOM
      1 C           1.9872    1.0353   25.0504 C.2     1  UNL1        0.2485
      2 O           2.4321    2.4653   25.1349 O.2     1  UNL1       -0.2726
      3 N           0.5490    0.6821   25.2892 N.am    1  UNL1       -0.2823
      4 H           0.2569   -0.2565   25.2338 H       1  UNL1        0.1549
      5 C           3.9838   -2.3351   21.0143 C.ar    1  UNL1        0.1054
      6 C           2.8874   -1.3199   20.8840 C.ar    1  UNL1        0.0181
      7 C           2.4785   -0.5008   22.0723 C.ar    1  UNL1       -0.0011
      8 C           3.1660   -0.6970   23.3909 C.ar    1  UNL1        0.0022
      9 C           4.2624   -1.7123   23.5212 C.ar    1  UNL1       -0.0030
     10 C           4.6713   -2.5314   22.3329 C.ar    1  UNL1        0.0155
     11 C           4.7543   -1.6841   24.9381 C.3     1  UNL1        0.1207
     12 N           3.9618   -0.6514   25.6833 N.am    1  UNL1       -0.2635
     13 C           4.1227   -0.2918   27.1307 C.2     1  UNL1        0.2537
     14 O           3.2536    0.7672   27.7415 O.2     1  UNL1       -0.2722
     15 C           2.9802   -0.0414   24.7271 C.3     1  UNL1        0.1751
     16 C           5.1527   -0.9913   27.9673 C.3     1  UNL1        0.1935
     17 C           5.2186   -1.4707   29.3871 C.3     1  UNL1        0.0711
     18 C           6.6093   -1.9805   29.1504 C.3     1  UNL1        0.1457
     19 O           6.5433   -1.5011   27.7306 O.3     1  UNL1       -0.3469
     20 S           4.3927   -3.1542   19.8261 S.O2    1  UNL1        0.0086
     21 O           4.0622   -2.0051   18.9203 O.2     1  UNL1       -0.1686
     22 O           4.7232   -4.3032   20.7318 O.2     1  UNL1       -0.1686
     23 C           4.6267   -5.4628   18.6576 C.3     1  UNL1        0.0276
     24 C           4.8016   -3.9732   18.6378 C.3     1  UNL1        0.1560
     25 C          -0.4440    1.7588   25.6125 C.ar    1  UNL1        0.0503
     26 C          -0.8880    1.9687   27.0298 C.ar    1  UNL1        0.0144
     27 C          -1.8810    3.0454   27.3531 C.ar    1  UNL1       -0.0002
     28 C          -2.4302    3.9122   26.2591 C.ar    1  UNL1        0.0182
     29 C          -1.9863    3.7023   24.8417 C.ar    1  UNL1       -0.0002
     30 C          -0.9932    2.6256   24.5185 C.ar    1  UNL1        0.0144
     31 C          -3.4233    4.9889   26.5824 C.3     1  UNL1        0.2827
     32 O          -2.3516    5.7654   27.2884 O.3     1  UNL1       -0.3692
     33 H          -1.5151    5.2763   27.2435 H       1  UNL1        0.2112
     34 C          -4.4163    6.0656   26.9056 C.3     1  UNL1        0.4311
     35 F          -5.4094    7.1423   27.2289 F       1  UNL1       -0.1669
     36 F          -3.6525    7.0283   26.0456 F       1  UNL1       -0.1669
     37 F          -4.9355    5.5788   27.4330 F       1  UNL1       -0.1669
     38 C          -4.4950    4.2124   25.8764 C.3     1  UNL1        0.4311
     39 F          -5.5667    3.4359   25.1703 F       1  UNL1       -0.1669
     40 F          -4.5699    3.5634   26.4744 F       1  UNL1       -0.1669
     41 F          -4.7581    5.0065   24.6313 F       1  UNL1       -0.1669
@<TRIPOS>BOND
     1    23    24    1
     2    24    20    1
     3    20    21    2
     4    20    22    2
     5    20     5    1
     6     5     6   ar
     7     6     7   ar
     8     7     8   ar
     9     8     9   ar
    10     9    10   ar
    11     9    11    1
    12    11    12    1
    13    12    13   am
    14    13    14    2
    15    13    16    1
    16    16    17    1
    17    17    18    1
    18    18    19    1
    19    12    15    1
    20    15     1    1
    21     1     2    2
    22     1     3   am
    23     3    25    1
    24    25    26   ar
    25    26    27   ar
    26    27    28   ar
    27    28    31    1
    28    31    32    1
    29    31    34    1
    30    34    35    1
    31    34    36    1
    32    34    37    1
    33    31    38    1
    34    38    39    1
    35    38    40    1
    36    38    41    1
    37    28    29   ar
    38    29    30   ar
    39    10     5   ar
    40    19    16    1
    41    30    25   ar
    42    15     8    1
    43     3     4    1
    44    32    33    1
@<TRIPOS>MOLECULE
*****
 41 44 0 0 0
SMALL
GASTEIGER

@<TRIPOS>ATOM
      1 C           2.2437    1.2893   25.5091 C.2     1  UNL1        0.2485
      2 O           3.4619    2.0572   25.0894 O.2     1  UNL1       -0.2726
      3 N           1.8422    0.0526   24.7611 N.am    1  UNL1       -0.2823
      4 H           1.0426   -0.4515   25.0365 H       1  UNL1        0.1549
      5 C           2.1119    1.8888   31.1001 C.ar    1  UNL1        0.1054
      6 C           3.2309    1.3219   30.2778 C.ar    1  UNL1        0.0181
      7 C           3.0966    1.2358   28.7863 C.ar    1  UNL1       -0.0011
      8 C           1.8432    1.7165   28.1171 C.ar    1  UNL1        0.0022
      9 C           0.7241    2.2833   28.9395 C.ar    1  UNL1       -0.0030
     10 C           0.8584    2.3695   30.4309 C.ar    1  UNL1        0.0155
     11 C          -0.3838    2.6752   28.0072 C.3     1  UNL1        0.1207
     12 N           0.0506    2.3505   26.6087 N.am    1  UNL1       -0.2635
     13 C          -0.7507    2.5783   25.3612 C.2     1  UNL1        0.2537
     14 O          -0.1821    2.2013   24.0253 O.2     1  UNL1       -0.2722
     15 C           1.4269    1.7580   26.6766 C.3     1  UNL1        0.1751
     16 C          -2.1205    3.1831   25.4496 C.3     1  UNL1        0.1935
     17 C          -3.1077    3.7226   24.4576 C.3     1  UNL1        0.0711
     18 C          -4.0577    4.0384   25.5747 C.3     1  UNL1        0.1457
     19 O          -3.0703    3.4989   26.5667 O.3     1  UNL1       -0.3469
     20 S           2.2462    1.9749   32.5916 S.O2    1  UNL1        0.0086
     21 O           3.1752    0.7973   32.5759 O.2     1  UNL1       -0.1686
     22 O           1.3172    3.1525   32.6072 O.2     1  UNL1       -0.1686
     23 C           2.1153    3.3591   34.7863 C.3     1  UNL1        0.0276
     24 C           2.3805    2.0610   34.0831 C.3     1  UNL1        0.1560
     25 C           2.6590   -0.4161   23.5936 C.ar    1  UNL1        0.0503
     26 C           2.2878    0.0032   22.2020 C.ar    1  UNL1        0.0144
     27 C           3.1046   -0.4655   21.0345 C.ar    1  UNL1       -0.0002
     28 C           4.2925   -1.3535   21.2584 C.ar    1  UNL1        0.0182
     29 C           4.6636   -1.7729   22.6499 C.ar    1  UNL1       -0.0002
     30 C           3.8469   -1.3042   23.8175 C.ar    1  UNL1        0.0144
     31 C           5.1092   -1.8222   20.0908 C.3     1  UNL1        0.2827
     32 O           6.2165   -0.8936   20.4926 O.3     1  UNL1       -0.3692
     33 H           5.9573   -0.4076   21.2910 H       1  UNL1        0.2112
     34 C           5.9260   -2.2909   18.9232 C.3     1  UNL1        0.4311
     35 F           6.7427   -2.7597   17.7557 F       1  UNL1       -0.1669
     36 F           5.8308   -0.9260   18.3087 F       1  UNL1       -0.1669
     37 F           6.0406   -3.1247   19.1994 F       1  UNL1       -0.1669
     38 C           4.0019   -2.7509   19.6890 C.3     1  UNL1        0.4311
     39 F           2.8946   -3.6796   19.2872 F       1  UNL1       -0.1669
     40 F           4.0611   -3.2966   20.3842 F       1  UNL1       -0.1669
     41 F           3.5041   -2.1829   18.3930 F       1  UNL1       -0.1669
@<TRIPOS>BOND
     1    23    24    1
     2    24    20    1
     3    20    21    2
     4    20    22    2
     5    20     5    1
     6     5     6   ar
     7     6     7   ar
     8     7     8   ar
     9     8     9   ar
    10     9    10   ar
    11     9    11    1
    12    11    12    1
    13    12    13   am
    14    13    14    2
    15    13    16    1
    16    16    17    1
    17    17    18    1
    18    18    19    1
    19    12    15    1
    20    15     1    1
    21     1     2    2
    22     1     3   am
    23     3    25    1
    24    25    26   ar
    25    26    27   ar
    26    27    28   ar
    27    28    31    1
    28    31    32    1
    29    31    34    1
    30    34    35    1
    31    34    36    1
    32    34    37    1
    33    31    38    1
    34    38    39    1
    35    38    40    1
    36    38    41    1
    37    28    29   ar
    38    29    30   ar
    39    10     5   ar
    40    19    16    1
    41    30    25   ar
    42    15     8    1
    43     3     4    1
    44    32    33    1
@<TRIPOS>MOLECULE
*****
 41 44 0 0 0
SMALL
GASTEIGER

@<TRIPOS>ATOM
      1 C           5.2344   -0.3942   31.6032 C.2     1  UNL1        0.2485
      2 O           5.9697    0.9033   31.7635 O.2     1  UNL1       -0.2726
      3 N           4.3257   -0.8808   32.6929 N.am    1  UNL1       -0.2823
      4 H           3.8431   -1.7324   32.5878 H       1  UNL1        0.1549
      5 C           3.9996   -0.7466   26.1271 C.ar    1  UNL1        0.1054
      6 C           3.5804    0.3326   27.0808 C.ar    1  UNL1        0.0181
      7 C           4.0024    0.2682   28.5188 C.ar    1  UNL1       -0.0011
      8 C           4.8437   -0.8753   29.0031 C.ar    1  UNL1        0.0022
      9 C           5.2628   -1.9545   28.0494 C.ar    1  UNL1       -0.0030
     10 C           4.8408   -1.8902   26.6114 C.ar    1  UNL1        0.0155
     11 C           6.0861   -2.9514   28.8102 C.3     1  UNL1        0.1207
     12 N           6.1756   -2.4882   30.2340 N.am    1  UNL1       -0.2635
     13 C           6.9050   -3.1856   31.3439 C.2     1  UNL1        0.2537
     14 O           6.9066   -2.5997   32.7247 O.2     1  UNL1       -0.2722
     15 C           5.4078   -1.2051   30.3533 C.3     1  UNL1        0.1751
     16 C           7.6327   -4.4690   31.0729 C.3     1  UNL1        0.1935
     17 C           9.0743   -4.8798   31.0192 C.3     1  UNL1        0.0711
     18 C           8.6618   -6.2839   30.6897 C.3     1  UNL1        0.1457
     19 O           7.2202   -5.8729   30.7434 O.3     1  UNL1       -0.3469
     20 S           3.5776   -0.6822   24.6892 S.O2    1  UNL1        0.0086
     21 O           4.6440   -1.6748   24.3318 O.2     1  UNL1       -0.1686
     22 O           2.5113    0.3103   25.0465 O.2     1  UNL1       -0.1686
     23 C           3.6157   -1.6705   22.2867 C.3     1  UNL1        0.0276
     24 C           3.1556   -0.6179   23.2512 C.3     1  UNL1        0.1560
     25 C           4.1524   -0.0699   33.9429 C.ar    1  UNL1        0.0503
     26 C           3.3580    1.2020   33.9076 C.ar    1  UNL1        0.0144
     27 C           3.1847    2.0129   35.1576 C.ar    1  UNL1       -0.0002
     28 C           3.8057    1.5520   36.4428 C.ar    1  UNL1        0.0182
     29 C           4.6001    0.2801   36.4780 C.ar    1  UNL1       -0.0002
     30 C           4.7734   -0.5308   35.2281 C.ar    1  UNL1        0.0144
     31 C           3.6324    2.3629   37.6927 C.3     1  UNL1        0.2827
     32 O           4.5463    3.4146   37.1372 O.3     1  UNL1       -0.3692
     33 H           4.8490    3.1469   36.2554 H       1  UNL1        0.2112
     34 C           3.4591    3.1738   38.9427 C.3     1  UNL1        0.4311
     35 F           3.2857    3.9847   40.1926 F       1  UNL1       -0.1669
     36 F           2.3035    3.8950   38.3146 F       1  UNL1       -0.1669
     37 F           4.1239    2.8094   39.4008 F       1  UNL1       -0.1669
     38 C           2.7184    1.3112   38.2483 C.3     1  UNL1        0.4311
     39 F           1.8045    0.2595   38.8038 F       1  UNL1       -0.1669
     40 F           2.0266    1.4802   37.7217 F       1  UNL1       -0.1669
     41 F           3.5337    0.6516   39.3208 F       1  UNL1       -0.1669
@<TRIPOS>BOND
     1    23    24    1
     2    24    20    1
     3    20    21    2
     4    20    22    2
     5    20     5    1
     6     5     6   ar
     7     6     7   ar
     8     7     8   ar
     9     8     9   ar
    10     9    10   ar
    11     9    11    1
    12    11    12    1
    13    12    13   am
    14    13    14    2
    15    13    16    1
    16    16    17    1
    17    17    18    1
    18    18    19    1
    19    12    15    1
    20    15     1    1
    21     1     2    2
    22     1     3   am
    23     3    25    1
    24    25    26   ar
    25    26    27   ar
    26    27    28   ar
    27    28    31    1
    28    31    32    1
    29    31    34    1
    30    34    35    1
    31    34    36    1
    32    34    37    1
    33    31    38    1
    34    38    39    1
    35    38    40    1
    36    38    41    1
    37    28    29   ar
    38    29    30   ar
    39    10     5   ar
    40    19    16    1
    41    30    25   ar
    42    15     8    1
    43     3     4    1
    44    32    33    1
