@<TRIPOS>MOLECULE
*****
 28 31 0 0 0
SMALL
GASTEIGER

@<TRIPOS>ATOM
      1 C         -11.1907  -18.9989   23.2576 C.3     1  UNL1        0.0364
      2 O         -10.2844  -20.0749   25.4418 O.3     1  UNL1       -0.3820
      3 C         -11.3075  -19.2369   24.7339 C.3     1  UNL1        0.1375
      4 H         -10.5062  -20.1281   26.3846 H       1  UNL1        0.2104
      5 C         -10.5603  -20.0376   22.3780 C.3     1  UNL1        0.0290
      6 C          -9.2484  -19.7565   21.7071 C.ar    1  UNL1       -0.0189
      7 C          -9.2008  -19.5023   20.2297 C.ar    1  UNL1       -0.0009
      8 C          -7.8889  -19.2212   19.5589 C.ar    1  UNL1        0.0399
      9 C          -6.6246  -19.1943   20.3656 C.ar    1  UNL1        0.1764
     10 C          -6.6722  -19.4485   21.8432 C.ar    1  UNL1        0.1761
     11 C          -7.9840  -19.7296   22.5140 C.ar    1  UNL1        0.0359
     12 O          -5.2724  -19.3580   22.3745 O.3     1  UNL1       -0.4346
     13 C          -4.3596  -19.0478   21.2253 C.3     1  UNL1        0.4294
     14 O          -5.1953  -18.9467   19.9837 O.3     1  UNL1       -0.4346
     15 C         -11.7042  -17.7221   22.6608 C.3     1  UNL1        0.0364
     16 C         -12.6994  -17.7655   21.5394 C.3     1  UNL1        0.1375
     17 O         -12.7494  -16.6504   20.5373 O.3     1  UNL1       -0.3820
     18 H         -13.0349  -15.8339   20.9762 H       1  UNL1        0.2104
     19 C         -11.2225  -16.4020   23.1855 C.3     1  UNL1        0.0290
     20 C          -9.7569  -16.1733   23.4086 C.ar    1  UNL1       -0.0189
     21 C          -8.8141  -16.1575   22.2420 C.ar    1  UNL1       -0.0009
     22 C          -7.3485  -15.9288   22.4653 C.ar    1  UNL1        0.0399
     23 C          -6.8258  -15.7160   23.8550 C.ar    1  UNL1        0.1764
     24 C          -7.7686  -15.7319   25.0216 C.ar    1  UNL1        0.1761
     25 C          -9.2341  -15.9605   24.7984 C.ar    1  UNL1        0.0359
     26 O          -6.9681  -15.4944   26.2677 O.3     1  UNL1       -0.4346
     27 C          -5.5306  -15.3317   25.8713 C.3     1  UNL1        0.4294
     28 O          -5.4427  -15.4687   24.3802 O.3     1  UNL1       -0.4346
@<TRIPOS>BOND
     1     2     3    1
     2     1     3    1
     3     1     5    1
     4     5     6    1
     5     6     7   ar
     6     7     8   ar
     7     8     9   ar
     8     9    10   ar
     9    10    11   ar
    10    10    12    1
    11    12    13    1
    12    13    14    1
    13     1    15    1
    14    15    16    1
    15    16    17    1
    16    15    19    1
    17    19    20    1
    18    20    21   ar
    19    21    22   ar
    20    22    23   ar
    21    23    24   ar
    22    24    25   ar
    23    24    26    1
    24    26    27    1
    25    27    28    1
    26    11     6   ar
    27    25    20   ar
    28    14     9    1
    29    28    23    1
    30     2     4    1
    31    17    18    1
@<TRIPOS>MOLECULE
*****
 28 31 0 0 0
SMALL
GASTEIGER

@<TRIPOS>ATOM
      1 C         -11.7076  -17.7137   22.6766 C.3     1  UNL1        0.0364
      2 O         -12.7319  -16.6480   20.5399 O.3     1  UNL1       -0.3820
      3 C         -12.7073  -17.7486   21.5588 C.3     1  UNL1        0.1375
      4 H         -13.4323  -16.8227   19.8920 H       1  UNL1        0.2104
      5 C         -11.2190  -16.3977   23.2049 C.3     1  UNL1        0.0290
      6 C          -9.7516  -16.1753   23.4232 C.ar    1  UNL1       -0.0189
      7 C          -8.8122  -16.1669   22.2540 C.ar    1  UNL1       -0.0009
      8 C          -7.3450  -15.9446   22.4722 C.ar    1  UNL1        0.0399
      9 C          -6.8171  -15.7306   23.8599 C.ar    1  UNL1        0.1764
     10 C          -7.7565  -15.7390   25.0293 C.ar    1  UNL1        0.1761
     11 C          -9.2238  -15.9614   24.8110 C.ar    1  UNL1        0.0359
     12 O          -6.9513  -15.5021   26.2724 O.3     1  UNL1       -0.4346
     13 C          -5.5143  -15.3472   25.8714 C.3     1  UNL1        0.4294
     14 O          -5.4313  -15.4885   24.3803 O.3     1  UNL1       -0.4346
     15 C         -11.1967  -18.9949   23.2660 C.3     1  UNL1        0.0364
     16 C         -11.3135  -19.2410   24.7410 C.3     1  UNL1        0.1375
     17 O         -10.2631  -20.0403   25.4536 O.3     1  UNL1       -0.3820
     18 H         -10.2817  -20.9561   25.1344 H       1  UNL1        0.2104
     19 C         -10.5689  -20.0301   22.3803 C.3     1  UNL1        0.0290
     20 C          -9.2565  -19.7481   21.7108 C.ar    1  UNL1       -0.0189
     21 C          -9.2099  -19.4744   20.2368 C.ar    1  UNL1       -0.0009
     22 C          -7.8975  -19.1924   19.5674 C.ar    1  UNL1        0.0399
     23 C          -6.6317  -19.1841   20.3721 C.ar    1  UNL1        0.1764
     24 C          -6.6782  -19.4578   21.8462 C.ar    1  UNL1        0.1761
     25 C          -7.9906  -19.7398   22.5156 C.ar    1  UNL1        0.0359
     26 O          -5.2769  -19.3830   22.3760 O.3     1  UNL1       -0.4346
     27 C          -4.3644  -19.0631   21.2293 C.3     1  UNL1        0.4294
     28 O          -5.2016  -18.9402   19.9909 O.3     1  UNL1       -0.4346
@<TRIPOS>BOND
     1     2     3    1
     2     1     3    1
     3     1     5    1
     4     5     6    1
     5     6     7   ar
     6     7     8   ar
     7     8     9   ar
     8     9    10   ar
     9    10    11   ar
    10    10    12    1
    11    12    13    1
    12    13    14    1
    13     1    15    1
    14    15    16    1
    15    16    17    1
    16    15    19    1
    17    19    20    1
    18    20    21   ar
    19    21    22   ar
    20    22    23   ar
    21    23    24   ar
    22    24    25   ar
    23    24    26    1
    24    26    27    1
    25    27    28    1
    26    11     6   ar
    27    25    20   ar
    28    14     9    1
    29    28    23    1
    30     2     4    1
    31    17    18    1
@<TRIPOS>MOLECULE
*****
 28 31 0 0 0
SMALL
GASTEIGER

@<TRIPOS>ATOM
      1 C          -9.0484  -19.3843   21.8042 C.3     1  UNL1        0.0364
      2 O          -9.9628  -18.1951   19.6829 O.3     1  UNL1       -0.3820
      3 C          -9.2142  -19.3313   20.3143 C.3     1  UNL1        0.1375
      4 H          -9.9773  -18.3128   18.7202 H       1  UNL1        0.2104
      5 C          -7.8471  -20.0549   22.4018 C.3     1  UNL1        0.0290
      6 C          -6.4959  -19.8680   21.7778 C.ar    1  UNL1       -0.0189
      7 C          -6.0269  -20.8096   20.7085 C.ar    1  UNL1       -0.0009
      8 C          -4.6758  -20.6228   20.0845 C.ar    1  UNL1        0.0399
      9 C          -3.7935  -19.4944   20.5298 C.ar    1  UNL1        0.1764
     10 C          -4.2625  -18.5528   21.5991 C.ar    1  UNL1        0.1761
     11 C          -5.6136  -18.7395   22.2232 C.ar    1  UNL1        0.0359
     12 O          -3.1810  -17.5396   21.8315 O.3     1  UNL1       -0.4346
     13 C          -2.0437  -17.8550   20.9057 C.3     1  UNL1        0.4294
     14 O          -2.4223  -19.0632   20.1012 O.3     1  UNL1       -0.4346
     15 C         -10.0840  -18.7667   22.6964 C.3     1  UNL1        0.0364
     16 C         -11.0899  -19.6358   23.3914 C.3     1  UNL1        0.1375
     17 O         -11.0169  -19.8265   24.8774 O.3     1  UNL1       -0.3820
     18 H         -10.2047  -20.3067   25.1023 H       1  UNL1        0.2104
     19 C         -10.1138  -17.2800   22.8937 C.3     1  UNL1        0.0290
     20 C          -8.9882  -16.5961   23.6117 C.ar    1  UNL1       -0.0189
     21 C          -7.8745  -15.9640   22.8307 C.ar    1  UNL1       -0.0009
     22 C          -6.7490  -15.2801   23.5487 C.ar    1  UNL1        0.0399
     23 C          -6.7373  -15.2283   25.0478 C.ar    1  UNL1        0.1764
     24 C          -7.8510  -15.8604   25.8288 C.ar    1  UNL1        0.1761
     25 C          -8.9765  -16.5443   25.1108 C.ar    1  UNL1        0.0359
     26 O          -7.5707  -15.6518   27.2875 O.3     1  UNL1       -0.4346
     27 C          -6.2837  -14.8907   27.4079 C.3     1  UNL1        0.4294
     28 O          -5.7686  -14.6291   26.0238 O.3     1  UNL1       -0.4346
@<TRIPOS>BOND
     1     2     3    1
     2     1     3    1
     3     1     5    1
     4     5     6    1
     5     6     7   ar
     6     7     8   ar
     7     8     9   ar
     8     9    10   ar
     9    10    11   ar
    10    10    12    1
    11    12    13    1
    12    13    14    1
    13     1    15    1
    14    15    16    1
    15    16    17    1
    16    15    19    1
    17    19    20    1
    18    20    21   ar
    19    21    22   ar
    20    22    23   ar
    21    23    24   ar
    22    24    25   ar
    23    24    26    1
    24    26    27    1
    25    27    28    1
    26    11     6   ar
    27    25    20   ar
    28    14     9    1
    29    28    23    1
    30     2     4    1
    31    17    18    1
@<TRIPOS>MOLECULE
*****
 28 31 0 0 0
SMALL
GASTEIGER

@<TRIPOS>ATOM
      1 C          -5.7295  -16.6150   23.6932 C.3     1  UNL1        0.0364
      2 O          -6.2543  -14.3883   24.9247 O.3     1  UNL1       -0.3820
      3 C          -5.6908  -15.1162   23.7404 C.3     1  UNL1        0.1375
      4 H          -6.1502  -13.4325   24.7963 H       1  UNL1        0.2104
      5 C          -4.5043  -17.4082   24.0391 C.3     1  UNL1        0.0290
      6 C          -3.5745  -17.8636   22.9536 C.ar    1  UNL1       -0.0189
      7 C          -3.6020  -19.2905   22.4923 C.ar    1  UNL1       -0.0009
      8 C          -2.6722  -19.7459   21.4069 C.ar    1  UNL1        0.0399
      9 C          -1.7149  -18.7743   20.7828 C.ar    1  UNL1        0.1764
     10 C          -1.6873  -17.3472   21.2442 C.ar    1  UNL1        0.1761
     11 C          -2.6171  -16.8918   22.3296 C.ar    1  UNL1        0.0359
     12 O          -0.6426  -16.6228   20.4482 O.3     1  UNL1       -0.4346
     13 C          -0.0245  -17.6021   19.4948 C.3     1  UNL1        0.4294
     14 O          -0.6872  -18.9317   19.7016 O.3     1  UNL1       -0.4346
     15 C          -6.9935  -17.3205   23.3001 C.3     1  UNL1        0.0364
     16 C          -6.9478  -18.4433   22.3066 C.3     1  UNL1        0.1375
     17 O          -6.7976  -18.1452   20.8442 O.3     1  UNL1       -0.3820
     18 H          -7.5869  -17.6793   20.5265 H       1  UNL1        0.2104
     19 C          -8.3032  -16.9032   23.9006 C.3     1  UNL1        0.0290
     20 C          -9.5245  -16.7967   23.0362 C.ar    1  UNL1       -0.0189
     21 C         -10.8281  -17.3715   23.5055 C.ar    1  UNL1       -0.0009
     22 C         -12.0493  -17.2649   22.6410 C.ar    1  UNL1        0.0399
     23 C         -11.9669  -16.5835   21.3072 C.ar    1  UNL1        0.1764
     24 C         -10.6633  -16.0087   20.8380 C.ar    1  UNL1        0.1761
     25 C          -9.4421  -16.1153   21.7024 C.ar    1  UNL1        0.0359
     26 O         -10.8858  -15.3984   19.4860 O.3     1  UNL1       -0.4346
     27 C         -12.3269  -15.5961   19.1197 C.3     1  UNL1        0.4294
     28 O         -12.9950  -16.3285   20.2453 O.3     1  UNL1       -0.4346
@<TRIPOS>BOND
     1     2     3    1
     2     1     3    1
     3     1     5    1
     4     5     6    1
     5     6     7   ar
     6     7     8   ar
     7     8     9   ar
     8     9    10   ar
     9    10    11   ar
    10    10    12    1
    11    12    13    1
    12    13    14    1
    13     1    15    1
    14    15    16    1
    15    16    17    1
    16    15    19    1
    17    19    20    1
    18    20    21   ar
    19    21    22   ar
    20    22    23   ar
    21    23    24   ar
    22    24    25   ar
    23    24    26    1
    24    26    27    1
    25    27    28    1
    26    11     6   ar
    27    25    20   ar
    28    14     9    1
    29    28    23    1
    30     2     4    1
    31    17    18    1
@<TRIPOS>MOLECULE
*****
 28 31 0 0 0
SMALL
GASTEIGER

@<TRIPOS>ATOM
      1 C         -12.0673  -18.1304   23.4306 C.3     1  UNL1        0.0364
      2 O         -14.2690  -18.2358   24.8059 O.3     1  UNL1       -0.3820
      3 C         -13.4075  -17.5563   23.7831 C.3     1  UNL1        0.1375
      4 H         -15.0950  -17.7390   24.9145 H       1  UNL1        0.2104
      5 C         -11.0220  -18.3018   24.4926 C.3     1  UNL1        0.0290
      6 C          -9.8347  -17.3857   24.5311 C.ar    1  UNL1       -0.0189
      7 C          -9.4432  -16.6135   23.3063 C.ar    1  UNL1       -0.0009
      8 C          -8.2560  -15.6975   23.3448 C.ar    1  UNL1        0.0399
      9 C          -7.4603  -15.5537   24.6083 C.ar    1  UNL1        0.1764
     10 C          -7.8519  -16.3260   25.8331 C.ar    1  UNL1        0.1761
     11 C          -9.0390  -17.2420   25.7946 C.ar    1  UNL1        0.0359
     12 O          -6.8841  -15.9827   26.9266 O.3     1  UNL1       -0.4346
     13 C          -5.8945  -14.9983   26.3775 C.3     1  UNL1        0.4294
     14 O          -6.2506  -14.7332   24.9447 O.3     1  UNL1       -0.4346
     15 C         -11.7725  -18.5331   22.0160 C.3     1  UNL1        0.0364
     16 C         -12.2778  -17.6973   20.8775 C.3     1  UNL1        0.1375
     17 O         -11.8294  -16.2730   20.7358 O.3     1  UNL1       -0.3820
     18 H         -12.1664  -15.7522   21.4815 H       1  UNL1        0.2104
     19 C         -10.9724  -19.7714   21.7400 C.3     1  UNL1        0.0290
     20 C          -9.5720  -19.6579   21.2144 C.ar    1  UNL1       -0.0189
     21 C          -9.3329  -19.5255   19.7395 C.ar    1  UNL1       -0.0009
     22 C          -7.9326  -19.4119   19.2139 C.ar    1  UNL1        0.0399
     23 C          -6.7714  -19.4307   20.1633 C.ar    1  UNL1        0.1764
     24 C          -7.0105  -19.5631   21.6382 C.ar    1  UNL1        0.1761
     25 C          -8.4108  -19.6767   22.1637 C.ar    1  UNL1        0.0359
     26 O          -5.6779  -19.5520   22.3266 O.3     1  UNL1       -0.4346
     27 C          -4.6152  -19.4127   21.2772 C.3     1  UNL1        0.4294
     28 O          -5.2910  -19.3378   19.9402 O.3     1  UNL1       -0.4346
@<TRIPOS>BOND
     1     2     3    1
     2     1     3    1
     3     1     5    1
     4     5     6    1
     5     6     7   ar
     6     7     8   ar
     7     8     9   ar
     8     9    10   ar
     9    10    11   ar
    10    10    12    1
    11    12    13    1
    12    13    14    1
    13     1    15    1
    14    15    16    1
    15    16    17    1
    16    15    19    1
    17    19    20    1
    18    20    21   ar
    19    21    22   ar
    20    22    23   ar
    21    23    24   ar
    22    24    25   ar
    23    24    26    1
    24    26    27    1
    25    27    28    1
    26    11     6   ar
    27    25    20   ar
    28    14     9    1
    29    28    23    1
    30     2     4    1
    31    17    18    1
@<TRIPOS>MOLECULE
*****
 28 31 0 0 0
SMALL
GASTEIGER

@<TRIPOS>ATOM
      1 C          -6.6468  -15.5958   25.2214 C.3     1  UNL1        0.0364
      2 O          -6.9270  -14.5768   27.5949 O.3     1  UNL1       -0.3820
      3 C          -6.1981  -15.4839   26.6484 C.3     1  UNL1        0.1375
      4 H          -6.5116  -14.6218   28.4703 H       1  UNL1        0.2104
      5 C          -8.0993  -15.4458   24.8780 C.3     1  UNL1        0.0290
      6 C          -8.8225  -16.5565   24.1755 C.ar    1  UNL1       -0.0189
      7 C          -9.4157  -17.6839   24.9672 C.ar    1  UNL1       -0.0009
      8 C         -10.1389  -18.7945   24.2648 C.ar    1  UNL1        0.0399
      9 C         -10.2688  -18.7778   22.7705 C.ar    1  UNL1        0.1764
     10 C          -9.6755  -17.6503   21.9787 C.ar    1  UNL1        0.1761
     11 C          -8.9524  -16.5397   22.6812 C.ar    1  UNL1        0.0359
     12 O          -9.9606  -17.9025   20.5278 O.3     1  UNL1       -0.4346
     13 C         -10.7300  -19.1859   20.4229 C.3     1  UNL1        0.4294
     14 O         -10.9205  -19.7268   21.8090 O.3     1  UNL1       -0.4346
     15 C          -5.6431  -15.8576   24.1380 C.3     1  UNL1        0.0364
     16 C          -5.7053  -15.0831   22.8549 C.3     1  UNL1        0.1375
     17 O          -4.6188  -14.1064   22.5150 O.3     1  UNL1       -0.3820
     18 H          -4.6342  -13.3722   23.1487 H       1  UNL1        0.2104
     19 C          -4.5773  -16.8940   24.3375 C.3     1  UNL1        0.0290
     20 C          -3.8663  -17.4765   23.1520 C.ar    1  UNL1       -0.0189
     21 C          -4.3201  -18.7839   22.5732 C.ar    1  UNL1       -0.0009
     22 C          -3.6091  -19.3663   21.3877 C.ar    1  UNL1        0.0399
     23 C          -2.4444  -18.6413   20.7811 C.ar    1  UNL1        0.1764
     24 C          -1.9907  -17.3340   21.3599 C.ar    1  UNL1        0.1761
     25 C          -2.7017  -16.7516   22.5453 C.ar    1  UNL1        0.0359
     26 O          -0.8206  -16.8518   20.5547 O.3     1  UNL1       -0.4346
     27 C          -0.5512  -17.8611   19.4783 C.3     1  UNL1        0.4294
     28 O          -1.5547  -18.9671   19.6182 O.3     1  UNL1       -0.4346
@<TRIPOS>BOND
     1     2     3    1
     2     1     3    1
     3     1     5    1
     4     5     6    1
     5     6     7   ar
     6     7     8   ar
     7     8     9   ar
     8     9    10   ar
     9    10    11   ar
    10    10    12    1
    11    12    13    1
    12    13    14    1
    13     1    15    1
    14    15    16    1
    15    16    17    1
    16    15    19    1
    17    19    20    1
    18    20    21   ar
    19    21    22   ar
    20    22    23   ar
    21    23    24   ar
    22    24    25   ar
    23    24    26    1
    24    26    27    1
    25    27    28    1
    26    11     6   ar
    27    25    20   ar
    28    14     9    1
    29    28    23    1
    30     2     4    1
    31    17    18    1
@<TRIPOS>MOLECULE
*****
 28 31 0 0 0
SMALL
GASTEIGER

@<TRIPOS>ATOM
      1 C          -7.5968  -19.6993   21.0049 C.3     1  UNL1        0.0364
      2 O          -9.4195  -19.9545   19.1711 O.3     1  UNL1       -0.3820
      3 C          -8.0700  -19.4608   19.6016 C.3     1  UNL1        0.1375
      4 H          -9.5685  -19.7192   18.2419 H       1  UNL1        0.2104
      5 C          -6.3300  -20.4645   21.2493 C.3     1  UNL1        0.0290
      6 C          -5.0087  -19.7548   21.2262 C.ar    1  UNL1       -0.0189
      7 C          -4.4485  -19.1714   22.4894 C.ar    1  UNL1       -0.0009
      8 C          -3.1273  -18.4617   22.4663 C.ar    1  UNL1        0.0399
      9 C          -2.3662  -18.3354   21.1799 C.ar    1  UNL1        0.1764
     10 C          -2.9264  -18.9188   19.9166 C.ar    1  UNL1        0.1761
     11 C          -4.2476  -19.6285   19.9397 C.ar    1  UNL1        0.0359
     12 O          -1.9561  -18.6400   18.8072 O.3     1  UNL1       -0.4346
     13 C          -0.7962  -17.8843   19.3848 C.3     1  UNL1        0.4294
     14 O          -1.0497  -17.6961   20.8512 O.3     1  UNL1       -0.4346
     15 C          -8.3903  -19.1725   22.1637 C.3     1  UNL1        0.0364
     16 C          -8.9668  -20.1223   23.1714 C.3     1  UNL1        0.1375
     17 O         -10.2268  -19.7658   23.9031 O.3     1  UNL1       -0.3820
     18 H         -10.0623  -19.0009   24.4765 H       1  UNL1        0.2104
     19 C          -8.6074  -17.6960   22.3147 C.3     1  UNL1        0.0290
     20 C          -7.9308  -16.9483   23.4252 C.ar    1  UNL1       -0.0189
     21 C          -6.5148  -16.4813   23.2612 C.ar    1  UNL1       -0.0009
     22 C          -5.8383  -15.7336   24.3717 C.ar    1  UNL1        0.0399
     23 C          -6.5778  -15.4528   25.6462 C.ar    1  UNL1        0.1764
     24 C          -7.9938  -15.9198   25.8102 C.ar    1  UNL1        0.1761
     25 C          -8.6703  -16.6675   24.6997 C.ar    1  UNL1        0.0359
     26 O          -8.4659  -15.4994   27.1704 O.3     1  UNL1       -0.4346
     27 C          -7.3417  -14.7726   27.8471 C.3     1  UNL1        0.4294
     28 O          -6.1748  -14.7438   26.9051 O.3     1  UNL1       -0.4346
@<TRIPOS>BOND
     1     2     3    1
     2     1     3    1
     3     1     5    1
     4     5     6    1
     5     6     7   ar
     6     7     8   ar
     7     8     9   ar
     8     9    10   ar
     9    10    11   ar
    10    10    12    1
    11    12    13    1
    12    13    14    1
    13     1    15    1
    14    15    16    1
    15    16    17    1
    16    15    19    1
    17    19    20    1
    18    20    21   ar
    19    21    22   ar
    20    22    23   ar
    21    23    24   ar
    22    24    25   ar
    23    24    26    1
    24    26    27    1
    25    27    28    1
    26    11     6   ar
    27    25    20   ar
    28    14     9    1
    29    28    23    1
    30     2     4    1
    31    17    18    1
@<TRIPOS>MOLECULE
*****
 28 31 0 0 0
SMALL
GASTEIGER

@<TRIPOS>ATOM
      1 C          -7.8491  -15.8520   25.4911 C.3     1  UNL1        0.0364
      2 O          -6.7242  -14.7651   27.5654 O.3     1  UNL1       -0.3820
      3 C          -7.3783  -15.9463   26.9121 C.3     1  UNL1        0.1375
      4 H          -6.4820  -14.9926   28.4767 H       1  UNL1        0.2104
      5 C          -9.2692  -16.1916   25.1473 C.3     1  UNL1        0.0290
      6 C          -9.5608  -17.2111   24.0862 C.ar    1  UNL1       -0.0189
      7 C          -9.5980  -18.6690   24.4369 C.ar    1  UNL1       -0.0009
      8 C          -9.8896  -19.6884   23.3759 C.ar    1  UNL1        0.0399
      9 C         -10.1439  -19.2499   21.9642 C.ar    1  UNL1        0.1764
     10 C         -10.1067  -17.7919   21.6135 C.ar    1  UNL1        0.1761
     11 C          -9.8151  -16.7725   22.6745 C.ar    1  UNL1        0.0359
     12 O         -10.3949  -17.6603   20.1473 O.3     1  UNL1       -0.4346
     13 C         -10.6103  -19.0370   19.5919 C.3     1  UNL1        0.4294
     14 O         -10.4552  -20.0194   20.7148 O.3     1  UNL1       -0.4346
     15 C          -6.8999  -15.4181   24.4137 C.3     1  UNL1        0.0364
     16 C          -7.3437  -14.4294   23.3767 C.3     1  UNL1        0.1375
     17 O          -7.3440  -14.8127   21.9265 O.3     1  UNL1       -0.3820
     18 H          -6.4320  -14.9597   21.6308 H       1  UNL1        0.2104
     19 C          -5.5069  -15.9730   24.3734 C.3     1  UNL1        0.0290
     20 C          -5.1761  -17.1024   23.4434 C.ar    1  UNL1       -0.0189
     21 C          -3.7437  -17.4402   23.1531 C.ar    1  UNL1       -0.0009
     22 C          -3.4131  -18.5696   22.2231 C.ar    1  UNL1        0.0399
     23 C          -4.5148  -19.3614   21.5833 C.ar    1  UNL1        0.1764
     24 C          -5.9472  -19.0237   21.8736 C.ar    1  UNL1        0.1761
     25 C          -6.2778  -17.8942   22.8036 C.ar    1  UNL1        0.0359
     26 O          -6.8132  -19.9742   21.1013 O.3     1  UNL1       -0.4346
     27 C          -5.9160  -20.8994   20.3337 C.3     1  UNL1        0.4294
     28 O          -4.4956  -20.5206   20.6316 O.3     1  UNL1       -0.4346
@<TRIPOS>BOND
     1     2     3    1
     2     1     3    1
     3     1     5    1
     4     5     6    1
     5     6     7   ar
     6     7     8   ar
     7     8     9   ar
     8     9    10   ar
     9    10    11   ar
    10    10    12    1
    11    12    13    1
    12    13    14    1
    13     1    15    1
    14    15    16    1
    15    16    17    1
    16    15    19    1
    17    19    20    1
    18    20    21   ar
    19    21    22   ar
    20    22    23   ar
    21    23    24   ar
    22    24    25   ar
    23    24    26    1
    24    26    27    1
    25    27    28    1
    26    11     6   ar
    27    25    20   ar
    28    14     9    1
    29    28    23    1
    30     2     4    1
    31    17    18    1
@<TRIPOS>MOLECULE
*****
 28 31 0 0 0
SMALL
GASTEIGER

@<TRIPOS>ATOM
      1 C          -5.2802  -16.2662   24.5392 C.3     1  UNL1        0.0364
      2 O          -6.2326  -14.8107   26.4691 O.3     1  UNL1       -0.3820
      3 C          -5.0942  -15.1926   25.5700 C.3     1  UNL1        0.1375
      4 H          -5.9462  -14.1069   27.0721 H       1  UNL1        0.2104
      5 C          -4.3196  -17.4163   24.4723 C.3     1  UNL1        0.0290
      6 C          -3.7134  -17.8119   23.1584 C.ar    1  UNL1       -0.0189
      7 C          -4.1830  -19.0530   22.4592 C.ar    1  UNL1       -0.0009
      8 C          -3.5769  -19.4485   21.1454 C.ar    1  UNL1        0.0399
      9 C          -2.5013  -18.6029   20.5307 C.ar    1  UNL1        0.1764
     10 C          -2.0317  -17.3617   21.2300 C.ar    1  UNL1        0.1761
     11 C          -2.6377  -16.9661   22.5438 C.ar    1  UNL1        0.0359
     12 O          -0.9631  -16.7309   20.3871 O.3     1  UNL1       -0.4346
     13 C          -0.7723  -17.5823   19.1670 C.3     1  UNL1        0.4294
     14 O          -1.7229  -18.7393   19.2557 O.3     1  UNL1       -0.4346
     15 C          -6.4269  -16.1898   23.5752 C.3     1  UNL1        0.0364
     16 C          -6.9390  -14.8544   23.1232 C.3     1  UNL1        0.1375
     17 O          -7.8135  -14.0403   24.0301 O.3     1  UNL1       -0.3820
     18 H          -8.6568  -14.5003   24.1646 H       1  UNL1        0.2104
     19 C          -7.0616  -17.4489   23.0633 C.3     1  UNL1        0.0290
     20 C          -8.5505  -17.6189   23.1300 C.ar    1  UNL1       -0.0189
     21 C          -9.2044  -18.0030   24.4241 C.ar    1  UNL1       -0.0009
     22 C         -10.6932  -18.1730   24.4907 C.ar    1  UNL1        0.0399
     23 C         -11.5281  -17.9590   23.2630 C.ar    1  UNL1        0.1764
     24 C         -10.8742  -17.5749   21.9688 C.ar    1  UNL1        0.1761
     25 C          -9.3854  -17.4049   21.9023 C.ar    1  UNL1        0.0359
     26 O         -11.9481  -17.4321   20.9314 O.3     1  UNL1       -0.4346
     27 C         -13.2657  -17.7279   21.5844 C.3     1  UNL1        0.4294
     28 O         -13.0062  -18.0535   23.0254 O.3     1  UNL1       -0.4346
@<TRIPOS>BOND
     1     2     3    1
     2     1     3    1
     3     1     5    1
     4     5     6    1
     5     6     7   ar
     6     7     8   ar
     7     8     9   ar
     8     9    10   ar
     9    10    11   ar
    10    10    12    1
    11    12    13    1
    12    13    14    1
    13     1    15    1
    14    15    16    1
    15    16    17    1
    16    15    19    1
    17    19    20    1
    18    20    21   ar
    19    21    22   ar
    20    22    23   ar
    21    23    24   ar
    22    24    25   ar
    23    24    26    1
    24    26    27    1
    25    27    28    1
    26    11     6   ar
    27    25    20   ar
    28    14     9    1
    29    28    23    1
    30     2     4    1
    31    17    18    1
