@<TRIPOS>MOLECULE
*****
 37 43 0 0 0
SMALL
GASTEIGER

@<TRIPOS>ATOM
      1 C          -2.2252    4.4067   26.0964 C.2     1  UNL1        0.3251
      2 N          -1.6695    5.4207   27.0520 N.2     1  UNL1       -0.0623
      3 C          -2.8220    6.0824   27.7476 C.3     1  UNL1        0.2647
      4 C          -1.9891    6.9981   28.5947 C.3     1  UNL1        0.0655
      5 C          -3.4849    7.0331   28.6998 C.3     1  UNL1        0.0655
      6 C          -4.0900    5.4774   27.2219 C.2     1  UNL1        0.3577
      7 O          -5.4823    5.8437   27.6428 O.2     1  UNL1       -0.2421
      8 N          -3.7211    4.4417   26.2015 N.am    1  UNL1       -0.1375
      9 C           0.1744    1.7295   23.3899 C.ar    1  UNL1        0.0000
     10 C           0.0580    1.4090   24.8507 C.ar    1  UNL1        0.0002
     11 C          -0.7419    2.3014   25.7529 C.ar    1  UNL1        0.0074
     12 C          -1.4253    3.5143   25.1943 C.ar    1  UNL1        0.0823
     13 C          -1.3089    3.8347   23.7335 C.ar    1  UNL1        0.0074
     14 C          -0.5090    2.9424   22.8313 C.ar    1  UNL1        0.0002
     15 C           2.5741   -0.9477   20.6837 C.ar    1  UNL1        0.0030
     16 C           1.2931   -0.3402   20.1939 C.ar    1  UNL1        0.0001
     17 C           0.4931    0.5522   21.0959 C.ar    1  UNL1        0.0000
     18 C           0.9742    0.8372   22.4878 C.ar    1  UNL1        0.0000
     19 C           2.2553    0.2296   22.9776 C.ar    1  UNL1        0.0000
     20 C           3.0552   -0.6628   22.0757 C.ar    1  UNL1        0.0001
     21 C           4.8874   -5.2158   18.6071 C.3     1  UNL1        0.1538
     22 N           4.4373   -3.8020   18.8272 N.ar    1  UNL1       -0.2473
     23 C           3.5729   -3.3170   19.9530 C.ar    1  UNL1        0.0967
     24 C           3.3740   -1.8402   19.7816 C.ar    1  UNL1        0.0396
     25 C           4.1155   -1.4124   18.5498 C.ar    1  UNL1        0.1216
     26 N           4.7726   -2.6249   17.9599 N.ar    1  UNL1       -0.1676
     27 C          -4.6798    3.5905   25.4227 C.3     1  UNL1        0.2120
     28 C          -5.5927    4.2208   24.4131 C.3     1  UNL1        0.0688
     29 C          -6.7031    5.1848   24.7089 C.3     1  UNL1        0.0274
     30 C          -7.3520    5.5575   23.4089 C.3     1  UNL1        0.0936
     31 N          -6.6427    4.8238   22.3096 N.am    1  UNL1       -0.2794
     32 C          -6.9642    4.9024   20.8466 C.2     1  UNL1        0.2251
     33 O          -8.0866    5.7766   20.3712 O.2     1  UNL1       -0.2749
     34 C          -5.5552    3.9976   22.9302 C.3     1  UNL1        0.0975
     35 C          -6.1632    4.1068   19.8588 C.3     1  UNL1        0.0767
     36 C          -6.1019    3.2117   18.6568 C.3     1  UNL1        0.0096
     37 C          -4.8373    3.6240   19.3501 C.3     1  UNL1        0.0096
@<TRIPOS>BOND
     1    21    22    1
     2    22    23   ar
     3    23    24   ar
     4    24    15    1
     5    15    16   ar
     6    16    17   ar
     7    17    18   ar
     8    18     9    1
     9     9    10   ar
    10    10    11   ar
    11    11    12   ar
    12    12     1    1
    13     1     2    2
    14     2     3    1
    15     3     4    1
    16     4     5    1
    17     3     6    1
    18     6     7    2
    19     6     8   am
    20     8    27    1
    21    28    27    1
    22    28    29    1
    23    29    30    1
    24    30    31    1
    25    31    32   am
    26    32    33    2
    27    32    35    1
    28    35    36    1
    29    36    37    1
    30    31    34    1
    31    12    13   ar
    32    13    14   ar
    33    18    19   ar
    34    19    20   ar
    35    24    25   ar
    36    25    26   ar
    37    26    22   ar
    38    20    15   ar
    39    14     9   ar
    40     8     1    1
    41    34    28    1
    42     5     3    1
    43    37    35    1
@<TRIPOS>MOLECULE
*****
 37 43 0 0 0
SMALL
GASTEIGER

@<TRIPOS>ATOM
      1 C           6.4148   -2.9264   30.6880 C.2     1  UNL1        0.3251
      2 N           6.8720   -4.3547   30.6607 N.2     1  UNL1       -0.0623
      3 C           6.9449   -4.7908   29.2273 C.3     1  UNL1        0.2647
      4 C           7.4071   -6.1891   29.5121 C.3     1  UNL1        0.0655
      5 C           7.1974   -5.7424   28.0956 C.3     1  UNL1        0.0655
      6 C           6.5327   -3.6319   28.3688 C.2     1  UNL1        0.3577
      7 O           6.4608   -3.6263   26.8705 O.2     1  UNL1       -0.2421
      8 N           6.2051   -2.4796   29.2715 N.am    1  UNL1       -0.1375
      9 C           5.7831   -0.4213   34.3726 C.ar    1  UNL1        0.0000
     10 C           6.9741   -0.1762   33.4941 C.ar    1  UNL1        0.0002
     11 C           7.1847   -1.0112   32.2659 C.ar    1  UNL1        0.0074
     12 C           6.2043   -2.0914   31.9162 C.ar    1  UNL1        0.0823
     13 C           5.0133   -2.3364   32.7946 C.ar    1  UNL1        0.0074
     14 C           4.8028   -1.5014   34.0228 C.ar    1  UNL1        0.0002
     15 C           5.1515    2.0838   38.0570 C.ar    1  UNL1        0.0030
     16 C           6.2985    2.3794   37.1367 C.ar    1  UNL1        0.0001
     17 C           6.5091    1.5443   35.9085 C.ar    1  UNL1        0.0000
     18 C           5.5726    0.4137   35.6006 C.ar    1  UNL1        0.0000
     19 C           4.4256    0.1181   36.5211 C.ar    1  UNL1        0.0000
     20 C           4.2150    0.9531   37.7492 C.ar    1  UNL1        0.0001
     21 C           5.9703    4.5522   42.6523 C.3     1  UNL1        0.1538
     22 N           5.3173    4.0534   41.3974 N.ar    1  UNL1       -0.2473
     23 C           5.9504    3.1664   40.3667 C.ar    1  UNL1        0.0967
     24 C           4.9410    2.9188   39.2852 C.ar    1  UNL1        0.0396
     25 C           3.6839    3.6529   39.6475 C.ar    1  UNL1        0.1216
     26 N           3.9166    4.3541   40.9529 N.ar    1  UNL1       -0.1676
     27 C           5.7481   -1.1194   28.8344 C.3     1  UNL1        0.2120
     28 C           4.3850   -0.6264   29.2204 C.3     1  UNL1        0.0688
     29 C           3.1150   -0.8567   28.4561 C.3     1  UNL1        0.0274
     30 C           1.9977   -0.1891   29.2018 C.3     1  UNL1        0.0936
     31 N           2.5772    0.4537   30.4270 N.am    1  UNL1       -0.2794
     32 C           1.8150    1.2304   31.4593 C.2     1  UNL1        0.2251
     33 O           0.3341    1.4194   31.3136 O.2     1  UNL1       -0.2749
     34 C           4.0526    0.1834   30.4385 C.3     1  UNL1        0.0975
     35 C           2.5338    1.8182   32.6375 C.3     1  UNL1        0.0767
     36 C           2.5818    2.1395   34.1019 C.3     1  UNL1        0.0096
     37 C           3.7307    2.5149   33.2136 C.3     1  UNL1        0.0096
@<TRIPOS>BOND
     1    21    22    1
     2    22    23   ar
     3    23    24   ar
     4    24    15    1
     5    15    16   ar
     6    16    17   ar
     7    17    18   ar
     8    18     9    1
     9     9    10   ar
    10    10    11   ar
    11    11    12   ar
    12    12     1    1
    13     1     2    2
    14     2     3    1
    15     3     4    1
    16     4     5    1
    17     3     6    1
    18     6     7    2
    19     6     8   am
    20     8    27    1
    21    28    27    1
    22    28    29    1
    23    29    30    1
    24    30    31    1
    25    31    32   am
    26    32    33    2
    27    32    35    1
    28    35    36    1
    29    36    37    1
    30    31    34    1
    31    12    13   ar
    32    13    14   ar
    33    18    19   ar
    34    19    20   ar
    35    24    25   ar
    36    25    26   ar
    37    26    22   ar
    38    20    15   ar
    39    14     9   ar
    40     8     1    1
    41    34    28    1
    42     5     3    1
    43    37    35    1
@<TRIPOS>MOLECULE
*****
 37 43 0 0 0
SMALL
GASTEIGER

@<TRIPOS>ATOM
      1 C           5.3849   -2.1904   24.2250 C.2     1  UNL1        0.3251
      2 N           6.7070   -2.1934   24.9337 N.2     1  UNL1       -0.0623
      3 C           7.5731   -3.2380   24.2945 C.3     1  UNL1        0.2647
      4 C           8.7662   -3.0128   25.1753 C.3     1  UNL1        0.0655
      5 C           8.8154   -4.0555   24.0982 C.3     1  UNL1        0.0655
      6 C           6.7865   -3.8806   23.1908 C.2     1  UNL1        0.3577
      7 O           7.2677   -4.9779   22.2884 O.2     1  UNL1       -0.2421
      8 N           5.4341   -3.2331   23.1477 N.am    1  UNL1       -0.1375
      9 C           1.8858    0.4783   25.1653 C.ar    1  UNL1        0.0000
     10 C           2.2106    0.1417   23.7401 C.ar    1  UNL1        0.0002
     11 C           3.3770   -0.7479   23.4266 C.ar    1  UNL1        0.0074
     12 C           4.2186   -1.3008   24.5384 C.ar    1  UNL1        0.0823
     13 C           3.8937   -0.9642   25.9636 C.ar    1  UNL1        0.0074
     14 C           2.7274   -0.0746   26.2771 C.ar    1  UNL1        0.0002
     15 C          -1.6134    3.1469   26.1056 C.ar    1  UNL1        0.0030
     16 C          -1.0676    3.0898   24.7096 C.ar    1  UNL1        0.0001
     17 C           0.0989    2.2003   24.3961 C.ar    1  UNL1        0.0000
     18 C           0.7194    1.3678   25.4787 C.ar    1  UNL1        0.0000
     19 C           0.1735    1.4250   26.8748 C.ar    1  UNL1        0.0000
     20 C          -0.9928    2.3145   27.1882 C.ar    1  UNL1        0.0001
     21 C          -4.5117    7.1940   27.8665 C.3     1  UNL1        0.1538
     22 N          -4.1120    5.8967   27.2284 N.ar    1  UNL1       -0.2473
     23 C          -2.7168    5.3544   27.1325 C.ar    1  UNL1        0.0967
     24 C          -2.7798    4.0365   26.4190 C.ar    1  UNL1        0.0396
     25 C          -4.2140    3.7642   26.0740 C.ar    1  UNL1        0.1216
     26 N          -5.0373    4.9139   26.5743 N.ar    1  UNL1       -0.1676
     27 C           4.3255   -3.5693   22.1949 C.3     1  UNL1        0.2120
     28 C           4.4176   -3.1477   20.7583 C.3     1  UNL1        0.0688
     29 C           5.2229   -3.8263   19.6901 C.3     1  UNL1        0.0274
     30 C           5.0236   -3.0713   18.4094 C.3     1  UNL1        0.0936
     31 N           4.0951   -1.9261   18.6860 N.am    1  UNL1       -0.2794
     32 C           3.6239   -0.9119   17.6864 C.2     1  UNL1        0.2251
     33 O           4.0857   -0.9924   16.2615 O.2     1  UNL1       -0.2749
     34 C           3.7206   -1.9733   20.1378 C.3     1  UNL1        0.0975
     35 C           2.6909    0.1830   18.1117 C.3     1  UNL1        0.0767
     36 C           1.3152    0.6413   18.4956 C.3     1  UNL1        0.0096
     37 C           2.4506    1.6210   18.4645 C.3     1  UNL1        0.0096
@<TRIPOS>BOND
     1    21    22    1
     2    22    23   ar
     3    23    24   ar
     4    24    15    1
     5    15    16   ar
     6    16    17   ar
     7    17    18   ar
     8    18     9    1
     9     9    10   ar
    10    10    11   ar
    11    11    12   ar
    12    12     1    1
    13     1     2    2
    14     2     3    1
    15     3     4    1
    16     4     5    1
    17     3     6    1
    18     6     7    2
    19     6     8   am
    20     8    27    1
    21    28    27    1
    22    28    29    1
    23    29    30    1
    24    30    31    1
    25    31    32   am
    26    32    33    2
    27    32    35    1
    28    35    36    1
    29    36    37    1
    30    31    34    1
    31    12    13   ar
    32    13    14   ar
    33    18    19   ar
    34    19    20   ar
    35    24    25   ar
    36    25    26   ar
    37    26    22   ar
    38    20    15   ar
    39    14     9   ar
    40     8     1    1
    41    34    28    1
    42     5     3    1
    43    37    35    1
@<TRIPOS>MOLECULE
*****
 37 43 0 0 0
SMALL
GASTEIGER

@<TRIPOS>ATOM
      1 C          -0.6528    2.3142   20.2448 C.2     1  UNL1        0.3251
      2 N          -2.0014    2.5523   20.8569 N.2     1  UNL1       -0.0623
      3 C          -2.7173    3.5703   20.0196 C.3     1  UNL1        0.2647
      4 C          -3.9709    3.5967   20.8428 C.3     1  UNL1        0.0655
      5 C          -3.8534    4.4676   19.6272 C.3     1  UNL1        0.0655
      6 C          -1.8112    3.9613   18.8900 C.2     1  UNL1        0.3577
      7 O          -2.1258    4.9544   17.8107 O.2     1  UNL1       -0.2421
      8 N          -0.5353    3.1850   19.0291 N.am    1  UNL1       -0.1375
      9 C           2.4887   -0.5159   21.7849 C.ar    1  UNL1        0.0000
     10 C           1.6288   -0.9112   20.6211 C.ar    1  UNL1        0.0002
     11 C           0.5816    0.0321   20.1077 C.ar    1  UNL1        0.0074
     12 C           0.3944    1.3708   20.7582 C.ar    1  UNL1        0.0823
     13 C           1.2542    1.7661   21.9219 C.ar    1  UNL1        0.0074
     14 C           2.3014    0.8227   22.4353 C.ar    1  UNL1        0.0002
     15 C           5.6301   -3.3460   23.3249 C.ar    1  UNL1        0.0030
     16 C           5.1275   -3.4772   21.9178 C.ar    1  UNL1        0.0001
     17 C           4.0803   -2.5338   21.4044 C.ar    1  UNL1        0.0000
     18 C           3.5358   -1.4593   22.2982 C.ar    1  UNL1        0.0000
     19 C           4.0385   -1.3281   23.7054 C.ar    1  UNL1        0.0000
     20 C           5.0856   -2.2714   24.2188 C.ar    1  UNL1        0.0001
     21 C           8.6047   -6.2643   26.5677 C.3     1  UNL1        0.1538
     22 N           8.0445   -5.6308   25.3289 N.ar    1  UNL1       -0.2473
     23 C           6.8978   -4.6654   25.2736 C.ar    1  UNL1        0.0967
     24 C           6.6773   -4.2894   23.8383 C.ar    1  UNL1        0.0396
     25 C           7.6877   -5.0224   23.0065 C.ar    1  UNL1        0.1216
     26 N           8.5327   -5.8514   23.9278 N.ar    1  UNL1       -0.1676
     27 C           0.6500    3.2654   18.1134 C.3     1  UNL1        0.2120
     28 C           2.0289    3.0136   18.6476 C.3     1  UNL1        0.0688
     29 C           2.8442    3.9680   19.4688 C.3     1  UNL1        0.0274
     30 C           4.1537    3.3073   19.7831 C.3     1  UNL1        0.0936
     31 N           4.1477    1.9447   19.1561 N.am    1  UNL1       -0.2794
     32 C           5.2597    0.9399   19.2197 C.2     1  UNL1        0.2251
     33 O           6.5218    1.2641   19.9627 O.2     1  UNL1       -0.2749
     34 C           2.8344    1.7631   18.4542 C.3     1  UNL1        0.0975
     35 C           5.1096   -0.3890   18.5403 C.3     1  UNL1        0.0767
     36 C           4.2476   -1.4079   17.8557 C.3     1  UNL1        0.0096
     37 C           5.7115   -1.6717   18.0481 C.3     1  UNL1        0.0096
@<TRIPOS>BOND
     1    21    22    1
     2    22    23   ar
     3    23    24   ar
     4    24    15    1
     5    15    16   ar
     6    16    17   ar
     7    17    18   ar
     8    18     9    1
     9     9    10   ar
    10    10    11   ar
    11    11    12   ar
    12    12     1    1
    13     1     2    2
    14     2     3    1
    15     3     4    1
    16     4     5    1
    17     3     6    1
    18     6     7    2
    19     6     8   am
    20     8    27    1
    21    28    27    1
    22    28    29    1
    23    29    30    1
    24    30    31    1
    25    31    32   am
    26    32    33    2
    27    32    35    1
    28    35    36    1
    29    36    37    1
    30    31    34    1
    31    12    13   ar
    32    13    14   ar
    33    18    19   ar
    34    19    20   ar
    35    24    25   ar
    36    25    26   ar
    37    26    22   ar
    38    20    15   ar
    39    14     9   ar
    40     8     1    1
    41    34    28    1
    42     5     3    1
    43    37    35    1
@<TRIPOS>MOLECULE
*****
 37 43 0 0 0
SMALL
GASTEIGER

@<TRIPOS>ATOM
      1 C           3.9369    1.2876   18.4884 C.2     1  UNL1        0.3251
      2 N           4.8735    2.1823   17.7318 N.2     1  UNL1       -0.0623
      3 C           5.9775    1.3330   17.1752 C.3     1  UNL1        0.2647
      4 C           6.7155    2.4542   16.5057 C.3     1  UNL1        0.0655
      5 C           7.2407    1.0520   16.4167 C.3     1  UNL1        0.0655
      6 C           5.7233   -0.0866   17.5878 C.2     1  UNL1        0.3577
      7 O           6.5799   -1.2702   17.2484 O.2     1  UNL1       -0.2421
      8 N           4.4622   -0.1147   18.3994 N.am    1  UNL1       -0.1375
      9 C           0.2065    2.5828   20.6463 C.ar    1  UNL1        0.0000
     10 C           1.5493    3.0543   21.1206 C.ar    1  UNL1        0.0002
     11 C           2.7928    2.6225   20.4013 C.ar    1  UNL1        0.0074
     12 C           2.6935    1.7193   19.2077 C.ar    1  UNL1        0.0823
     13 C           1.3508    1.2479   18.7335 C.ar    1  UNL1        0.0074
     14 C           0.1073    1.6797   19.4528 C.ar    1  UNL1        0.0002
     15 C          -3.5236    3.8781   22.8046 C.ar    1  UNL1        0.0030
     16 C          -3.5735    3.5753   21.3363 C.ar    1  UNL1        0.0001
     17 C          -2.3301    3.1435   20.6169 C.ar    1  UNL1        0.0000
     18 C          -1.0368    3.0146   21.3657 C.ar    1  UNL1        0.0000
     19 C          -0.9869    3.3174   22.8340 C.ar    1  UNL1        0.0000
     20 C          -2.2302    3.7492   23.5535 C.ar    1  UNL1        0.0001
     21 C          -8.5988    4.6458   24.0428 C.3     1  UNL1        0.1538
     22 N          -7.0998    4.6628   24.0932 N.ar    1  UNL1       -0.2473
     23 C          -6.1766    4.0595   23.0765 C.ar    1  UNL1        0.0967
     24 C          -4.7670    4.3099   23.5240 C.ar    1  UNL1        0.0396
     25 C          -4.8190    5.0680   24.8174 C.ar    1  UNL1        0.1216
     26 N          -6.2608    5.2860   25.1691 N.ar    1  UNL1       -0.1676
     27 C           3.8362   -1.3313   19.0141 C.3     1  UNL1        0.2120
     28 C           3.9711   -1.5812   20.4869 C.3     1  UNL1        0.0688
     29 C           4.7646   -2.6825   21.1253 C.3     1  UNL1        0.0274
     30 C           4.6201   -2.5556   22.6129 C.3     1  UNL1        0.0936
     31 N           3.7373   -1.3759   22.8940 N.am    1  UNL1       -0.2794
     32 C           3.3276   -0.8846   24.2507 C.2     1  UNL1        0.2251
     33 O           3.8099   -1.5927   25.4820 O.2     1  UNL1       -0.2749
     34 C           3.3362   -0.7736   21.5800 C.3     1  UNL1        0.0975
     35 C           2.4355    0.3148   24.3762 C.3     1  UNL1        0.0767
     36 C           2.2633    1.7878   24.6012 C.3     1  UNL1        0.0096
     37 C           1.0627    0.9192   24.3686 C.3     1  UNL1        0.0096
@<TRIPOS>BOND
     1    21    22    1
     2    22    23   ar
     3    23    24   ar
     4    24    15    1
     5    15    16   ar
     6    16    17   ar
     7    17    18   ar
     8    18     9    1
     9     9    10   ar
    10    10    11   ar
    11    11    12   ar
    12    12     1    1
    13     1     2    2
    14     2     3    1
    15     3     4    1
    16     4     5    1
    17     3     6    1
    18     6     7    2
    19     6     8   am
    20     8    27    1
    21    28    27    1
    22    28    29    1
    23    29    30    1
    24    30    31    1
    25    31    32   am
    26    32    33    2
    27    32    35    1
    28    35    36    1
    29    36    37    1
    30    31    34    1
    31    12    13   ar
    32    13    14   ar
    33    18    19   ar
    34    19    20   ar
    35    24    25   ar
    36    25    26   ar
    37    26    22   ar
    38    20    15   ar
    39    14     9   ar
    40     8     1    1
    41    34    28    1
    42     5     3    1
    43    37    35    1
@<TRIPOS>MOLECULE
*****
 37 43 0 0 0
SMALL
GASTEIGER

@<TRIPOS>ATOM
      1 C           3.5204   -1.4697   20.6805 C.2     1  UNL1        0.3251
      2 N           3.2226   -2.8661   20.2207 N.2     1  UNL1       -0.0623
      3 C           4.3876   -3.3441   19.4056 C.3     1  UNL1        0.2647
      4 C           3.8215   -4.6997   19.1030 C.3     1  UNL1        0.0655
      5 C           5.1706   -4.3147   18.5721 C.3     1  UNL1        0.0655
      6 C           5.4054   -2.2431   19.3618 C.2     1  UNL1        0.3577
      7 O           6.7271   -2.2919   18.6542 O.2     1  UNL1       -0.2421
      8 N           4.8695   -1.0846   20.1497 N.am    1  UNL1       -0.1375
      9 C           0.8376    1.1113   23.2087 C.ar    1  UNL1        0.0000
     10 C           2.0356    0.4484   23.8216 C.ar    1  UNL1        0.0002
     11 C           2.9298   -0.4119   22.9789 C.ar    1  UNL1        0.0074
     12 C           2.6261   -0.6094   21.5232 C.ar    1  UNL1        0.0823
     13 C           1.4282    0.0534   20.9103 C.ar    1  UNL1        0.0074
     14 C           0.5339    0.9138   21.7531 C.ar    1  UNL1        0.0002
     15 C          -1.8450    3.6920   25.7371 C.ar    1  UNL1        0.0030
     16 C          -1.7058    3.9672   24.2692 C.ar    1  UNL1        0.0001
     17 C          -0.8116    3.1070   23.4263 C.ar    1  UNL1        0.0000
     18 C          -0.0566    1.9715   24.0514 C.ar    1  UNL1        0.0000
     19 C          -0.1958    1.6963   25.5195 C.ar    1  UNL1        0.0000
     20 C          -1.0900    2.5565   26.3623 C.ar    1  UNL1        0.0001
     21 C          -3.5609    7.5020   28.9652 C.3     1  UNL1        0.1538
     22 N          -3.5279    6.3035   28.0638 N.ar    1  UNL1       -0.2473
     23 C          -2.3145    5.7496   27.3776 C.ar    1  UNL1        0.0967
     24 C          -2.7392    4.5523   26.5800 C.ar    1  UNL1        0.0396
     25 C          -4.2150    4.3662   26.7732 C.ar    1  UNL1        0.1216
     26 N          -4.7025    5.4486   27.6902 N.ar    1  UNL1       -0.1676
     27 C           5.5612    0.2283   20.3683 C.3     1  UNL1        0.2120
     28 C           5.2786    1.3857   19.4571 C.3     1  UNL1        0.0688
     29 C           6.2569    2.0291   18.5195 C.3     1  UNL1        0.0274
     30 C           5.5509    3.1440   17.8064 C.3     1  UNL1        0.0936
     31 N           4.1363    3.1898   18.3032 N.am    1  UNL1       -0.2794
     32 C           3.0762    4.1531   17.8581 C.2     1  UNL1        0.2251
     33 O           3.3934    5.1919   16.8235 O.2     1  UNL1       -0.2749
     34 C           3.9680    2.1031   19.3235 C.3     1  UNL1        0.0975
     35 C           1.6989    4.0777   18.4475 C.3     1  UNL1        0.0767
     36 C           0.5151    3.2661   18.8833 C.3     1  UNL1        0.0096
     37 C           0.4972    4.7585   19.0326 C.3     1  UNL1        0.0096
@<TRIPOS>BOND
     1    21    22    1
     2    22    23   ar
     3    23    24   ar
     4    24    15    1
     5    15    16   ar
     6    16    17   ar
     7    17    18   ar
     8    18     9    1
     9     9    10   ar
    10    10    11   ar
    11    11    12   ar
    12    12     1    1
    13     1     2    2
    14     2     3    1
    15     3     4    1
    16     4     5    1
    17     3     6    1
    18     6     7    2
    19     6     8   am
    20     8    27    1
    21    28    27    1
    22    28    29    1
    23    29    30    1
    24    30    31    1
    25    31    32   am
    26    32    33    2
    27    32    35    1
    28    35    36    1
    29    36    37    1
    30    31    34    1
    31    12    13   ar
    32    13    14   ar
    33    18    19   ar
    34    19    20   ar
    35    24    25   ar
    36    25    26   ar
    37    26    22   ar
    38    20    15   ar
    39    14     9   ar
    40     8     1    1
    41    34    28    1
    42     5     3    1
    43    37    35    1
@<TRIPOS>MOLECULE
*****
 37 43 0 0 0
SMALL
GASTEIGER

@<TRIPOS>ATOM
      1 C           4.7418    1.0527   35.5792 C.2     1  UNL1        0.3251
      2 N           4.7392    0.8833   37.0696 N.2     1  UNL1       -0.0623
      3 C           4.2338    2.1568   37.6800 C.3     1  UNL1        0.2647
      4 C           4.3416    1.7012   39.1050 C.3     1  UNL1        0.0655
      5 C           3.8378    3.0795   38.7944 C.3     1  UNL1        0.0655
      6 C           3.9240    3.1134   36.5669 C.2     1  UNL1        0.3577
      7 O           3.3934    4.5075   36.7244 O.2     1  UNL1       -0.2421
      8 N           4.2379    2.4310   35.2685 N.am    1  UNL1       -0.1375
      9 C           6.0340   -2.0322   32.5686 C.ar    1  UNL1        0.0000
     10 C           4.6481   -2.0772   33.1408 C.ar    1  UNL1        0.0002
     11 C           4.2174   -1.0489   34.1443 C.ar    1  UNL1        0.0074
     12 C           5.1725    0.0244   34.5756 C.ar    1  UNL1        0.0823
     13 C           6.5583    0.0693   34.0034 C.ar    1  UNL1        0.0074
     14 C           6.9891   -0.9590   32.9999 C.ar    1  UNL1        0.0002
     15 C           7.3260   -5.1170   29.5579 C.ar    1  UNL1        0.0030
     16 C           7.0794   -5.5167   30.9825 C.ar    1  UNL1        0.0001
     17 C           6.6487   -4.4884   31.9861 C.ar    1  UNL1        0.0000
     18 C           6.4647   -3.0605   31.5651 C.ar    1  UNL1        0.0000
     19 C           6.7114   -2.6609   30.1404 C.ar    1  UNL1        0.0000
     20 C           7.1420   -3.6891   29.1369 C.ar    1  UNL1        0.0001
     21 C           8.0592   -7.6957   25.0090 C.3     1  UNL1        0.1538
     22 N           8.0937   -7.3306   26.4634 N.ar    1  UNL1       -0.2473
     23 C           7.4828   -6.1073   27.0800 C.ar    1  UNL1        0.0967
     24 C           7.7567   -6.1453   28.5543 C.ar    1  UNL1        0.0396
     25 C           8.5370   -7.3922   28.8489 C.ar    1  UNL1        0.1216
     26 N           8.7452   -8.1247   27.5566 N.ar    1  UNL1       -0.1676
     27 C           4.0764    3.0230   33.8997 C.3     1  UNL1        0.2120
     28 C           3.0063    2.5100   32.9823 C.3     1  UNL1        0.0688
     29 C           1.5392    2.8041   33.0875 C.3     1  UNL1        0.0274
     30 C           0.8417    2.0887   31.9687 C.3     1  UNL1        0.0936
     31 N           1.8777    1.3525   31.1720 N.am    1  UNL1       -0.2794
     32 C           1.6209    0.5048   29.9615 C.2     1  UNL1        0.2251
     33 O           0.2220    0.3356   29.4473 O.2     1  UNL1       -0.2749
     34 C           3.2156    1.6129   31.7984 C.3     1  UNL1        0.0975
     35 C           2.7632   -0.1738   29.2650 C.3     1  UNL1        0.0767
     36 C           3.2829   -1.0066   28.1309 C.3     1  UNL1        0.0096
     37 C           4.2218   -0.5162   29.1929 C.3     1  UNL1        0.0096
@<TRIPOS>BOND
     1    21    22    1
     2    22    23   ar
     3    23    24   ar
     4    24    15    1
     5    15    16   ar
     6    16    17   ar
     7    17    18   ar
     8    18     9    1
     9     9    10   ar
    10    10    11   ar
    11    11    12   ar
    12    12     1    1
    13     1     2    2
    14     2     3    1
    15     3     4    1
    16     4     5    1
    17     3     6    1
    18     6     7    2
    19     6     8   am
    20     8    27    1
    21    28    27    1
    22    28    29    1
    23    29    30    1
    24    30    31    1
    25    31    32   am
    26    32    33    2
    27    32    35    1
    28    35    36    1
    29    36    37    1
    30    31    34    1
    31    12    13   ar
    32    13    14   ar
    33    18    19   ar
    34    19    20   ar
    35    24    25   ar
    36    25    26   ar
    37    26    22   ar
    38    20    15   ar
    39    14     9   ar
    40     8     1    1
    41    34    28    1
    42     5     3    1
    43    37    35    1
@<TRIPOS>MOLECULE
*****
 37 43 0 0 0
SMALL
GASTEIGER

@<TRIPOS>ATOM
      1 C          -2.1319    3.2321   24.4329 C.2     1  UNL1        0.3251
      2 N          -3.6146    3.4590   24.4407 N.2     1  UNL1       -0.0623
      3 C          -4.0116    3.9756   23.0896 C.3     1  UNL1        0.2647
      4 C          -5.4753    4.0999   23.3931 C.3     1  UNL1        0.0655
      5 C          -4.9560    4.4762   22.0372 C.3     1  UNL1        0.0655
      6 C          -2.7743    4.0679   22.2467 C.2     1  UNL1        0.3577
      7 O          -2.7099    4.5373   20.8235 O.2     1  UNL1       -0.2421
      8 N          -1.6125    3.6084   23.0768 N.am    1  UNL1       -0.1375
      9 C           0.3265    1.6926   27.8733 C.ar    1  UNL1        0.0000
     10 C           0.2921    0.9361   26.5784 C.ar    1  UNL1        0.0002
     11 C          -0.5274    1.4493   25.4316 C.ar    1  UNL1        0.0074
     12 C          -1.3124    2.7189   25.5797 C.ar    1  UNL1        0.0823
     13 C          -1.2780    3.4753   26.8745 C.ar    1  UNL1        0.0074
     14 C          -0.4585    2.9621   28.0213 C.ar    1  UNL1        0.0002
     15 C           2.7849    0.1530   31.3136 C.ar    1  UNL1        0.0030
     16 C           2.6439   -0.6678   30.0660 C.ar    1  UNL1        0.0001
     17 C           1.8244   -0.1546   28.9192 C.ar    1  UNL1        0.0000
     18 C           1.1460    1.1794   29.0199 C.ar    1  UNL1        0.0000
     19 C           1.2870    2.0002   30.2676 C.ar    1  UNL1        0.0000
     20 C           2.1065    1.4871   31.4143 C.ar    1  UNL1        0.0001
     21 C           5.2173   -0.1976   35.9870 C.3     1  UNL1        0.1538
     22 N           4.7224   -0.5213   34.6085 N.ar    1  UNL1       -0.2473
     23 C           3.8547    0.3552   33.7548 C.ar    1  UNL1        0.0967
     24 C           3.6044   -0.3601   32.4604 C.ar    1  UNL1        0.0396
     25 C           4.3176   -1.6787   32.5140 C.ar    1  UNL1        0.1216
     26 N           5.0085   -1.7783   33.8416 N.ar    1  UNL1       -0.1676
     27 C          -0.1825    3.5376   22.6296 C.3     1  UNL1        0.2120
     28 C           0.2887    2.3768   21.8047 C.3     1  UNL1        0.0688
     29 C          -0.1366    2.0624   20.4010 C.3     1  UNL1        0.0274
     30 C           0.5798    0.8179   19.9674 C.3     1  UNL1        0.0936
     31 N           1.4479    0.3632   21.1030 N.am    1  UNL1       -0.2794
     32 C           2.3394   -0.8431   21.1032 C.2     1  UNL1        0.2251
     33 O           2.4168   -1.7186   19.8877 O.2     1  UNL1       -0.2749
     34 C           1.2680    1.3267   22.2386 C.3     1  UNL1        0.0975
     35 C           3.1535   -1.1740   22.3189 C.3     1  UNL1        0.0767
     36 C           3.5013   -0.9249   23.7566 C.3     1  UNL1        0.0096
     37 C           4.2156   -1.9960   22.9868 C.3     1  UNL1        0.0096
@<TRIPOS>BOND
     1    21    22    1
     2    22    23   ar
     3    23    24   ar
     4    24    15    1
     5    15    16   ar
     6    16    17   ar
     7    17    18   ar
     8    18     9    1
     9     9    10   ar
    10    10    11   ar
    11    11    12   ar
    12    12     1    1
    13     1     2    2
    14     2     3    1
    15     3     4    1
    16     4     5    1
    17     3     6    1
    18     6     7    2
    19     6     8   am
    20     8    27    1
    21    28    27    1
    22    28    29    1
    23    29    30    1
    24    30    31    1
    25    31    32   am
    26    32    33    2
    27    32    35    1
    28    35    36    1
    29    36    37    1
    30    31    34    1
    31    12    13   ar
    32    13    14   ar
    33    18    19   ar
    34    19    20   ar
    35    24    25   ar
    36    25    26   ar
    37    26    22   ar
    38    20    15   ar
    39    14     9   ar
    40     8     1    1
    41    34    28    1
    42     5     3    1
    43    37    35    1
@<TRIPOS>MOLECULE
*****
 37 43 0 0 0
SMALL
GASTEIGER

@<TRIPOS>ATOM
      1 C           3.9664    1.3521   18.5047 C.2     1  UNL1        0.3251
      2 N           4.9337    2.2730   17.8220 N.2     1  UNL1       -0.0623
      3 C           6.0252    1.4370   17.2224 C.3     1  UNL1        0.2647
      4 C           6.7982    2.5828   16.6396 C.3     1  UNL1        0.0655
      5 C           7.2919    1.1776   16.4619 C.3     1  UNL1        0.0655
      6 C           5.7325   -0.0007   17.5344 C.2     1  UNL1        0.3577
      7 O           6.5659   -1.1790   17.1258 O.2     1  UNL1       -0.2421
      8 N           4.4600   -0.0532   18.3269 N.am    1  UNL1       -0.1375
      9 C           0.2378    2.5879   20.7004 C.ar    1  UNL1        0.0000
     10 C           1.4659    2.1976   21.4683 C.ar    1  UNL1        0.0002
     11 C           2.7088    1.7857   20.7364 C.ar    1  UNL1        0.0074
     12 C           2.7235    1.7640   19.2366 C.ar    1  UNL1        0.0823
     13 C           1.4955    2.1543   18.4687 C.ar    1  UNL1        0.0074
     14 C           0.2527    2.5663   19.2007 C.ar    1  UNL1        0.0002
     15 C          -3.4904    3.8237   22.8965 C.ar    1  UNL1        0.0030
     16 C          -3.5369    3.5818   21.4169 C.ar    1  UNL1        0.0001
     17 C          -2.2941    3.1699   20.6848 C.ar    1  UNL1        0.0000
     18 C          -1.0049    2.9998   21.4323 C.ar    1  UNL1        0.0000
     19 C          -0.9584    3.2418   22.9121 C.ar    1  UNL1        0.0000
     20 C          -2.2010    3.6537   23.6441 C.ar    1  UNL1        0.0001
     21 C          -8.5573    4.7242   24.0778 C.3     1  UNL1        0.1538
     22 N          -7.0621    4.6496   24.1715 N.ar    1  UNL1       -0.2473
     23 C          -6.1377    4.1218   23.1147 C.ar    1  UNL1        0.0967
     24 C          -4.7331    4.2357   23.6285 C.ar    1  UNL1        0.0396
     25 C          -4.7894    4.8338   25.0030 C.ar    1  UNL1        0.1216
     26 N          -6.2288    5.0896   25.3386 N.ar    1  UNL1       -0.1676
     27 C           3.7975   -1.2932   18.8499 C.3     1  UNL1        0.2120
     28 C           4.2506   -1.8956   20.1468 C.3     1  UNL1        0.0688
     29 C           3.5148   -1.8334   21.4525 C.3     1  UNL1        0.0274
     30 C           4.3285   -2.5653   22.4783 C.3     1  UNL1        0.0936
     31 N           5.5672   -3.0797   21.8067 N.am    1  UNL1       -0.2794
     32 C           6.6618   -3.8694   22.4611 C.2     1  UNL1        0.2251
     33 O           6.5719   -4.2104   23.9190 O.2     1  UNL1       -0.2749
     34 C           5.5191   -2.6658   20.3656 C.3     1  UNL1        0.0975
     35 C           7.8463   -4.3180   21.6574 C.3     1  UNL1        0.0767
     36 C           8.7220   -5.4197   21.1384 C.3     1  UNL1        0.0096
     37 C           9.0223   -3.9934   20.7846 C.3     1  UNL1        0.0096
@<TRIPOS>BOND
     1    21    22    1
     2    22    23   ar
     3    23    24   ar
     4    24    15    1
     5    15    16   ar
     6    16    17   ar
     7    17    18   ar
     8    18     9    1
     9     9    10   ar
    10    10    11   ar
    11    11    12   ar
    12    12     1    1
    13     1     2    2
    14     2     3    1
    15     3     4    1
    16     4     5    1
    17     3     6    1
    18     6     7    2
    19     6     8   am
    20     8    27    1
    21    28    27    1
    22    28    29    1
    23    29    30    1
    24    30    31    1
    25    31    32   am
    26    32    33    2
    27    32    35    1
    28    35    36    1
    29    36    37    1
    30    31    34    1
    31    12    13   ar
    32    13    14   ar
    33    18    19   ar
    34    19    20   ar
    35    24    25   ar
    36    25    26   ar
    37    26    22   ar
    38    20    15   ar
    39    14     9   ar
    40     8     1    1
    41    34    28    1
    42     5     3    1
    43    37    35    1
