@<TRIPOS>MOLECULE
*****
 33 36 0 0 0
SMALL
GASTEIGER

@<TRIPOS>ATOM
      1 C          -7.5482  -18.0566   21.6855 C.ar    1  UNL1        0.1391
      2 C          -9.0425  -18.1869   21.6779 C.ar    1  UNL1        0.0733
      3 C          -9.8565  -17.5491   22.7644 C.ar    1  UNL1        0.1679
      4 N          -9.1762  -16.7809   23.8585 N.ar    1  UNL1       -0.2047
      5 C          -7.6819  -16.6506   23.8661 C.ar    1  UNL1        0.2001
      6 N          -6.8679  -17.2884   22.7796 N.ar    1  UNL1       -0.2088
      7 N         -11.3508  -17.6794   22.7569 N.ar    1  UNL1       -0.2164
      8 N         -12.2093  -18.0521   23.9291 N.ar    1  UNL1       -0.1684
      9 C         -13.6381  -18.0630   23.4724 C.ar    1  UNL1        0.0805
     10 C         -14.8326  -18.3835   24.3212 C.3     1  UNL1        0.0540
     11 C         -13.6627  -17.6970   22.0180 C.ar    1  UNL1        0.0312
     12 C         -12.2491  -17.4599   21.5758 C.ar    1  UNL1        0.0637
     13 C         -11.8107  -17.0716   20.1948 C.3     1  UNL1        0.0522
     14 C          -7.0016  -15.8824   24.9603 C.ar    1  UNL1        0.1805
     15 C          -5.5587  -15.4731   24.9845 C.ar    1  UNL1        0.0434
     16 C          -5.3100  -14.7264   26.2614 C.ar    1  UNL1        0.0362
     17 C          -6.5993  -14.6742   27.0264 C.ar    1  UNL1        0.1234
     18 C          -6.8068  -14.0220   28.3612 C.3     1  UNL1        0.0725
     19 O          -7.6447  -15.3886   26.2222 O.2     1  UNL1       -0.4546
     20 C          -6.2014  -20.0850   20.7791 C.2     1  UNL1        0.2717
     21 O          -6.4826  -20.8377   22.0458 O.2     1  UNL1       -0.2707
     22 N          -6.7342  -18.6945   20.5989 N.am    1  UNL1       -0.2662
     23 H          -6.5497  -18.2005   19.7676 H       1  UNL1        0.1564
     24 C          -5.3875  -20.7229   19.6926 C.3     1  UNL1        0.2897
     25 O          -3.8934  -20.7828   19.8116 O.3     1  UNL1       -0.4655
     26 C          -3.2182  -17.8017   24.0136 C.3     1  UNL1        0.0522
     27 C          -2.8157  -18.1987   22.6242 C.ar    1  UNL1        0.0620
     28 C          -3.5558  -19.2922   21.9126 C.ar    1  UNL1        0.0516
     29 C          -3.1533  -19.6892   20.5232 C.ar    1  UNL1        0.1416
     30 C          -2.0108  -18.9926   19.8454 C.ar    1  UNL1        0.0516
     31 C          -1.2708  -17.8991   20.5571 C.ar    1  UNL1        0.0620
     32 C          -0.1282  -17.2024   19.8793 C.3     1  UNL1        0.0522
     33 N          -1.6732  -17.5021   21.9465 N.ar    1  UNL1       -0.2538
@<TRIPOS>BOND
     1    26    27    1
     2    27    28   ar
     3    28    29   ar
     4    29    25    1
     5    25    24    1
     6    24    20    1
     7    20    21    2
     8    20    22   am
     9    22     1    1
    10     1     2   ar
    11     2     3   ar
    12     3     7    1
    13     7     8   ar
    14     8     9   ar
    15     9    10    1
    16     9    11   ar
    17    11    12   ar
    18    12    13    1
    19     3     4   ar
    20     4     5   ar
    21     5    14    1
    22    14    15   ar
    23    15    16   ar
    24    16    17   ar
    25    17    18    1
    26    17    19   ar
    27     5     6   ar
    28    29    30   ar
    29    30    31   ar
    30    31    32    1
    31    31    33   ar
    32    33    27   ar
    33     6     1   ar
    34    12     7   ar
    35    19    14   ar
    36    22    23    1
@<TRIPOS>MOLECULE
*****
 33 36 0 0 0
SMALL
GASTEIGER

@<TRIPOS>ATOM
      1 C         -16.3265   -4.6252   19.8605 C.ar    1  UNL1        0.1391
      2 C         -14.8306   -4.6330   19.7491 C.ar    1  UNL1        0.0733
      3 C         -14.1216   -5.8592   19.2556 C.ar    1  UNL1        0.1679
      4 N         -14.9085   -7.0777   18.8734 N.ar    1  UNL1       -0.2047
      5 C         -16.4043   -7.0700   18.9848 C.ar    1  UNL1        0.2001
      6 N         -17.1133   -5.8437   19.4784 N.ar    1  UNL1       -0.2088
      7 N         -12.6258   -5.8669   19.1442 N.ar    1  UNL1       -0.2164
      8 N         -11.7563   -7.0841   19.0322 N.ar    1  UNL1       -0.1684
      9 C         -10.3299   -6.6283   18.9440 C.ar    1  UNL1        0.0805
     10 C          -9.1268   -7.5156   18.8202 C.3     1  UNL1        0.0540
     11 C         -10.3179   -5.1294   19.0015 C.ar    1  UNL1        0.0312
     12 C         -11.7368   -4.6589   19.1252 C.ar    1  UNL1        0.0637
     13 C         -12.1876   -3.2310   19.2142 C.3     1  UNL1        0.0522
     14 C         -17.1912   -8.2886   18.6026 C.ar    1  UNL1        0.1805
     15 C         -16.8001   -9.7112   18.8732 C.ar    1  UNL1        0.0434
     16 C         -17.8744  -10.6003   18.3206 C.ar    1  UNL1        0.0362
     17 C         -18.9294   -9.7271   17.7085 C.ar    1  UNL1        0.1234
     18 C         -20.1860  -10.1998   17.0395 C.3     1  UNL1        0.0725
     19 O         -18.5071   -8.2984   17.8828 O.2     1  UNL1       -0.4546
     20 C         -17.7767   -2.5218   19.3892 C.2     1  UNL1        0.2717
     21 O         -17.8091   -2.8709   17.9307 O.2     1  UNL1       -0.2707
     22 N         -17.0354   -3.3989   20.3541 N.am    1  UNL1       -0.2662
     23 H         -17.0142   -3.1698   21.3113 H       1  UNL1        0.1564
     24 C         -18.4857   -1.2955   19.8827 C.3     1  UNL1        0.2897
     25 O         -17.7804   -0.3383   20.7972 O.3     1  UNL1       -0.4655
     26 C         -15.9014    4.4744   20.2425 C.3     1  UNL1        0.0522
     27 C         -15.8032    3.0023   19.9718 C.ar    1  UNL1        0.0620
     28 C         -16.8408    2.0681   20.5198 C.ar    1  UNL1        0.0516
     29 C         -16.7426    0.5960   20.2491 C.ar    1  UNL1        0.1416
     30 C         -15.6067    0.0581   19.4303 C.ar    1  UNL1        0.0516
     31 C         -14.5691    0.9924   18.8822 C.ar    1  UNL1        0.0620
     32 C         -13.4331    0.4546   18.0634 C.3     1  UNL1        0.0522
     33 N         -14.6673    2.4645   19.1530 N.ar    1  UNL1       -0.2538
@<TRIPOS>BOND
     1    26    27    1
     2    27    28   ar
     3    28    29   ar
     4    29    25    1
     5    25    24    1
     6    24    20    1
     7    20    21    2
     8    20    22   am
     9    22     1    1
    10     1     2   ar
    11     2     3   ar
    12     3     7    1
    13     7     8   ar
    14     8     9   ar
    15     9    10    1
    16     9    11   ar
    17    11    12   ar
    18    12    13    1
    19     3     4   ar
    20     4     5   ar
    21     5    14    1
    22    14    15   ar
    23    15    16   ar
    24    16    17   ar
    25    17    18    1
    26    17    19   ar
    27     5     6   ar
    28    29    30   ar
    29    30    31   ar
    30    31    32    1
    31    31    33   ar
    32    33    27   ar
    33     6     1   ar
    34    12     7   ar
    35    19    14   ar
    36    22    23    1
@<TRIPOS>MOLECULE
*****
 33 36 0 0 0
SMALL
GASTEIGER

@<TRIPOS>ATOM
      1 C           1.7998    1.6965   32.4900 C.ar    1  UNL1        0.1391
      2 C           1.1818    1.9326   31.1438 C.ar    1  UNL1        0.0733
      3 C           1.6122    1.1094   29.9661 C.ar    1  UNL1        0.1679
      4 N           2.6607    0.0500   30.1346 N.ar    1  UNL1       -0.2047
      5 C           3.2787   -0.1861   31.4808 C.ar    1  UNL1        0.2001
      6 N           2.8483    0.6371   32.6585 N.ar    1  UNL1       -0.2088
      7 N           0.9942    1.3456   28.6199 N.ar    1  UNL1       -0.2164
      8 N           1.5259    2.2562   27.5531 N.ar    1  UNL1       -0.1684
      9 C           0.5963    2.1860   26.3780 C.ar    1  UNL1        0.0805
     10 C           0.7465    2.9379   25.0888 C.3     1  UNL1        0.0540
     11 C          -0.5100    1.2320   26.7185 C.ar    1  UNL1        0.0312
     12 C          -0.2640    0.7126   28.1041 C.ar    1  UNL1        0.0637
     13 C          -1.1252   -0.2678   28.8439 C.3     1  UNL1        0.0522
     14 C           4.3272   -1.2456   31.6493 C.ar    1  UNL1        0.1805
     15 C           4.5452   -2.0834   32.8743 C.ar    1  UNL1        0.0434
     16 C           5.6944   -3.0088   32.6045 C.ar    1  UNL1        0.0362
     17 C           6.1867   -2.7429   31.2127 C.ar    1  UNL1        0.1234
     18 C           7.3243   -3.4437   30.5310 C.3     1  UNL1        0.0725
     19 O           5.3417   -1.6532   30.6224 O.2     1  UNL1       -0.4546
     20 C           1.9154    3.9043   33.8547 C.2     1  UNL1        0.2717
     21 O           2.8919    4.4655   32.8640 O.2     1  UNL1       -0.2707
     22 N           1.3694    2.5197   33.6677 N.am    1  UNL1       -0.2662
     23 H           0.7285    2.1514   34.3180 H       1  UNL1        0.1564
     24 C           1.4850    4.7275   35.0324 C.3     1  UNL1        0.2897
     25 O           2.2778    4.6880   36.3051 O.3     1  UNL1       -0.4655
     26 C           0.8024    1.3056   39.9633 C.3     1  UNL1        0.0522
     27 C           1.7357    1.6965   38.8559 C.ar    1  UNL1        0.0620
     28 C           1.5402    2.9968   38.1342 C.ar    1  UNL1        0.0516
     29 C           2.4734    3.3876   37.0268 C.ar    1  UNL1        0.1416
     30 C           3.6022    2.4782   36.6412 C.ar    1  UNL1        0.0516
     31 C           3.7977    1.1779   37.3629 C.ar    1  UNL1        0.0620
     32 C           4.9265    0.2684   36.9772 C.3     1  UNL1        0.0522
     33 N           2.8644    0.7870   38.4702 N.ar    1  UNL1       -0.2538
@<TRIPOS>BOND
     1    26    27    1
     2    27    28   ar
     3    28    29   ar
     4    29    25    1
     5    25    24    1
     6    24    20    1
     7    20    21    2
     8    20    22   am
     9    22     1    1
    10     1     2   ar
    11     2     3   ar
    12     3     7    1
    13     7     8   ar
    14     8     9   ar
    15     9    10    1
    16     9    11   ar
    17    11    12   ar
    18    12    13    1
    19     3     4   ar
    20     4     5   ar
    21     5    14    1
    22    14    15   ar
    23    15    16   ar
    24    16    17   ar
    25    17    18    1
    26    17    19   ar
    27     5     6   ar
    28    29    30   ar
    29    30    31   ar
    30    31    32    1
    31    31    33   ar
    32    33    27   ar
    33     6     1   ar
    34    12     7   ar
    35    19    14   ar
    36    22    23    1
@<TRIPOS>MOLECULE
*****
 33 36 0 0 0
SMALL
GASTEIGER

@<TRIPOS>ATOM
      1 C           5.3682    0.4724   32.7769 C.ar    1  UNL1        0.1391
      2 C           4.1733    0.9052   31.9801 C.ar    1  UNL1        0.0733
      3 C           3.6341    0.0200   30.8960 C.ar    1  UNL1        0.1679
      4 N           4.2898   -1.2981   30.6086 N.ar    1  UNL1       -0.2047
      5 C           5.4847   -1.7309   31.4053 C.ar    1  UNL1        0.2001
      6 N           6.0239   -0.8457   32.4895 N.ar    1  UNL1       -0.2088
      7 N           2.4392    0.4528   30.0992 N.ar    1  UNL1       -0.2164
      8 N           1.1004   -0.2234   30.0798 N.ar    1  UNL1       -0.1684
      9 C           0.2070    0.5436   29.1505 C.ar    1  UNL1        0.0805
     10 C          -1.2221    0.2176   28.8321 C.3     1  UNL1        0.0540
     11 C           0.9937    1.6939   28.5956 C.ar    1  UNL1        0.0312
     12 C           2.3732    1.6377   29.1819 C.ar    1  UNL1        0.0637
     13 C           3.4906    2.5980   28.9003 C.3     1  UNL1        0.0522
     14 C           6.1404   -3.0491   31.1179 C.ar    1  UNL1        0.1805
     15 C           6.6754   -4.0090   32.1389 C.ar    1  UNL1        0.0434
     16 C           7.2419   -5.1919   31.4111 C.ar    1  UNL1        0.0362
     17 C           7.0570   -4.9631   29.9401 C.ar    1  UNL1        0.1234
     18 C           7.4789   -5.8950   28.8430 C.3     1  UNL1        0.0725
     19 O           6.3763   -3.6388   29.7590 O.2     1  UNL1       -0.4546
     20 C           5.7835    0.9446   35.2978 C.2     1  UNL1        0.2717
     21 O           5.1205   -0.3540   35.6502 O.2     1  UNL1       -0.2707
     22 N           5.9074    1.3578   33.8612 N.am    1  UNL1       -0.2662
     23 H           6.3426    2.2101   33.6298 H       1  UNL1        0.1564
     24 C           6.3227    1.8298   36.3820 C.3     1  UNL1        0.2897
     25 O           5.7057    1.8023   37.7489 O.3     1  UNL1       -0.4655
     26 C           1.1198    0.1919   39.5865 C.3     1  UNL1        0.0522
     27 C           1.9347    1.1969   38.8276 C.ar    1  UNL1        0.0620
     28 C           3.4127    0.9971   38.6677 C.ar    1  UNL1        0.0516
     29 C           4.2276    2.0021   37.9088 C.ar    1  UNL1        0.1416
     30 C           3.5645    3.2069   37.3098 C.ar    1  UNL1        0.0516
     31 C           2.0866    3.4066   37.4697 C.ar    1  UNL1        0.0620
     32 C           1.4234    4.6115   36.8707 C.3     1  UNL1        0.0522
     33 N           1.2716    2.4016   38.2286 N.ar    1  UNL1       -0.2538
@<TRIPOS>BOND
     1    26    27    1
     2    27    28   ar
     3    28    29   ar
     4    29    25    1
     5    25    24    1
     6    24    20    1
     7    20    21    2
     8    20    22   am
     9    22     1    1
    10     1     2   ar
    11     2     3   ar
    12     3     7    1
    13     7     8   ar
    14     8     9   ar
    15     9    10    1
    16     9    11   ar
    17    11    12   ar
    18    12    13    1
    19     3     4   ar
    20     4     5   ar
    21     5    14    1
    22    14    15   ar
    23    15    16   ar
    24    16    17   ar
    25    17    18    1
    26    17    19   ar
    27     5     6   ar
    28    29    30   ar
    29    30    31   ar
    30    31    32    1
    31    31    33   ar
    32    33    27   ar
    33     6     1   ar
    34    12     7   ar
    35    19    14   ar
    36    22    23    1
@<TRIPOS>MOLECULE
*****
 33 36 0 0 0
SMALL
GASTEIGER

@<TRIPOS>ATOM
      1 C           6.1549   -2.4529   25.8244 C.ar    1  UNL1        0.1391
      2 C           6.8942   -3.7132   26.1635 C.ar    1  UNL1        0.0733
      3 C           6.9488   -4.8398   25.1748 C.ar    1  UNL1        0.1679
      4 N           6.2641   -4.7062   23.8469 N.ar    1  UNL1       -0.2047
      5 C           5.5248   -3.4459   23.5078 C.ar    1  UNL1        0.2001
      6 N           5.4702   -2.3192   24.4965 N.ar    1  UNL1       -0.2088
      7 N           7.6882   -6.1002   25.5139 N.ar    1  UNL1       -0.2164
      8 N           7.4015   -7.0052   26.6752 N.ar    1  UNL1       -0.1684
      9 C           8.3801   -8.1411   26.6303 C.ar    1  UNL1        0.0805
     10 C           8.4542   -9.2801   27.6036 C.3     1  UNL1        0.0540
     11 C           9.2717   -7.9381   25.4412 C.ar    1  UNL1        0.0312
     12 C           8.8440   -6.6767   24.7513 C.ar    1  UNL1        0.0637
     13 C           9.4635   -6.0941   23.5156 C.3     1  UNL1        0.0522
     14 C           4.8401   -3.3122   22.1798 C.ar    1  UNL1        0.1805
     15 C           4.2696   -2.0496   21.6051 C.ar    1  UNL1        0.0434
     16 C           3.6826   -2.3747   20.2636 C.ar    1  UNL1        0.0362
     17 C           3.8902   -3.8384   20.0092 C.ar    1  UNL1        0.1234
     18 C           3.4582   -4.5906   18.7854 C.3     1  UNL1        0.0725
     19 O           4.6055   -4.4178   21.1935 O.2     1  UNL1       -0.4546
     20 C           4.8313   -1.0470   27.5627 C.2     1  UNL1        0.2717
     21 O           3.6170   -1.8946   27.3235 O.2     1  UNL1       -0.2707
     22 N           6.1003   -1.3262   26.8132 N.am    1  UNL1       -0.2662
     23 H           6.8973   -0.7700   26.9702 H       1  UNL1        0.1564
     24 C           4.7767    0.0796   28.5515 C.3     1  UNL1        0.2897
     25 O           3.8250    1.2192   28.3382 O.3     1  UNL1       -0.4655
     26 C          -1.1009   -0.3914   28.7156 C.3     1  UNL1        0.0522
     27 C           0.0407    0.4303   29.2367 C.ar    1  UNL1        0.0620
     28 C           1.3620    0.4139   28.5270 C.ar    1  UNL1        0.0516
     29 C           2.5036    1.2356   29.0481 C.ar    1  UNL1        0.1416
     30 C           2.3238    2.0738   30.2789 C.ar    1  UNL1        0.0516
     31 C           1.0025    2.0903   30.9887 C.ar    1  UNL1        0.0620
     32 C           0.8227    2.9285   32.2196 C.3     1  UNL1        0.0522
     33 N          -0.1390    1.2685   30.4676 N.ar    1  UNL1       -0.2538
@<TRIPOS>BOND
     1    26    27    1
     2    27    28   ar
     3    28    29   ar
     4    29    25    1
     5    25    24    1
     6    24    20    1
     7    20    21    2
     8    20    22   am
     9    22     1    1
    10     1     2   ar
    11     2     3   ar
    12     3     7    1
    13     7     8   ar
    14     8     9   ar
    15     9    10    1
    16     9    11   ar
    17    11    12   ar
    18    12    13    1
    19     3     4   ar
    20     4     5   ar
    21     5    14    1
    22    14    15   ar
    23    15    16   ar
    24    16    17   ar
    25    17    18    1
    26    17    19   ar
    27     5     6   ar
    28    29    30   ar
    29    30    31   ar
    30    31    32    1
    31    31    33   ar
    32    33    27   ar
    33     6     1   ar
    34    12     7   ar
    35    19    14   ar
    36    22    23    1
@<TRIPOS>MOLECULE
*****
 33 36 0 0 0
SMALL
GASTEIGER

@<TRIPOS>ATOM
      1 C           5.3609   -2.7863   24.4760 C.ar    1  UNL1        0.1391
      2 C           5.1822   -2.3819   23.0426 C.ar    1  UNL1        0.0733
      3 C           5.9056   -3.1239   21.9582 C.ar    1  UNL1        0.1679
      4 N           6.8077   -4.2703   22.3071 N.ar    1  UNL1       -0.2047
      5 C           6.9865   -4.6747   23.7404 C.ar    1  UNL1        0.2001
      6 N           6.2631   -3.9327   24.8249 N.ar    1  UNL1       -0.2088
      7 N           5.7268   -2.7195   20.5248 N.ar    1  UNL1       -0.2164
      8 N           6.3385   -1.5198   19.8643 N.ar    1  UNL1       -0.1684
      9 C           5.8947   -1.5026   18.4316 C.ar    1  UNL1        0.0805
     10 C           6.2709   -0.4765   17.4042 C.3     1  UNL1        0.0540
     11 C           5.0086   -2.6918   18.2066 C.ar    1  UNL1        0.0312
     12 C           4.9048   -3.4439   19.5003 C.ar    1  UNL1        0.0637
     13 C           4.1173   -4.6999   19.7292 C.3     1  UNL1        0.0522
     14 C           7.8888   -5.8212   24.0893 C.ar    1  UNL1        0.1805
     15 C           8.7695   -6.5721   23.1351 C.ar    1  UNL1        0.0434
     16 C           9.4937   -7.6330   23.9096 C.ar    1  UNL1        0.0362
     17 C           9.0606   -7.5377   25.3426 C.ar    1  UNL1        0.1234
     18 C           9.5360   -8.4092   26.4671 C.3     1  UNL1        0.0725
     19 O           8.0687   -6.4180   25.4536 O.2     1  UNL1       -0.4546
     20 C           5.3189   -0.9203   26.2833 C.2     1  UNL1        0.2717
     21 O           6.7237   -0.5385   25.9217 O.2     1  UNL1       -0.2707
     22 N           4.6375   -2.0442   25.5604 N.am    1  UNL1       -0.2662
     23 H           3.7155   -2.2948   25.7977 H       1  UNL1        0.1564
     24 C           4.5955   -0.1782   27.3677 C.3     1  UNL1        0.2897
     25 O           3.7837   -0.9318   28.3793 O.3     1  UNL1       -0.4655
     26 C          -1.3400   -0.1419   28.7309 C.3     1  UNL1        0.0522
     27 C           0.0522    0.1249   29.2214 C.ar    1  UNL1        0.0620
     28 C           1.2218   -0.5368   28.5551 C.ar    1  UNL1        0.0516
     29 C           2.6140   -0.2700   29.0456 C.ar    1  UNL1        0.1416
     30 C           2.8365    0.6584   30.2025 C.ar    1  UNL1        0.0516
     31 C           1.6669    1.3201   30.8688 C.ar    1  UNL1        0.0620
     32 C           1.8894    2.2486   32.0258 C.3     1  UNL1        0.0522
     33 N           0.2747    1.0534   30.3783 N.ar    1  UNL1       -0.2538
@<TRIPOS>BOND
     1    26    27    1
     2    27    28   ar
     3    28    29   ar
     4    29    25    1
     5    25    24    1
     6    24    20    1
     7    20    21    2
     8    20    22   am
     9    22     1    1
    10     1     2   ar
    11     2     3   ar
    12     3     7    1
    13     7     8   ar
    14     8     9   ar
    15     9    10    1
    16     9    11   ar
    17    11    12   ar
    18    12    13    1
    19     3     4   ar
    20     4     5   ar
    21     5    14    1
    22    14    15   ar
    23    15    16   ar
    24    16    17   ar
    25    17    18    1
    26    17    19   ar
    27     5     6   ar
    28    29    30   ar
    29    30    31   ar
    30    31    32    1
    31    31    33   ar
    32    33    27   ar
    33     6     1   ar
    34    12     7   ar
    35    19    14   ar
    36    22    23    1
@<TRIPOS>MOLECULE
*****
 33 36 0 0 0
SMALL
GASTEIGER

@<TRIPOS>ATOM
      1 C           5.6683   -1.9346   25.8856 C.ar    1  UNL1        0.1391
      2 C           6.4388   -3.2103   26.0552 C.ar    1  UNL1        0.0733
      3 C           6.4821   -4.2141   24.9415 C.ar    1  UNL1        0.1679
      4 N           5.7548   -3.9422   23.6581 N.ar    1  UNL1       -0.2047
      5 C           4.9842   -2.6664   23.4885 C.ar    1  UNL1        0.2001
      6 N           4.9409   -1.6627   24.6023 N.ar    1  UNL1       -0.2088
      7 N           7.2527   -5.4898   25.1110 N.ar    1  UNL1       -0.2164
      8 N           7.2099   -6.3933   26.3077 N.ar    1  UNL1       -0.1684
      9 C           8.1321   -7.5479   26.0500 C.ar    1  UNL1        0.0805
     10 C           8.3953   -8.6916   26.9842 C.3     1  UNL1        0.0540
     11 C           8.7448   -7.3580   24.6941 C.ar    1  UNL1        0.0312
     12 C           8.2013   -6.0861   24.1138 C.ar    1  UNL1        0.0637
     13 C           8.5460   -5.5113   22.7718 C.3     1  UNL1        0.0522
     14 C           4.2568   -2.3945   22.2051 C.ar    1  UNL1        0.1805
     15 C           4.4760   -3.1018   20.9006 C.ar    1  UNL1        0.0434
     16 C           3.5373   -2.5121   19.8901 C.ar    1  UNL1        0.0362
     17 C           2.7380   -1.4403   20.5702 C.ar    1  UNL1        0.1234
     18 C           1.6797   -0.5904   19.9316 C.3     1  UNL1        0.0725
     19 O           3.1827   -1.3677   22.0009 O.2     1  UNL1       -0.4546
     20 C           4.4107   -0.8333   27.8746 C.2     1  UNL1        0.2717
     21 O           3.2395   -1.7397   27.6358 O.2     1  UNL1       -0.2707
     22 N           5.6250   -0.9308   26.9995 N.am    1  UNL1       -0.2662
     23 H           6.3937   -0.3359   27.1562 H       1  UNL1        0.1564
     24 C           4.3674    0.1704   28.9884 C.3     1  UNL1        0.2897
     25 O           3.4817    1.3759   28.8776 O.3     1  UNL1       -0.4655
     26 C           0.3549    2.2374   24.8179 C.3     1  UNL1        0.0522
     27 C           0.5714    1.6906   26.1978 C.ar    1  UNL1        0.0620
     28 C           1.9182    1.8067   26.8478 C.ar    1  UNL1        0.0516
     29 C           2.1347    1.2598   28.2277 C.ar    1  UNL1        0.1416
     30 C           1.0044    0.5968   28.9576 C.ar    1  UNL1        0.0516
     31 C          -0.3424    0.4807   28.3076 C.ar    1  UNL1        0.0620
     32 C          -1.4728   -0.1823   29.0375 C.3     1  UNL1        0.0522
     33 N          -0.5589    1.0276   26.9277 N.ar    1  UNL1       -0.2538
@<TRIPOS>BOND
     1    26    27    1
     2    27    28   ar
     3    28    29   ar
     4    29    25    1
     5    25    24    1
     6    24    20    1
     7    20    21    2
     8    20    22   am
     9    22     1    1
    10     1     2   ar
    11     2     3   ar
    12     3     7    1
    13     7     8   ar
    14     8     9   ar
    15     9    10    1
    16     9    11   ar
    17    11    12   ar
    18    12    13    1
    19     3     4   ar
    20     4     5   ar
    21     5    14    1
    22    14    15   ar
    23    15    16   ar
    24    16    17   ar
    25    17    18    1
    26    17    19   ar
    27     5     6   ar
    28    29    30   ar
    29    30    31   ar
    30    31    32    1
    31    31    33   ar
    32    33    27   ar
    33     6     1   ar
    34    12     7   ar
    35    19    14   ar
    36    22    23    1
@<TRIPOS>MOLECULE
*****
 33 36 0 0 0
SMALL
GASTEIGER

@<TRIPOS>ATOM
      1 C           4.4825   -1.7943   32.8598 C.ar    1  UNL1        0.1391
      2 C           4.7268   -0.9681   34.0876 C.ar    1  UNL1        0.0733
      3 C           4.0949    0.3860   34.2184 C.ar    1  UNL1        0.1679
      4 N           3.2188    0.9139   33.1214 N.ar    1  UNL1       -0.2047
      5 C           2.9745    0.0877   31.8935 C.ar    1  UNL1        0.2001
      6 N           3.6063   -1.2664   31.7627 N.ar    1  UNL1       -0.2088
      7 N           4.3393    1.2122   35.4463 N.ar    1  UNL1       -0.2164
      8 N           3.3157    1.5809   36.4790 N.ar    1  UNL1       -0.1684
      9 C           3.9939    2.4114   37.5280 C.ar    1  UNL1        0.0805
     10 C           3.3435    2.9948   38.7473 C.3     1  UNL1        0.0540
     11 C           5.4366    2.5559   37.1437 C.ar    1  UNL1        0.0312
     12 C           5.6500    1.8148   35.8571 C.ar    1  UNL1        0.0637
     13 C           6.9466    1.6970   35.1122 C.3     1  UNL1        0.0522
     14 C           2.0983    0.6157   30.7964 C.ar    1  UNL1        0.1805
     15 C           2.2374    1.9477   30.1208 C.ar    1  UNL1        0.0434
     16 C           1.1543    2.0596   29.0891 C.ar    1  UNL1        0.0362
     17 C           0.3457    0.7967   29.1271 C.ar    1  UNL1        0.1234
     18 C          -0.8384    0.4815   28.2619 C.3     1  UNL1        0.0725
     19 O           0.9292   -0.0957   30.1822 O.2     1  UNL1       -0.4546
     20 C           6.2641   -3.3518   31.7873 C.2     1  UNL1        0.2717
     21 O           6.7819   -2.2010   30.9764 O.2     1  UNL1       -0.2707
     22 N           5.1144   -3.1485   32.7290 N.am    1  UNL1       -0.2662
     23 H           4.7745   -3.9037   33.2612 H       1  UNL1        0.1564
     24 C           6.8960   -4.7059   31.6565 C.3     1  UNL1        0.2897
     25 O           8.1056   -4.8884   30.7885 O.3     1  UNL1       -0.4655
     26 C           6.7837   -4.3020   25.7976 C.3     1  UNL1        0.0522
     27 C           7.2982   -5.1635   26.9126 C.ar    1  UNL1        0.0620
     28 C           7.4446   -4.5953   28.2930 C.ar    1  UNL1        0.0516
     29 C           7.9592   -5.4567   29.4080 C.ar    1  UNL1        0.1416
     30 C           8.3272   -6.8864   29.1425 C.ar    1  UNL1        0.0516
     31 C           8.1808   -7.4546   27.7621 C.ar    1  UNL1        0.0620
     32 C           8.5489   -8.8843   27.4966 C.3     1  UNL1        0.0522
     33 N           7.6663   -6.5932   26.6471 N.ar    1  UNL1       -0.2538
@<TRIPOS>BOND
     1    26    27    1
     2    27    28   ar
     3    28    29   ar
     4    29    25    1
     5    25    24    1
     6    24    20    1
     7    20    21    2
     8    20    22   am
     9    22     1    1
    10     1     2   ar
    11     2     3   ar
    12     3     7    1
    13     7     8   ar
    14     8     9   ar
    15     9    10    1
    16     9    11   ar
    17    11    12   ar
    18    12    13    1
    19     3     4   ar
    20     4     5   ar
    21     5    14    1
    22    14    15   ar
    23    15    16   ar
    24    16    17   ar
    25    17    18    1
    26    17    19   ar
    27     5     6   ar
    28    29    30   ar
    29    30    31   ar
    30    31    32    1
    31    31    33   ar
    32    33    27   ar
    33     6     1   ar
    34    12     7   ar
    35    19    14   ar
    36    22    23    1
@<TRIPOS>MOLECULE
*****
 33 36 0 0 0
SMALL
GASTEIGER

@<TRIPOS>ATOM
      1 C           1.8352    0.7212   22.4928 C.ar    1  UNL1        0.1391
      2 C           2.6608   -0.3174   21.7930 C.ar    1  UNL1        0.0733
      3 C           2.6091   -0.4347   20.2985 C.ar    1  UNL1        0.1679
      4 N           1.7319    0.4866   19.5038 N.ar    1  UNL1       -0.2047
      5 C           0.9063    1.5253   20.2036 C.ar    1  UNL1        0.2001
      6 N           0.9580    1.6425   21.6981 N.ar    1  UNL1       -0.2088
      7 N           3.4347   -1.4733   19.5987 N.ar    1  UNL1       -0.2164
      8 N           3.3225   -2.9580   19.7801 N.ar    1  UNL1       -0.1684
      9 C           4.3359   -3.6119   18.8881 C.ar    1  UNL1        0.0805
     10 C           4.5697   -5.0874   18.7527 C.3     1  UNL1        0.0540
     11 C           5.0744   -2.5312   18.1554 C.ar    1  UNL1        0.0312
     12 C           4.5174   -1.2095   18.5946 C.ar    1  UNL1        0.0637
     13 C           4.9646    0.1392   18.1140 C.3     1  UNL1        0.0522
     14 C           0.0290    2.4466   19.4089 C.ar    1  UNL1        0.1805
     15 C          -1.1070    3.2649   19.9474 C.ar    1  UNL1        0.0434
     16 C          -1.7044    4.0354   18.8075 C.ar    1  UNL1        0.0362
     17 C          -0.9375    3.6934   17.5645 C.ar    1  UNL1        0.1234
     18 C          -1.1965    4.2377   16.1909 C.3     1  UNL1        0.0725
     19 O           0.1338    2.7115   17.9362 O.2     1  UNL1       -0.4546
     20 C           2.9032    1.7317   24.6349 C.2     1  UNL1        0.2717
     21 O           3.8678    2.5077   23.7878 O.2     1  UNL1       -0.2707
     22 N           1.8869    0.8384   23.9874 N.am    1  UNL1       -0.2662
     23 H           1.2539    0.3291   24.5433 H       1  UNL1        0.1564
     24 C           2.9549    1.8490   26.1293 C.3     1  UNL1        0.2897
     25 O           1.9573    2.7072   26.8493 O.3     1  UNL1       -0.4655
     26 C           0.9218    2.7623   31.9409 C.3     1  UNL1        0.0522
     27 C           0.6921    2.1871   30.5748 C.ar    1  UNL1        0.0620
     28 C           1.4395    2.7347   29.3951 C.ar    1  UNL1        0.0516
     29 C           1.2099    2.1595   28.0290 C.ar    1  UNL1        0.1416
     30 C           0.2328    1.0368   27.8424 C.ar    1  UNL1        0.0516
     31 C          -0.5146    0.4893   29.0220 C.ar    1  UNL1        0.0620
     32 C          -1.4917   -0.6335   28.8355 C.3     1  UNL1        0.0522
     33 N          -0.2849    1.0644   30.3882 N.ar    1  UNL1       -0.2538
@<TRIPOS>BOND
     1    26    27    1
     2    27    28   ar
     3    28    29   ar
     4    29    25    1
     5    25    24    1
     6    24    20    1
     7    20    21    2
     8    20    22   am
     9    22     1    1
    10     1     2   ar
    11     2     3   ar
    12     3     7    1
    13     7     8   ar
    14     8     9   ar
    15     9    10    1
    16     9    11   ar
    17    11    12   ar
    18    12    13    1
    19     3     4   ar
    20     4     5   ar
    21     5    14    1
    22    14    15   ar
    23    15    16   ar
    24    16    17   ar
    25    17    18    1
    26    17    19   ar
    27     5     6   ar
    28    29    30   ar
    29    30    31   ar
    30    31    32    1
    31    31    33   ar
    32    33    27   ar
    33     6     1   ar
    34    12     7   ar
    35    19    14   ar
    36    22    23    1
