@<TRIPOS>MOLECULE
*****
 37 41 0 0 0
SMALL
GASTEIGER

@<TRIPOS>ATOM
      1 C           7.1400   -3.8948   22.5711 C.ar    1  UNL1        0.1725
      2 C           6.4997   -3.3037   23.7921 C.ar    1  UNL1        0.0398
      3 C           6.6423   -3.9877   25.1194 C.ar    1  UNL1        0.0034
      4 C           7.4252   -5.2628   25.2258 C.ar    1  UNL1        0.0067
      5 C           7.5678   -5.9467   26.5532 C.ar    1  UNL1        0.0537
      6 C           8.3507   -7.2218   26.6596 C.ar    1  UNL1        0.0045
      7 C           8.9910   -7.8129   25.4386 C.ar    1  UNL1        0.0002
      8 C           8.8484   -7.1289   24.1113 C.ar    1  UNL1        0.0023
      9 C           8.0655   -5.8538   24.0049 C.ar    1  UNL1        0.0307
     10 C           7.9229   -5.1698   22.6775 C.ar    1  UNL1        0.1743
     11 F           8.5631   -5.7609   21.4566 F       1  UNL1       -0.2010
     12 C           6.9275   -5.3557   27.7741 C.2     1  UNL1        0.2495
     13 O           5.5172   -5.7200   28.1323 O.2     1  UNL1       -0.2698
     14 N           7.6976   -4.4003   28.6368 N.am    1  UNL1       -0.2804
     15 H           8.6232   -4.1612   28.4017 H       1  UNL1        0.1552
     16 C           7.0573   -3.8092   29.8578 C.ar    1  UNL1        0.0506
     17 C           7.1202   -4.5402   31.1661 C.ar    1  UNL1        0.0155
     18 C           6.4800   -3.9492   32.3870 C.ar    1  UNL1        0.0127
     19 C           5.7769   -2.6271   32.2997 C.ar    1  UNL1        0.0578
     20 CL          5.1366   -2.0360   33.5206 Cl      1  UNL1       -0.0822
     21 C           5.7139   -1.8961   30.9914 C.ar    1  UNL1        0.0127
     22 C           6.3541   -2.4871   29.7704 C.ar    1  UNL1        0.0155
     23 O           6.9974   -3.2108   21.2438 O.3     1  UNL1       -0.4511
     24 C           2.6938    0.0251   20.7358 C.ar    1  UNL1        0.1739
     25 C           2.4079   -1.1826   19.8933 C.ar    1  UNL1        0.0592
     26 C           3.4124   -2.2936   19.8097 C.ar    1  UNL1        0.0875
     27 N           3.1266   -3.5013   18.9673 N.ar    1  UNL1       -0.2435
     28 C           4.1310   -4.6121   18.8837 C.ar    1  UNL1        0.1020
     29 C           5.4213   -4.5153   19.6426 C.ar    1  UNL1        0.0581
     30 C           5.7071   -3.3076   20.4850 C.ar    1  UNL1        0.1484
     31 C           4.7027   -2.1967   20.5686 C.ar    1  UNL1        0.0554
     32 C           4.9885   -0.9890   21.4110 C.ar    1  UNL1        0.0446
     33 C           3.9840    0.1219   21.4946 C.ar    1  UNL1        0.1726
     34 C           0.2462    0.8672   20.5108 C.3     1  UNL1        0.2526
     35 O           1.6893    1.1360   20.8194 O.3     1  UNL1       -0.4683
     36 O           4.2698    1.3297   22.3371 O.3     1  UNL1       -0.4684
     37 C           3.7646    1.3967   23.7478 C.3     1  UNL1        0.2526
@<TRIPOS>BOND
     1    34    35    1
     2    35    24    1
     3    24    25   ar
     4    25    26   ar
     5    26    27   ar
     6    27    28   ar
     7    28    29   ar
     8    29    30   ar
     9    30    23    1
    10    23     1    1
    11     1     2   ar
    12     2     3   ar
    13     3     4   ar
    14     4     5   ar
    15     5    12    1
    16    12    13    2
    17    12    14   am
    18    14    16    1
    19    16    17   ar
    20    17    18   ar
    21    18    19   ar
    22    19    20    1
    23    19    21   ar
    24    21    22   ar
    25     5     6   ar
    26     6     7   ar
    27     7     8   ar
    28     8     9   ar
    29     9    10   ar
    30    10    11    1
    31    30    31   ar
    32    31    32   ar
    33    32    33   ar
    34    33    36    1
    35    36    37    1
    36    33    24   ar
    37    31    26   ar
    38    10     1   ar
    39     9     4   ar
    40    22    16   ar
    41    14    15    1
@<TRIPOS>MOLECULE
*****
 37 41 0 0 0
SMALL
GASTEIGER

@<TRIPOS>ATOM
      1 C           2.2533   -0.8778   20.7662 C.ar    1  UNL1        0.1725
      2 C           2.8169   -1.0088   22.1502 C.ar    1  UNL1        0.0398
      3 C           2.3310   -0.1074   23.2462 C.ar    1  UNL1        0.0034
      4 C           1.2816    0.9250   22.9584 C.ar    1  UNL1        0.0067
      5 C           0.7958    1.8265   24.0545 C.ar    1  UNL1        0.0537
      6 C          -0.2536    2.8589   23.7667 C.ar    1  UNL1        0.0045
      7 C          -0.8172    2.9899   22.3827 C.ar    1  UNL1        0.0002
      8 C          -0.3313    2.0885   21.2866 C.ar    1  UNL1        0.0023
      9 C           0.7181    1.0560   21.5745 C.ar    1  UNL1        0.0307
     10 C           1.2039    0.1546   20.4784 C.ar    1  UNL1        0.1743
     11 F           0.6403    0.2856   19.0945 F       1  UNL1       -0.2010
     12 C           1.3594    1.6955   25.4384 C.2     1  UNL1        0.2495
     13 O           2.6351    2.3977   25.7983 O.2     1  UNL1       -0.2698
     14 N           0.6472    0.8623   26.4624 N.am    1  UNL1       -0.2804
     15 H          -0.1901    0.4015   26.2262 H       1  UNL1        0.1552
     16 C           1.2108    0.7313   27.8464 C.ar    1  UNL1        0.0506
     17 C           2.2527   -0.3080   28.1366 C.ar    1  UNL1        0.0155
     18 C           2.8163   -0.4391   29.5205 C.ar    1  UNL1        0.0127
     19 C           2.3379    0.4692   30.6141 C.ar    1  UNL1        0.0578
     20 CL          2.9015    0.3382   31.9981 Cl      1  UNL1       -0.0822
     21 C           1.2960    1.5085   30.3239 C.ar    1  UNL1        0.0127
     22 C           0.7324    1.6396   28.9400 C.ar    1  UNL1        0.0155
     23 O           2.7391   -1.7793   19.6702 O.3     1  UNL1       -0.4511
     24 C           7.9532   -3.1145   20.2005 C.ar    1  UNL1        0.1739
     25 C           7.8755   -2.2056   19.0097 C.ar    1  UNL1        0.0592
     26 C           6.5525   -1.6446   18.5794 C.ar    1  UNL1        0.0875
     27 N           6.4749   -0.7358   17.3886 N.ar    1  UNL1       -0.2435
     28 C           5.1520   -0.1748   16.9584 C.ar    1  UNL1        0.1020
     29 C           3.9067   -0.5226   17.7189 C.ar    1  UNL1        0.0581
     30 C           3.9844   -1.4314   18.9097 C.ar    1  UNL1        0.1484
     31 C           5.3073   -1.9924   19.3399 C.ar    1  UNL1        0.0554
     32 C           5.3850   -2.9013   20.5307 C.ar    1  UNL1        0.0446
     33 C           6.7079   -3.4623   20.9610 C.ar    1  UNL1        0.1726
     34 C           9.5306   -5.1509   20.5392 C.3     1  UNL1        0.2526
     35 O           9.2761   -3.6755   20.6308 O.3     1  UNL1       -0.4683
     36 O           6.7856   -4.3711   22.1518 O.3     1  UNL1       -0.4684
     37 C           6.4725   -3.8427   23.5203 C.3     1  UNL1        0.2526
@<TRIPOS>BOND
     1    34    35    1
     2    35    24    1
     3    24    25   ar
     4    25    26   ar
     5    26    27   ar
     6    27    28   ar
     7    28    29   ar
     8    29    30   ar
     9    30    23    1
    10    23     1    1
    11     1     2   ar
    12     2     3   ar
    13     3     4   ar
    14     4     5   ar
    15     5    12    1
    16    12    13    2
    17    12    14   am
    18    14    16    1
    19    16    17   ar
    20    17    18   ar
    21    18    19   ar
    22    19    20    1
    23    19    21   ar
    24    21    22   ar
    25     5     6   ar
    26     6     7   ar
    27     7     8   ar
    28     8     9   ar
    29     9    10   ar
    30    10    11    1
    31    30    31   ar
    32    31    32   ar
    33    32    33   ar
    34    33    36    1
    35    36    37    1
    36    33    24   ar
    37    31    26   ar
    38    10     1   ar
    39     9     4   ar
    40    22    16   ar
    41    14    15    1
@<TRIPOS>MOLECULE
*****
 37 41 0 0 0
SMALL
GASTEIGER

@<TRIPOS>ATOM
      1 C           4.7390   -3.1403   22.5351 C.ar    1  UNL1        0.1725
      2 C           3.8832   -2.2524   23.3890 C.ar    1  UNL1        0.0398
      3 C           4.3847   -1.7851   24.7232 C.ar    1  UNL1        0.0034
      4 C           5.7420   -2.2057   25.2035 C.ar    1  UNL1        0.0067
      5 C           6.2435   -1.7384   26.5378 C.ar    1  UNL1        0.0537
      6 C           7.6009   -2.1590   27.0181 C.ar    1  UNL1        0.0045
      7 C           8.4567   -3.0469   26.1641 C.ar    1  UNL1        0.0002
      8 C           7.9552   -3.5142   24.8299 C.ar    1  UNL1        0.0023
      9 C           6.5979   -3.0936   24.3496 C.ar    1  UNL1        0.0307
     10 C           6.0963   -3.5609   23.0154 C.ar    1  UNL1        0.1743
     11 F           6.9522   -4.4488   22.1615 F       1  UNL1       -0.2010
     12 C           5.3877   -0.8505   27.3916 C.2     1  UNL1        0.2495
     13 O           5.5579    0.6386   27.3314 O.2     1  UNL1       -0.2698
     14 N           4.3617   -1.4517   28.3058 N.am    1  UNL1       -0.2804
     15 H           4.2499   -2.4290   28.3453 H       1  UNL1        0.1552
     16 C           3.5058   -0.5638   29.1597 C.ar    1  UNL1        0.0506
     17 C           3.9882   -0.1336   30.5133 C.ar    1  UNL1        0.0155
     18 C           3.1324    0.7543   31.3673 C.ar    1  UNL1        0.0127
     19 C           1.7941    1.2119   30.8676 C.ar    1  UNL1        0.0578
     20 CL          0.9382    2.0998   31.7216 Cl      1  UNL1       -0.0822
     21 C           1.3117    0.7816   29.5140 C.ar    1  UNL1        0.0127
     22 C           2.1675   -0.1062   28.6601 C.ar    1  UNL1        0.0155
     23 O           4.2375   -3.6076   21.2009 O.3     1  UNL1       -0.4511
     24 C           1.8023    0.4546   18.5896 C.ar    1  UNL1        0.1739
     25 C           3.0446    0.1434   17.8087 C.ar    1  UNL1        0.0592
     26 C           3.9640   -0.9500   18.2662 C.ar    1  UNL1        0.0875
     27 N           5.2062   -1.2612   17.4853 N.ar    1  UNL1       -0.2435
     28 C           6.1256   -2.3545   17.9428 C.ar    1  UNL1        0.1020
     29 C           5.8026   -3.1366   19.1814 C.ar    1  UNL1        0.0581
     30 C           4.5604   -2.8255   19.9623 C.ar    1  UNL1        0.1484
     31 C           3.6411   -1.7321   19.5048 C.ar    1  UNL1        0.0554
     32 C           2.3987   -1.4209   20.2857 C.ar    1  UNL1        0.0446
     33 C           1.4794   -0.3275   19.8282 C.ar    1  UNL1        0.1726
     34 C           1.1759    2.9742   18.4927 C.3     1  UNL1        0.2526
     35 O           0.8829    1.5480   18.1321 O.3     1  UNL1       -0.4683
     36 O           0.2371   -0.0163   20.6091 O.3     1  UNL1       -0.4684
     37 C           0.2398    1.1028   21.6080 C.3     1  UNL1        0.2526
@<TRIPOS>BOND
     1    34    35    1
     2    35    24    1
     3    24    25   ar
     4    25    26   ar
     5    26    27   ar
     6    27    28   ar
     7    28    29   ar
     8    29    30   ar
     9    30    23    1
    10    23     1    1
    11     1     2   ar
    12     2     3   ar
    13     3     4   ar
    14     4     5   ar
    15     5    12    1
    16    12    13    2
    17    12    14   am
    18    14    16    1
    19    16    17   ar
    20    17    18   ar
    21    18    19   ar
    22    19    20    1
    23    19    21   ar
    24    21    22   ar
    25     5     6   ar
    26     6     7   ar
    27     7     8   ar
    28     8     9   ar
    29     9    10   ar
    30    10    11    1
    31    30    31   ar
    32    31    32   ar
    33    32    33   ar
    34    33    36    1
    35    36    37    1
    36    33    24   ar
    37    31    26   ar
    38    10     1   ar
    39     9     4   ar
    40    22    16   ar
    41    14    15    1
@<TRIPOS>MOLECULE
*****
 37 41 0 0 0
SMALL
GASTEIGER

@<TRIPOS>ATOM
      1 C           4.6278   -1.0213   33.3764 C.ar    1  UNL1        0.1725
      2 C           3.5860   -0.1085   32.8005 C.ar    1  UNL1        0.0398
      3 C           3.4421    0.0214   31.3131 C.ar    1  UNL1        0.0034
      4 C           4.3400   -0.7614   30.4016 C.ar    1  UNL1        0.0067
      5 C           4.1961   -0.6315   28.9141 C.ar    1  UNL1        0.0537
      6 C           5.0940   -1.4143   28.0025 C.ar    1  UNL1        0.0045
      7 C           6.1358   -2.3271   28.5784 C.ar    1  UNL1        0.0002
      8 C           6.2797   -2.4570   30.0658 C.ar    1  UNL1        0.0023
      9 C           5.3818   -1.6742   30.9774 C.ar    1  UNL1        0.0307
     10 C           5.5257   -1.8041   32.4649 C.ar    1  UNL1        0.1743
     11 F           6.5674   -2.7168   33.0407 F       1  UNL1       -0.2010
     12 C           3.1544    0.2812   28.3383 C.2     1  UNL1        0.2495
     13 O           3.4291    1.7509   28.2169 O.2     1  UNL1       -0.2698
     14 N           1.8378   -0.2756   27.8838 N.am    1  UNL1       -0.2804
     15 H           1.6575   -1.2402   27.9635 H       1  UNL1        0.1552
     16 C           0.7960    0.6371   27.3080 C.ar    1  UNL1        0.0506
     17 C           0.8477    1.0131   25.8568 C.ar    1  UNL1        0.0155
     18 C          -0.1941    1.9258   25.2809 C.ar    1  UNL1        0.0127
     19 C          -1.2875    2.4625   26.1562 C.ar    1  UNL1        0.0578
     20 CL         -2.3294    3.3752   25.5804 Cl      1  UNL1       -0.0822
     21 C          -1.3392    2.0865   27.6074 C.ar    1  UNL1        0.0127
     22 C          -0.2975    1.1738   28.1833 C.ar    1  UNL1        0.0155
     23 O           4.7717   -1.1512   34.8638 O.3     1  UNL1       -0.4511
     24 C           3.9098    2.3605   38.8857 C.ar    1  UNL1        0.1739
     25 C           5.3685    2.4609   38.5512 C.ar    1  UNL1        0.0592
     26 C           5.9487    1.6081   37.4621 C.ar    1  UNL1        0.0875
     27 N           7.4075    1.7084   37.1277 N.ar    1  UNL1       -0.2435
     28 C           7.9876    0.8556   36.0386 C.ar    1  UNL1        0.1020
     29 C           7.1090   -0.0976   35.2840 C.ar    1  UNL1        0.0581
     30 C           5.6503   -0.1980   35.6184 C.ar    1  UNL1        0.1484
     31 C           5.0701    0.6549   36.7075 C.ar    1  UNL1        0.0554
     32 C           3.6113    0.5545   37.0420 C.ar    1  UNL1        0.0446
     33 C           3.0311    1.4073   38.1311 C.ar    1  UNL1        0.1726
     34 C           3.9130    4.5655   40.2597 C.3     1  UNL1        0.2526
     35 O           3.3295    3.2133   39.9748 O.3     1  UNL1       -0.4683
     36 O           1.5723    1.3069   38.4655 O.3     1  UNL1       -0.4684
     37 C           1.1120    0.3656   39.5388 C.3     1  UNL1        0.2526
@<TRIPOS>BOND
     1    34    35    1
     2    35    24    1
     3    24    25   ar
     4    25    26   ar
     5    26    27   ar
     6    27    28   ar
     7    28    29   ar
     8    29    30   ar
     9    30    23    1
    10    23     1    1
    11     1     2   ar
    12     2     3   ar
    13     3     4   ar
    14     4     5   ar
    15     5    12    1
    16    12    13    2
    17    12    14   am
    18    14    16    1
    19    16    17   ar
    20    17    18   ar
    21    18    19   ar
    22    19    20    1
    23    19    21   ar
    24    21    22   ar
    25     5     6   ar
    26     6     7   ar
    27     7     8   ar
    28     8     9   ar
    29     9    10   ar
    30    10    11    1
    31    30    31   ar
    32    31    32   ar
    33    32    33   ar
    34    33    36    1
    35    36    37    1
    36    33    24   ar
    37    31    26   ar
    38    10     1   ar
    39     9     4   ar
    40    22    16   ar
    41    14    15    1
@<TRIPOS>MOLECULE
*****
 37 41 0 0 0
SMALL
GASTEIGER

@<TRIPOS>ATOM
      1 C           6.4505   -1.5856   27.5939 C.ar    1  UNL1        0.1725
      2 C           5.7554   -0.7573   28.6336 C.ar    1  UNL1        0.0398
      3 C           5.6033   -1.2808   30.0310 C.ar    1  UNL1        0.0034
      4 C           6.1462   -2.6326   30.3888 C.ar    1  UNL1        0.0067
      5 C           5.9940   -3.1561   31.7863 C.ar    1  UNL1        0.0537
      6 C           6.5369   -4.5079   32.1440 C.ar    1  UNL1        0.0045
      7 C           7.2319   -5.3361   31.1043 C.ar    1  UNL1        0.0002
      8 C           7.3841   -4.8126   29.7069 C.ar    1  UNL1        0.0023
      9 C           6.8412   -3.4609   29.3492 C.ar    1  UNL1        0.0307
     10 C           6.9934   -2.9374   27.9517 C.ar    1  UNL1        0.1743
     11 F           7.6884   -3.7656   26.9121 F       1  UNL1       -0.2010
     12 C           5.2989   -2.3278   32.8259 C.2     1  UNL1        0.2495
     13 O           3.9130   -2.6906   33.2704 O.2     1  UNL1       -0.2698
     14 N           5.9898   -1.1369   33.4210 N.am    1  UNL1       -0.2804
     15 H           6.8995   -0.8988   33.1292 H       1  UNL1        0.1552
     16 C           5.2948   -0.3085   34.4607 C.ar    1  UNL1        0.0506
     17 C           4.3167    0.7502   34.0454 C.ar    1  UNL1        0.0155
     18 C           3.6217    1.5785   35.0849 C.ar    1  UNL1        0.0127
     19 C           3.9048    1.3481   36.5398 C.ar    1  UNL1        0.0578
     20 CL          3.2097    2.1765   37.5795 Cl      1  UNL1       -0.0822
     21 C           4.8829    0.2894   36.9551 C.ar    1  UNL1        0.0127
     22 C           5.5779   -0.5389   35.9155 C.ar    1  UNL1        0.0155
     23 O           6.6026   -1.0621   26.1965 O.3     1  UNL1       -0.4511
     24 C           5.0207   -3.7401   21.7721 C.ar    1  UNL1        0.1739
     25 C           3.9532   -2.7228   22.0465 C.ar    1  UNL1        0.0592
     26 C           4.0817   -1.7989   23.2213 C.ar    1  UNL1        0.0875
     27 N           3.0142   -0.7815   23.4957 N.ar    1  UNL1       -0.2435
     28 C           3.1428    0.1423   24.6704 C.ar    1  UNL1        0.1020
     29 C           4.3390    0.0487   25.5707 C.ar    1  UNL1        0.0581
     30 C           5.4065   -0.9686   25.2963 C.ar    1  UNL1        0.1484
     31 C           5.2779   -1.8924   24.1216 C.ar    1  UNL1        0.0554
     32 C           6.3454   -2.9098   23.8471 C.ar    1  UNL1        0.0446
     33 C           6.2168   -3.8336   22.6724 C.ar    1  UNL1        0.1726
     34 C           4.6818   -4.1036   19.2220 C.3     1  UNL1        0.2526
     35 O           4.8921   -4.6640   20.5973 O.3     1  UNL1       -0.4683
     36 O           7.2844   -4.8511   22.3979 O.3     1  UNL1       -0.4684
     37 C           8.3184   -4.5874   21.3437 C.3     1  UNL1        0.2526
@<TRIPOS>BOND
     1    34    35    1
     2    35    24    1
     3    24    25   ar
     4    25    26   ar
     5    26    27   ar
     6    27    28   ar
     7    28    29   ar
     8    29    30   ar
     9    30    23    1
    10    23     1    1
    11     1     2   ar
    12     2     3   ar
    13     3     4   ar
    14     4     5   ar
    15     5    12    1
    16    12    13    2
    17    12    14   am
    18    14    16    1
    19    16    17   ar
    20    17    18   ar
    21    18    19   ar
    22    19    20    1
    23    19    21   ar
    24    21    22   ar
    25     5     6   ar
    26     6     7   ar
    27     7     8   ar
    28     8     9   ar
    29     9    10   ar
    30    10    11    1
    31    30    31   ar
    32    31    32   ar
    33    32    33   ar
    34    33    36    1
    35    36    37    1
    36    33    24   ar
    37    31    26   ar
    38    10     1   ar
    39     9     4   ar
    40    22    16   ar
    41    14    15    1
@<TRIPOS>MOLECULE
*****
 37 41 0 0 0
SMALL
GASTEIGER

@<TRIPOS>ATOM
      1 C           7.5714   -5.4106   24.0602 C.ar    1  UNL1        0.1725
      2 C           7.0958   -4.4920   25.1465 C.ar    1  UNL1        0.0398
      3 C           7.3078   -4.8591   26.5854 C.ar    1  UNL1        0.0034
      4 C           7.9955   -6.1447   26.9380 C.ar    1  UNL1        0.0067
      5 C           8.2075   -6.5117   28.3769 C.ar    1  UNL1        0.0537
      6 C           8.8952   -7.7973   28.7295 C.ar    1  UNL1        0.0045
      7 C           9.3708   -8.7159   27.6431 C.ar    1  UNL1        0.0002
      8 C           9.1588   -8.3489   26.2043 C.ar    1  UNL1        0.0023
      9 C           8.4711   -7.0633   25.8517 C.ar    1  UNL1        0.0307
     10 C           8.2591   -6.6962   24.4128 C.ar    1  UNL1        0.1743
     11 F           8.7347   -7.6148   23.3266 F       1  UNL1       -0.2010
     12 C           7.7319   -5.5931   29.4631 C.2     1  UNL1        0.2495
     13 O           6.6846   -6.0563   30.4319 O.2     1  UNL1       -0.2698
     14 N           8.3036   -4.2114   29.5805 N.am    1  UNL1       -0.2804
     15 H           8.9910   -3.9074   28.9447 H       1  UNL1        0.1552
     16 C           7.8280   -3.2927   30.6668 C.ar    1  UNL1        0.0506
     17 C           8.7264   -2.9717   31.8243 C.ar    1  UNL1        0.0155
     18 C           8.2508   -2.0531   32.9106 C.ar    1  UNL1        0.0127
     19 C           6.8769   -1.4555   32.8393 C.ar    1  UNL1        0.0578
     20 CL          6.4013   -0.5368   33.9256 Cl      1  UNL1       -0.0822
     21 C           5.9785   -1.7764   31.6818 C.ar    1  UNL1        0.0127
     22 C           6.4541   -2.6951   30.5955 C.ar    1  UNL1        0.0155
     23 O           7.3594   -5.0436   22.6214 O.3     1  UNL1       -0.4511
     24 C           5.1391   -1.3897   19.3094 C.ar    1  UNL1        0.1739
     25 C           6.4536   -0.8126   19.7441 C.ar    1  UNL1        0.0592
     26 C           7.3374   -1.5819   20.6808 C.ar    1  UNL1        0.0875
     27 N           8.6519   -1.0048   21.1155 N.ar    1  UNL1       -0.2435
     28 C           9.5356   -1.7740   22.0522 C.ar    1  UNL1        0.1020
     29 C           9.1047   -3.1203   22.5541 C.ar    1  UNL1        0.0581
     30 C           7.7902   -3.6973   22.1194 C.ar    1  UNL1        0.1484
     31 C           6.9065   -2.9281   21.1828 C.ar    1  UNL1        0.0554
     32 C           5.5919   -3.5052   20.7480 C.ar    1  UNL1        0.0446
     33 C           4.7082   -2.7359   19.8114 C.ar    1  UNL1        0.1726
     34 C           4.7180   -0.3266   16.9765 C.3     1  UNL1        0.2526
     35 O           4.2553   -0.6204   18.3727 O.3     1  UNL1       -0.4683
     36 O           3.3936   -3.3130   19.3766 O.3     1  UNL1       -0.4684
     37 C           3.2017   -4.8003   19.3432 C.3     1  UNL1        0.2526
@<TRIPOS>BOND
     1    34    35    1
     2    35    24    1
     3    24    25   ar
     4    25    26   ar
     5    26    27   ar
     6    27    28   ar
     7    28    29   ar
     8    29    30   ar
     9    30    23    1
    10    23     1    1
    11     1     2   ar
    12     2     3   ar
    13     3     4   ar
    14     4     5   ar
    15     5    12    1
    16    12    13    2
    17    12    14   am
    18    14    16    1
    19    16    17   ar
    20    17    18   ar
    21    18    19   ar
    22    19    20    1
    23    19    21   ar
    24    21    22   ar
    25     5     6   ar
    26     6     7   ar
    27     7     8   ar
    28     8     9   ar
    29     9    10   ar
    30    10    11    1
    31    30    31   ar
    32    31    32   ar
    33    32    33   ar
    34    33    36    1
    35    36    37    1
    36    33    24   ar
    37    31    26   ar
    38    10     1   ar
    39     9     4   ar
    40    22    16   ar
    41    14    15    1
@<TRIPOS>MOLECULE
*****
 37 41 0 0 0
SMALL
GASTEIGER

@<TRIPOS>ATOM
      1 C           3.8530   -0.0568   33.6482 C.ar    1  UNL1        0.1725
      2 C           3.9633   -0.7629   32.3293 C.ar    1  UNL1        0.0398
      3 C           3.2451   -0.2241   31.1278 C.ar    1  UNL1        0.0034
      4 C           2.4166    1.0208   31.2450 C.ar    1  UNL1        0.0067
      5 C           1.6984    1.5597   30.0434 C.ar    1  UNL1        0.0537
      6 C           0.8698    2.8045   30.1606 C.ar    1  UNL1        0.0045
      7 C           0.7595    3.5106   31.4795 C.ar    1  UNL1        0.0002
      8 C           1.4777    2.9718   32.6810 C.ar    1  UNL1        0.0023
      9 C           2.3062    1.7269   32.5638 C.ar    1  UNL1        0.0307
     10 C           3.0245    1.1881   33.7655 C.ar    1  UNL1        0.1743
     11 F           2.9141    1.8941   35.0842 F       1  UNL1       -0.2010
     12 C           1.8087    0.8536   28.7246 C.2     1  UNL1        0.2495
     13 O           0.9944   -0.3787   28.4631 O.2     1  UNL1       -0.2698
     14 N           2.7334    1.3798   27.6672 N.am    1  UNL1       -0.2804
     15 H           3.2678    2.1886   27.8388 H       1  UNL1        0.1552
     16 C           2.8438    0.6738   26.3483 C.ar    1  UNL1        0.0506
     17 C           2.0114    1.1241   25.1846 C.ar    1  UNL1        0.0155
     18 C           2.1217    0.4181   23.8658 C.ar    1  UNL1        0.0127
     19 C           3.0645   -0.7382   23.7107 C.ar    1  UNL1        0.0578
     20 CL          3.1749   -1.4443   22.3918 Cl      1  UNL1       -0.0822
     21 C           3.8969   -1.1886   24.8745 C.ar    1  UNL1        0.0127
     22 C           3.7865   -0.4826   26.1933 C.ar    1  UNL1        0.0155
     23 O           4.5712   -0.5956   34.8498 O.3     1  UNL1       -0.4511
     24 C           5.3304    2.2972   39.3559 C.ar    1  UNL1        0.1739
     25 C           6.6355    2.3278   38.6171 C.ar    1  UNL1        0.0592
     26 C           6.7720    1.6122   37.3058 C.ar    1  UNL1        0.0875
     27 N           8.0770    1.6429   36.5670 N.ar    1  UNL1       -0.2435
     28 C           8.2134    0.9273   35.2558 C.ar    1  UNL1        0.1020
     29 C           7.0448    0.1812   34.6834 C.ar    1  UNL1        0.0581
     30 C           5.7398    0.1505   35.4222 C.ar    1  UNL1        0.1484
     31 C           5.6034    0.8661   36.7334 C.ar    1  UNL1        0.0554
     32 C           4.2983    0.8355   37.4723 C.ar    1  UNL1        0.0446
     33 C           4.1618    1.5510   38.7835 C.ar    1  UNL1        0.1726
     34 C           4.7906    4.4572   40.6949 C.3     1  UNL1        0.2526
     35 O           5.1939    3.0128   40.6672 O.3     1  UNL1       -0.4683
     36 O           2.8567    1.5204   39.5224 O.3     1  UNL1       -0.4684
     37 C           1.7801    0.5636   39.1037 C.3     1  UNL1        0.2526
@<TRIPOS>BOND
     1    34    35    1
     2    35    24    1
     3    24    25   ar
     4    25    26   ar
     5    26    27   ar
     6    27    28   ar
     7    28    29   ar
     8    29    30   ar
     9    30    23    1
    10    23     1    1
    11     1     2   ar
    12     2     3   ar
    13     3     4   ar
    14     4     5   ar
    15     5    12    1
    16    12    13    2
    17    12    14   am
    18    14    16    1
    19    16    17   ar
    20    17    18   ar
    21    18    19   ar
    22    19    20    1
    23    19    21   ar
    24    21    22   ar
    25     5     6   ar
    26     6     7   ar
    27     7     8   ar
    28     8     9   ar
    29     9    10   ar
    30    10    11    1
    31    30    31   ar
    32    31    32   ar
    33    32    33   ar
    34    33    36    1
    35    36    37    1
    36    33    24   ar
    37    31    26   ar
    38    10     1   ar
    39     9     4   ar
    40    22    16   ar
    41    14    15    1
@<TRIPOS>MOLECULE
*****
 37 41 0 0 0
SMALL
GASTEIGER

@<TRIPOS>ATOM
      1 C          -1.3650    3.3023   24.5416 C.ar    1  UNL1        0.1725
      2 C          -0.1413    2.5008   24.2094 C.ar    1  UNL1        0.0398
      3 C           0.2486    2.2861   22.7770 C.ar    1  UNL1        0.0034
      4 C          -0.5851    2.8728   21.6767 C.ar    1  UNL1        0.0067
      5 C          -0.1952    2.6581   20.2442 C.ar    1  UNL1        0.0537
      6 C          -1.0289    3.2448   19.1439 C.ar    1  UNL1        0.0045
      7 C          -2.2526    4.0463   19.4761 C.ar    1  UNL1        0.0002
      8 C          -2.6425    4.2611   20.9085 C.ar    1  UNL1        0.0023
      9 C          -1.8088    3.6743   22.0088 C.ar    1  UNL1        0.0307
     10 C          -2.1987    3.8891   23.4413 C.ar    1  UNL1        0.1743
     11 F          -3.4223    4.6906   23.7734 F       1  UNL1       -0.2010
     12 C           1.0284    1.8566   19.9121 C.2     1  UNL1        0.2495
     13 O           2.3859    2.4886   20.0006 O.2     1  UNL1       -0.2698
     14 N           0.8946    0.4230   19.4915 N.am    1  UNL1       -0.2804
     15 H           0.0037    0.0082   19.4335 H       1  UNL1        0.1552
     16 C           2.1183   -0.3786   19.1594 C.ar    1  UNL1        0.0506
     17 C           2.6014   -1.4369   20.1063 C.ar    1  UNL1        0.0155
     18 C           3.8250   -2.2384   19.7742 C.ar    1  UNL1        0.0127
     19 C           4.5654   -1.9817   18.4953 C.ar    1  UNL1        0.0578
     20 CL          5.7891   -2.7832   18.1631 Cl      1  UNL1       -0.0822
     21 C           4.0823   -0.9233   17.5484 C.ar    1  UNL1        0.0127
     22 C           2.8587   -0.1218   17.8805 C.ar    1  UNL1        0.0155
     23 O          -1.7549    3.5171   25.9740 O.3     1  UNL1       -0.4511
     24 C           1.0473    1.7394   30.2444 C.ar    1  UNL1        0.1739
     25 C           1.3998    3.1891   30.0898 C.ar    1  UNL1        0.0592
     26 C           0.7873    3.9960   28.9835 C.ar    1  UNL1        0.0875
     27 N           1.1398    5.4458   28.8289 N.ar    1  UNL1       -0.2435
     28 C           0.5273    6.2526   27.7227 C.ar    1  UNL1        0.1020
     29 C          -0.4376    5.6097   26.7710 C.ar    1  UNL1        0.0581
     30 C          -0.7900    4.1600   26.9256 C.ar    1  UNL1        0.1484
     31 C          -0.1776    3.3531   28.0319 C.ar    1  UNL1        0.0554
     32 C          -0.5300    1.9033   28.1865 C.ar    1  UNL1        0.0446
     33 C           0.0824    1.0965   29.2928 C.ar    1  UNL1        0.1726
     34 C           3.0715    1.2001   31.7814 C.3     1  UNL1        0.2526
     35 O           1.6598    0.9324   31.3508 O.3     1  UNL1       -0.4683
     36 O          -0.2700   -0.3534   29.4474 O.3     1  UNL1       -0.4684
     37 C          -1.4686   -0.9134   28.7404 C.3     1  UNL1        0.2526
@<TRIPOS>BOND
     1    34    35    1
     2    35    24    1
     3    24    25   ar
     4    25    26   ar
     5    26    27   ar
     6    27    28   ar
     7    28    29   ar
     8    29    30   ar
     9    30    23    1
    10    23     1    1
    11     1     2   ar
    12     2     3   ar
    13     3     4   ar
    14     4     5   ar
    15     5    12    1
    16    12    13    2
    17    12    14   am
    18    14    16    1
    19    16    17   ar
    20    17    18   ar
    21    18    19   ar
    22    19    20    1
    23    19    21   ar
    24    21    22   ar
    25     5     6   ar
    26     6     7   ar
    27     7     8   ar
    28     8     9   ar
    29     9    10   ar
    30    10    11    1
    31    30    31   ar
    32    31    32   ar
    33    32    33   ar
    34    33    36    1
    35    36    37    1
    36    33    24   ar
    37    31    26   ar
    38    10     1   ar
    39     9     4   ar
    40    22    16   ar
    41    14    15    1
@<TRIPOS>MOLECULE
*****
 37 41 0 0 0
SMALL
GASTEIGER

@<TRIPOS>ATOM
      1 C           7.6492   -3.1857   29.2779 C.ar    1  UNL1        0.1725
      2 C           6.7562   -2.3383   28.4208 C.ar    1  UNL1        0.0398
      3 C           5.5946   -1.6143   29.0343 C.ar    1  UNL1        0.0034
      4 C           5.3259   -1.7377   30.5049 C.ar    1  UNL1        0.0067
      5 C           4.1641   -1.0136   31.1184 C.ar    1  UNL1        0.0537
      6 C           3.8954   -1.1370   32.5890 C.ar    1  UNL1        0.0045
      7 C           4.7884   -1.9844   33.4460 C.ar    1  UNL1        0.0002
      8 C           5.9501   -2.7084   32.8325 C.ar    1  UNL1        0.0023
      9 C           6.2188   -2.5850   31.3620 C.ar    1  UNL1        0.0307
     10 C           7.3805   -3.3091   30.7485 C.ar    1  UNL1        0.1743
     11 F           8.2734   -4.1564   31.6056 F       1  UNL1       -0.2010
     12 C           3.2712   -0.1663   30.2613 C.2     1  UNL1        0.2495
     13 O           3.4783    1.3181   30.2005 O.2     1  UNL1       -0.2698
     14 N           2.1712   -0.8033   29.4650 N.am    1  UNL1       -0.2804
     15 H           2.0353   -1.7776   29.5050 H       1  UNL1        0.1552
     16 C           1.2782    0.0441   28.6079 C.ar    1  UNL1        0.0506
     17 C          -0.1639    0.2265   28.9782 C.ar    1  UNL1        0.0155
     18 C          -1.0569    1.0738   28.1211 C.ar    1  UNL1        0.0127
     19 C          -0.5078    1.7387   26.8938 C.ar    1  UNL1        0.0578
     20 CL         -1.4008    2.5860   26.0366 Cl      1  UNL1       -0.0822
     21 C           0.9343    1.5562   26.5235 C.ar    1  UNL1        0.0127
     22 C           1.8273    0.7089   27.3806 C.ar    1  UNL1        0.0155
     23 O           8.8108   -3.9096   28.6644 O.3     1  UNL1       -0.4511
     24 C           7.9592   -5.2658   23.4986 C.ar    1  UNL1        0.1739
     25 C           7.9514   -6.5505   24.2727 C.ar    1  UNL1        0.0592
     26 C           8.1623   -6.5327   25.7578 C.ar    1  UNL1        0.0875
     27 N           8.1544   -7.8175   26.5319 N.ar    1  UNL1       -0.2435
     28 C           8.3654   -7.7996   28.0168 C.ar    1  UNL1        0.1020
     29 C           8.5842   -6.4970   28.7277 C.ar    1  UNL1        0.0581
     30 C           8.5920   -5.2123   27.9536 C.ar    1  UNL1        0.1484
     31 C           8.3811   -5.2301   26.4686 C.ar    1  UNL1        0.0554
     32 C           8.3889   -3.9453   25.6944 C.ar    1  UNL1        0.0446
     33 C           8.1780   -3.9632   24.2095 C.ar    1  UNL1        0.1726
     34 C           8.9288   -5.3106   21.0887 C.3     1  UNL1        0.2526
     35 O           7.7483   -5.2836   22.0136 O.3     1  UNL1       -0.4683
     36 O           8.1859   -2.6783   23.4353 O.3     1  UNL1       -0.4684
     37 C           6.8932   -2.0712   22.9767 C.3     1  UNL1        0.2526
@<TRIPOS>BOND
     1    34    35    1
     2    35    24    1
     3    24    25   ar
     4    25    26   ar
     5    26    27   ar
     6    27    28   ar
     7    28    29   ar
     8    29    30   ar
     9    30    23    1
    10    23     1    1
    11     1     2   ar
    12     2     3   ar
    13     3     4   ar
    14     4     5   ar
    15     5    12    1
    16    12    13    2
    17    12    14   am
    18    14    16    1
    19    16    17   ar
    20    17    18   ar
    21    18    19   ar
    22    19    20    1
    23    19    21   ar
    24    21    22   ar
    25     5     6   ar
    26     6     7   ar
    27     7     8   ar
    28     8     9   ar
    29     9    10   ar
    30    10    11    1
    31    30    31   ar
    32    31    32   ar
    33    32    33   ar
    34    33    36    1
    35    36    37    1
    36    33    24   ar
    37    31    26   ar
    38    10     1   ar
    39     9     4   ar
    40    22    16   ar
    41    14    15    1
