@<TRIPOS>MOLECULE
*****
 36 40 0 0 0
SMALL
GASTEIGER

@<TRIPOS>ATOM
      1 C           7.0623   -3.7326   22.2407 C.ar    1  UNL1        0.1456
      2 N           7.4579   -5.1503   22.5300 N.ar    1  UNL1       -0.2280
      3 C           7.6406   -5.6034   23.9483 C.ar    1  UNL1        0.0877
      4 C           8.0362   -7.0210   24.2376 C.ar    1  UNL1        0.0224
      5 C           8.2189   -7.4741   25.6558 C.ar    1  UNL1        0.0390
      6 C           8.0059   -6.5096   26.7847 C.ar    1  UNL1        0.1455
      7 C           7.6103   -5.0919   26.4953 C.ar    1  UNL1        0.0437
      8 C           7.4277   -4.6389   25.0771 C.ar    1  UNL1        0.0769
      9 C           7.0320   -3.2212   24.7877 C.ar    1  UNL1        0.2634
     10 O           6.8191   -2.2566   25.9166 O.2     1  UNL1       -0.2669
     11 N           6.8494   -2.7681   23.3695 N.ar    1  UNL1       -0.2806
     12 C           4.4860   -4.2896   20.8081 C.3     1  UNL1        0.0311
     13 C           5.5915   -3.5580   20.1061 C.ar    1  UNL1       -0.0189
     14 C           5.4088   -3.1049   18.6880 C.ar    1  UNL1       -0.0042
     15 C           6.5142   -2.3733   17.9861 C.ar    1  UNL1       -0.0003
     16 C           7.8024   -2.0948   18.7024 C.ar    1  UNL1        0.0001
     17 C           7.9851   -2.5479   20.1205 C.ar    1  UNL1        0.0027
     18 C           6.8796   -3.2795   20.8224 C.ar    1  UNL1        0.0303
     19 O           8.1886   -6.9627   28.2029 O.3     1  UNL1       -0.4535
     20 C           8.1895   -5.9583   29.3170 C.ar    1  UNL1        0.1454
     21 C           6.9128   -5.6322   30.0337 C.ar    1  UNL1        0.0398
     22 C           6.9137   -4.6277   31.1478 C.ar    1  UNL1        0.0328
     23 C           8.1912   -3.9495   31.5451 C.ar    1  UNL1        0.1403
     24 F           8.1920   -2.9451   32.6592 F       1  UNL1       -0.2042
     25 C           9.4679   -4.2756   30.8284 C.ar    1  UNL1        0.0328
     26 C           9.4670   -5.2800   29.7143 C.ar    1  UNL1        0.0398
     27 C           6.4537   -1.3504   23.0801 C.3     1  UNL1        0.1118
     28 C           5.0049   -0.9618   23.0771 C.3     1  UNL1        0.0388
     29 C           4.3021   -0.6770   24.3713 C.3     1  UNL1        0.0048
     30 C           2.8533   -0.2884   24.3683 C.3     1  UNL1        0.0174
     31 C           2.1074   -0.1846   23.0710 C.3     1  UNL1        0.0720
     32 N           2.8102   -0.4693   21.7769 N.3     1  UNL1       -0.2739
     33 C           4.2590   -0.8579   21.7799 C.3     1  UNL1        0.0739
     34 C           2.0643   -0.3655   20.4797 C.3     1  UNL1        0.0576
     35 C           2.7879   -0.5622   19.1806 C.3     1  UNL1        0.0173
     36 C           0.5946   -0.0650   20.4816 C.3     1  UNL1        0.0173
@<TRIPOS>BOND
     1    12    13    1
     2    13    14   ar
     3    14    15   ar
     4    15    16   ar
     5    16    17   ar
     6    17    18   ar
     7    18     1    1
     8     1     2   ar
     9     2     3   ar
    10     3     4   ar
    11     4     5   ar
    12     5     6   ar
    13     6    19    1
    14    19    20    1
    15    20    21   ar
    16    21    22   ar
    17    22    23   ar
    18    23    24    1
    19    23    25   ar
    20    25    26   ar
    21     6     7   ar
    22     7     8   ar
    23     8     9   ar
    24     9    10    2
    25     9    11   ar
    26    11    27    1
    27    28    27    1
    28    28    29    1
    29    29    30    1
    30    30    31    1
    31    31    32    1
    32    32    34    1
    33    34    35    1
    34    34    36    1
    35    32    33    1
    36    18    13   ar
    37    11     1   ar
    38    33    28    1
    39     8     3   ar
    40    26    20   ar
@<TRIPOS>MOLECULE
*****
 36 40 0 0 0
SMALL
GASTEIGER

@<TRIPOS>ATOM
      1 C           3.4899    0.8380   19.1651 C.ar    1  UNL1        0.1456
      2 N           3.4345    2.2712   18.7261 N.ar    1  UNL1       -0.2280
      3 C           2.1649    3.0548   18.8817 C.ar    1  UNL1        0.0877
      4 C           2.1095    4.4880   18.4426 C.ar    1  UNL1        0.0224
      5 C           0.8400    5.2715   18.5983 C.ar    1  UNL1        0.0390
      6 C          -0.3742    4.6219   19.1930 C.ar    1  UNL1        0.1455
      7 C          -0.3188    3.1887   19.6321 C.ar    1  UNL1        0.0437
      8 C           0.9507    2.4051   19.4765 C.ar    1  UNL1        0.0769
      9 C           1.0061    0.9719   19.9156 C.ar    1  UNL1        0.2634
     10 O          -0.2080    0.3222   20.5103 O.2     1  UNL1       -0.2669
     11 N           2.2757    0.1883   19.7599 N.ar    1  UNL1       -0.2806
     12 C           3.8734   -0.9377   16.7777 C.3     1  UNL1        0.0311
     13 C           4.9512   -0.8335   17.8158 C.ar    1  UNL1       -0.0189
     14 C           6.2207   -1.6171   17.6601 C.ar    1  UNL1       -0.0042
     15 C           7.2985   -1.5128   18.6981 C.ar    1  UNL1       -0.0003
     16 C           7.1067   -0.6250   19.8918 C.ar    1  UNL1        0.0001
     17 C           5.8372    0.1586   20.0475 C.ar    1  UNL1        0.0027
     18 C           4.7594    0.0544   19.0095 C.ar    1  UNL1        0.0303
     19 O          -1.6438    5.4055   19.3487 O.3     1  UNL1       -0.4535
     20 C          -2.9701    4.7271   19.1736 C.ar    1  UNL1        0.1454
     21 C          -3.4774    4.4159   17.7968 C.ar    1  UNL1        0.0398
     22 C          -4.8038    3.7375   17.6217 C.ar    1  UNL1        0.0328
     23 C          -5.6228    3.3703   18.8236 C.ar    1  UNL1        0.1403
     24 F          -6.9491    2.6920   18.6485 F       1  UNL1       -0.2042
     25 C          -5.1155    3.6815   20.2004 C.ar    1  UNL1        0.0328
     26 C          -3.7892    4.3599   20.3755 C.ar    1  UNL1        0.0398
     27 C           2.3311   -1.2450   20.1990 C.3     1  UNL1        0.1118
     28 C           3.1169   -1.6258   21.4186 C.3     1  UNL1        0.0388
     29 C           4.0948   -2.7617   21.3562 C.3     1  UNL1        0.0048
     30 C           4.8806   -3.1426   22.5758 C.3     1  UNL1        0.0174
     31 C           4.6886   -2.3876   23.8577 C.3     1  UNL1        0.0720
     32 N           3.7109   -1.2519   23.9200 N.3     1  UNL1       -0.2739
     33 C           2.9250   -0.8710   22.7005 C.3     1  UNL1        0.0739
     34 C           3.5189   -0.4970   25.2019 C.3     1  UNL1        0.0576
     35 C           3.9037   -1.1266   26.5079 C.3     1  UNL1        0.0173
     36 C           2.9422    0.8876   25.1779 C.3     1  UNL1        0.0173
@<TRIPOS>BOND
     1    12    13    1
     2    13    14   ar
     3    14    15   ar
     4    15    16   ar
     5    16    17   ar
     6    17    18   ar
     7    18     1    1
     8     1     2   ar
     9     2     3   ar
    10     3     4   ar
    11     4     5   ar
    12     5     6   ar
    13     6    19    1
    14    19    20    1
    15    20    21   ar
    16    21    22   ar
    17    22    23   ar
    18    23    24    1
    19    23    25   ar
    20    25    26   ar
    21     6     7   ar
    22     7     8   ar
    23     8     9   ar
    24     9    10    2
    25     9    11   ar
    26    11    27    1
    27    28    27    1
    28    28    29    1
    29    29    30    1
    30    30    31    1
    31    31    32    1
    32    32    34    1
    33    34    35    1
    34    34    36    1
    35    32    33    1
    36    18    13   ar
    37    11     1   ar
    38    33    28    1
    39     8     3   ar
    40    26    20   ar
@<TRIPOS>MOLECULE
*****
 36 40 0 0 0
SMALL
GASTEIGER

@<TRIPOS>ATOM
      1 C           1.5405    1.8889   29.8906 C.ar    1  UNL1        0.1456
      2 N           1.3436    3.1617   30.6594 N.ar    1  UNL1       -0.2280
      3 C           1.8035    3.2561   32.0841 C.ar    1  UNL1        0.0877
      4 C           1.6066    4.5290   32.8530 C.ar    1  UNL1        0.0224
      5 C           2.0665    4.6234   34.2776 C.ar    1  UNL1        0.0390
      6 C           2.7232    3.4450   34.9333 C.ar    1  UNL1        0.1455
      7 C           2.9201    2.1721   34.1645 C.ar    1  UNL1        0.0437
      8 C           2.4602    2.0777   32.7399 C.ar    1  UNL1        0.0769
      9 C           2.6571    0.8049   31.9710 C.ar    1  UNL1        0.2634
     10 O           3.3138   -0.3735   32.6268 O.2     1  UNL1       -0.2669
     11 N           2.1972    0.7105   30.5464 N.ar    1  UNL1       -0.2806
     12 C          -1.0751    0.5699   29.2431 C.3     1  UNL1        0.0311
     13 C          -0.2272    1.1349   28.1421 C.ar    1  UNL1       -0.0189
     14 C          -0.6871    1.0405   26.7176 C.ar    1  UNL1       -0.0042
     15 C           0.1608    1.6055   25.6167 C.ar    1  UNL1       -0.0003
     16 C           1.4686    2.2649   25.9405 C.ar    1  UNL1        0.0001
     17 C           1.9285    2.3594   27.3651 C.ar    1  UNL1        0.0027
     18 C           1.0806    1.7944   28.4659 C.ar    1  UNL1        0.0303
     19 O           3.1831    3.5394   36.3580 O.3     1  UNL1       -0.4535
     20 C           2.5100    2.7206   37.4193 C.ar    1  UNL1        0.1454
     21 C           3.0625    1.3772   37.7933 C.ar    1  UNL1        0.0398
     22 C           2.3893    0.5583   38.8546 C.ar    1  UNL1        0.0328
     23 C           1.1636    1.0829   39.5419 C.ar    1  UNL1        0.1403
     24 F           0.4904    0.2640   40.6031 F       1  UNL1       -0.2042
     25 C           0.6110    2.4263   39.1678 C.ar    1  UNL1        0.0328
     26 C           1.2842    3.2451   38.1066 C.ar    1  UNL1        0.0398
     27 C           2.3941   -0.5624   29.7775 C.3     1  UNL1        0.1118
     28 C           3.5434   -0.6915   28.8223 C.3     1  UNL1        0.0388
     29 C           4.9508   -0.5322   29.3164 C.3     1  UNL1        0.0048
     30 C           6.1001   -0.6613   28.3613 C.3     1  UNL1        0.0174
     31 C           5.8421   -0.9497   26.9120 C.3     1  UNL1        0.0720
     32 N           4.4348   -1.1089   26.4179 N.3     1  UNL1       -0.2739
     33 C           3.2855   -0.9799   27.3731 C.3     1  UNL1        0.0739
     34 C           4.1769   -1.3973   24.9687 C.3     1  UNL1        0.0576
     35 C           4.9673   -2.4590   24.2630 C.3     1  UNL1        0.0173
     36 C           3.1285   -0.6239   24.2251 C.3     1  UNL1        0.0173
@<TRIPOS>BOND
     1    12    13    1
     2    13    14   ar
     3    14    15   ar
     4    15    16   ar
     5    16    17   ar
     6    17    18   ar
     7    18     1    1
     8     1     2   ar
     9     2     3   ar
    10     3     4   ar
    11     4     5   ar
    12     5     6   ar
    13     6    19    1
    14    19    20    1
    15    20    21   ar
    16    21    22   ar
    17    22    23   ar
    18    23    24    1
    19    23    25   ar
    20    25    26   ar
    21     6     7   ar
    22     7     8   ar
    23     8     9   ar
    24     9    10    2
    25     9    11   ar
    26    11    27    1
    27    28    27    1
    28    28    29    1
    29    29    30    1
    30    30    31    1
    31    31    32    1
    32    32    34    1
    33    34    35    1
    34    34    36    1
    35    32    33    1
    36    18    13   ar
    37    11     1   ar
    38    33    28    1
    39     8     3   ar
    40    26    20   ar
@<TRIPOS>MOLECULE
*****
 36 40 0 0 0
SMALL
GASTEIGER

@<TRIPOS>ATOM
      1 C         -15.4240   -3.0467   18.4470 C.ar    1  UNL1        0.1456
      2 N         -16.4622   -2.4121   19.3241 N.ar    1  UNL1       -0.2280
      3 C         -16.4283   -0.9340   19.5774 C.ar    1  UNL1        0.0877
      4 C         -17.4665   -0.2993   20.4545 C.ar    1  UNL1        0.0224
      5 C         -17.4326    1.1787   20.7078 C.ar    1  UNL1        0.0390
      6 C         -16.3604    2.0221   20.0840 C.ar    1  UNL1        0.1455
      7 C         -15.3222    1.3875   19.2069 C.ar    1  UNL1        0.0437
      8 C         -15.3562   -0.0905   18.9536 C.ar    1  UNL1        0.0769
      9 C         -14.3179   -0.7252   18.0765 C.ar    1  UNL1        0.2634
     10 O         -13.2458    0.1182   17.4527 O.2     1  UNL1       -0.2669
     11 N         -14.3519   -2.2033   17.8232 N.ar    1  UNL1       -0.2806
     12 C         -14.1185   -4.9306   20.3826 C.3     1  UNL1        0.0311
     13 C         -14.8051   -5.4667   19.1615 C.ar    1  UNL1       -0.0189
     14 C         -14.8390   -6.9448   18.9082 C.ar    1  UNL1       -0.0042
     15 C         -15.5257   -7.4809   17.6871 C.ar    1  UNL1       -0.0003
     16 C         -16.1785   -6.5389   16.7193 C.ar    1  UNL1        0.0001
     17 C         -16.1446   -5.0609   16.9726 C.ar    1  UNL1        0.0027
     18 C         -15.4579   -4.5248   18.1937 C.ar    1  UNL1        0.0303
     19 O         -16.3265    3.5002   20.3374 O.3     1  UNL1       -0.4535
     20 C         -15.8998    4.0219   21.6774 C.ar    1  UNL1        0.1454
     21 C         -16.7669    3.7970   22.8806 C.ar    1  UNL1        0.0398
     22 C         -16.3401    4.3187   24.2207 C.ar    1  UNL1        0.0328
     23 C         -15.0464    5.0653   24.3575 C.ar    1  UNL1        0.1403
     24 F         -14.6197    5.5869   25.6976 F       1  UNL1       -0.2042
     25 C         -14.1793    5.2902   23.1544 C.ar    1  UNL1        0.0328
     26 C         -14.6060    4.7685   21.8143 C.ar    1  UNL1        0.0398
     27 C         -13.3136   -2.8380   16.9461 C.3     1  UNL1        0.1118
     28 C         -12.1500   -3.5573   17.5614 C.3     1  UNL1        0.0388
     29 C         -11.1821   -2.8113   18.4314 C.3     1  UNL1        0.0048
     30 C         -10.0185   -3.5307   19.0466 C.3     1  UNL1        0.0174
     31 C          -9.8227   -4.9959   18.7919 C.3     1  UNL1        0.0720
     32 N         -10.7906   -5.7418   17.9219 N.3     1  UNL1       -0.2739
     33 C         -11.9542   -5.0224   17.3067 C.3     1  UNL1        0.0739
     34 C         -10.5949   -7.2069   17.6673 C.3     1  UNL1        0.0576
     35 C          -9.5714   -7.9742   18.4507 C.3     1  UNL1        0.0173
     36 C         -11.4226   -7.9049   16.6291 C.3     1  UNL1        0.0173
@<TRIPOS>BOND
     1    12    13    1
     2    13    14   ar
     3    14    15   ar
     4    15    16   ar
     5    16    17   ar
     6    17    18   ar
     7    18     1    1
     8     1     2   ar
     9     2     3   ar
    10     3     4   ar
    11     4     5   ar
    12     5     6   ar
    13     6    19    1
    14    19    20    1
    15    20    21   ar
    16    21    22   ar
    17    22    23   ar
    18    23    24    1
    19    23    25   ar
    20    25    26   ar
    21     6     7   ar
    22     7     8   ar
    23     8     9   ar
    24     9    10    2
    25     9    11   ar
    26    11    27    1
    27    28    27    1
    28    28    29    1
    29    29    30    1
    30    30    31    1
    31    31    32    1
    32    32    34    1
    33    34    35    1
    34    34    36    1
    35    32    33    1
    36    18    13   ar
    37    11     1   ar
    38    33    28    1
    39     8     3   ar
    40    26    20   ar
@<TRIPOS>MOLECULE
*****
 36 40 0 0 0
SMALL
GASTEIGER

@<TRIPOS>ATOM
      1 C           6.0750   -3.8459   22.2851 C.ar    1  UNL1        0.1456
      2 N           7.1290   -4.8783   22.5556 N.ar    1  UNL1       -0.2280
      3 C           7.7010   -5.0226   23.9348 C.ar    1  UNL1        0.0877
      4 C           8.7551   -6.0549   24.2053 C.ar    1  UNL1        0.0224
      5 C           9.3270   -6.1992   25.5844 C.ar    1  UNL1        0.0390
      6 C           8.8449   -5.3112   26.6930 C.ar    1  UNL1        0.1455
      7 C           7.7908   -4.2789   26.4225 C.ar    1  UNL1        0.0437
      8 C           7.2189   -4.1346   25.0434 C.ar    1  UNL1        0.0769
      9 C           6.1648   -3.1022   24.7728 C.ar    1  UNL1        0.2634
     10 O           5.6826   -2.2142   25.8814 O.2     1  UNL1       -0.2669
     11 N           5.5928   -2.9579   23.3937 N.ar    1  UNL1       -0.2806
     12 C           7.6031   -2.3576   20.1757 C.3     1  UNL1        0.0311
     13 C           6.2670   -2.9574   19.8512 C.ar    1  UNL1       -0.0189
     14 C           5.6951   -2.8130   18.4721 C.ar    1  UNL1       -0.0042
     15 C           4.3591   -3.4129   18.1476 C.ar    1  UNL1       -0.0003
     16 C           3.5951   -4.1571   19.2023 C.ar    1  UNL1        0.0001
     17 C           4.1670   -4.3014   20.5815 C.ar    1  UNL1        0.0027
     18 C           5.5030   -3.7016   20.9059 C.ar    1  UNL1        0.0303
     19 O           9.4169   -5.4555   28.0722 O.3     1  UNL1       -0.4535
     20 C           8.5993   -5.0656   29.2678 C.ar    1  UNL1        0.1454
     21 C           8.6783   -3.6682   29.8071 C.ar    1  UNL1        0.0398
     22 C           7.8607   -3.2783   31.0027 C.ar    1  UNL1        0.0328
     23 C           6.9641   -4.2858   31.6591 C.ar    1  UNL1        0.1403
     24 F           6.1465   -3.8959   32.8547 F       1  UNL1       -0.2042
     25 C           6.8850   -5.6833   31.1198 C.ar    1  UNL1        0.0328
     26 C           7.7026   -6.0732   29.9242 C.ar    1  UNL1        0.0398
     27 C           4.5387   -1.9256   23.1231 C.3     1  UNL1        0.1118
     28 C           4.8538   -0.7406   22.2591 C.3     1  UNL1        0.0388
     29 C           6.0571    0.1048   22.5552 C.3     1  UNL1        0.0048
     30 C           6.3721    1.2898   21.6912 C.3     1  UNL1        0.0174
     31 C           5.4840    1.6294   20.5311 C.3     1  UNL1        0.0720
     32 N           4.2808    0.7841   20.2350 N.3     1  UNL1       -0.2739
     33 C           3.9657   -0.4009   21.0990 C.3     1  UNL1        0.0739
     34 C           3.3927    1.1238   19.0749 C.3     1  UNL1        0.0576
     35 C           2.9999    2.5494   18.8232 C.3     1  UNL1        0.0173
     36 C           2.8974    0.0378   18.1663 C.3     1  UNL1        0.0173
@<TRIPOS>BOND
     1    12    13    1
     2    13    14   ar
     3    14    15   ar
     4    15    16   ar
     5    16    17   ar
     6    17    18   ar
     7    18     1    1
     8     1     2   ar
     9     2     3   ar
    10     3     4   ar
    11     4     5   ar
    12     5     6   ar
    13     6    19    1
    14    19    20    1
    15    20    21   ar
    16    21    22   ar
    17    22    23   ar
    18    23    24    1
    19    23    25   ar
    20    25    26   ar
    21     6     7   ar
    22     7     8   ar
    23     8     9   ar
    24     9    10    2
    25     9    11   ar
    26    11    27    1
    27    28    27    1
    28    28    29    1
    29    29    30    1
    30    30    31    1
    31    31    32    1
    32    32    34    1
    33    34    35    1
    34    34    36    1
    35    32    33    1
    36    18    13   ar
    37    11     1   ar
    38    33    28    1
    39     8     3   ar
    40    26    20   ar
@<TRIPOS>MOLECULE
*****
 36 40 0 0 0
SMALL
GASTEIGER

@<TRIPOS>ATOM
      1 C           3.4728    0.8963   19.1335 C.ar    1  UNL1        0.1456
      2 N           3.3259    2.2695   18.5481 N.ar    1  UNL1       -0.2280
      3 C           2.0073    2.9804   18.6250 C.ar    1  UNL1        0.0877
      4 C           1.8603    4.3536   18.0397 C.ar    1  UNL1        0.0224
      5 C           0.5418    5.0645   18.1166 C.ar    1  UNL1        0.0390
      6 C          -0.6299    4.4022   18.7789 C.ar    1  UNL1        0.1455
      7 C          -0.4829    3.0290   19.3643 C.ar    1  UNL1        0.0437
      8 C           0.8356    2.3181   19.2874 C.ar    1  UNL1        0.0769
      9 C           0.9826    0.9449   19.8728 C.ar    1  UNL1        0.2634
     10 O          -0.1890    0.2826   20.5351 O.2     1  UNL1       -0.2669
     11 N           2.3012    0.2340   19.7958 N.ar    1  UNL1       -0.2806
     12 C           4.0224   -1.0053   16.8792 C.3     1  UNL1        0.0311
     13 C           5.0662   -0.7655   17.9294 C.ar    1  UNL1       -0.0189
     14 C           6.3847   -1.4764   17.8524 C.ar    1  UNL1       -0.0042
     15 C           7.4285   -1.2366   18.9026 C.ar    1  UNL1       -0.0003
     16 C           7.1538   -0.2858   20.0298 C.ar    1  UNL1        0.0001
     17 C           5.8352    0.4252   20.1068 C.ar    1  UNL1        0.0027
     18 C           4.7915    0.1853   19.0566 C.ar    1  UNL1        0.0303
     19 O          -1.9485    5.1132   18.8558 O.3     1  UNL1       -0.4535
     20 C          -2.9779    4.6781   19.8563 C.ar    1  UNL1        0.1454
     21 C          -2.8814    5.1391   21.2805 C.ar    1  UNL1        0.0398
     22 C          -3.9109    4.7039   22.2810 C.ar    1  UNL1        0.0328
     23 C          -5.0368    3.8079   21.8573 C.ar    1  UNL1        0.1403
     24 F          -6.0662    3.3729   22.8578 F       1  UNL1       -0.2042
     25 C          -5.1332    3.3470   20.4331 C.ar    1  UNL1        0.0328
     26 C          -4.1038    3.7821   19.4327 C.ar    1  UNL1        0.0398
     27 C           2.4482   -1.1393   20.3812 C.3     1  UNL1        0.1118
     28 C           3.1269   -1.3209   21.7065 C.3     1  UNL1        0.0388
     29 C           2.6784   -0.5224   22.8945 C.3     1  UNL1        0.0048
     30 C           3.3571   -0.7040   24.2198 C.3     1  UNL1        0.0174
     31 C           4.4843   -1.6841   24.3571 C.3     1  UNL1        0.0720
     32 N           4.9328   -2.4826   23.1691 N.3     1  UNL1       -0.2739
     33 C           4.2541   -2.3010   21.8438 C.3     1  UNL1        0.0739
     34 C           6.0599   -3.4627   23.3064 C.3     1  UNL1        0.0576
     35 C           6.8604   -3.8588   22.1013 C.3     1  UNL1        0.0173
     36 C           6.3866   -4.0468   24.6489 C.3     1  UNL1        0.0173
@<TRIPOS>BOND
     1    12    13    1
     2    13    14   ar
     3    14    15   ar
     4    15    16   ar
     5    16    17   ar
     6    17    18   ar
     7    18     1    1
     8     1     2   ar
     9     2     3   ar
    10     3     4   ar
    11     4     5   ar
    12     5     6   ar
    13     6    19    1
    14    19    20    1
    15    20    21   ar
    16    21    22   ar
    17    22    23   ar
    18    23    24    1
    19    23    25   ar
    20    25    26   ar
    21     6     7   ar
    22     7     8   ar
    23     8     9   ar
    24     9    10    2
    25     9    11   ar
    26    11    27    1
    27    28    27    1
    28    28    29    1
    29    29    30    1
    30    30    31    1
    31    31    32    1
    32    32    34    1
    33    34    35    1
    34    34    36    1
    35    32    33    1
    36    18    13   ar
    37    11     1   ar
    38    33    28    1
    39     8     3   ar
    40    26    20   ar
@<TRIPOS>MOLECULE
*****
 36 40 0 0 0
SMALL
GASTEIGER

@<TRIPOS>ATOM
      1 C           3.1826    1.6700   19.0687 C.ar    1  UNL1        0.1456
      2 N           2.2916    2.5445   18.2373 N.ar    1  UNL1       -0.2280
      3 C           0.9055    2.8685   18.7104 C.ar    1  UNL1        0.0877
      4 C           0.0145    3.7430   17.8790 C.ar    1  UNL1        0.0224
      5 C          -1.3715    4.0670   18.3522 C.ar    1  UNL1        0.0390
      6 C          -1.8665    3.5166   19.6568 C.ar    1  UNL1        0.1455
      7 C          -0.9755    2.6422   20.4883 C.ar    1  UNL1        0.0437
      8 C           0.4106    2.3182   20.0151 C.ar    1  UNL1        0.0769
      9 C           1.3017    1.4437   20.8466 C.ar    1  UNL1        0.2634
     10 O           0.8067    0.8933   22.1512 O.2     1  UNL1       -0.2669
     11 N           2.6877    1.1197   20.3734 N.ar    1  UNL1       -0.2806
     12 C           3.6046   -0.4875   17.0274 C.3     1  UNL1        0.0311
     13 C           4.7797    0.2672   17.5749 C.ar    1  UNL1       -0.0189
     14 C           6.1657   -0.0569   17.1018 C.ar    1  UNL1       -0.0042
     15 C           7.3407    0.6978   17.6493 C.ar    1  UNL1       -0.0003
     16 C           7.1297    1.7765   18.6699 C.ar    1  UNL1        0.0001
     17 C           5.7437    2.1006   19.1431 C.ar    1  UNL1        0.0027
     18 C           4.5687    1.3460   18.5956 C.ar    1  UNL1        0.0303
     19 O          -3.2526    3.8407   20.1300 O.3     1  UNL1       -0.4535
     20 C          -3.5702    3.8137   21.5957 C.ar    1  UNL1        0.1454
     21 C          -2.7651    4.6416   22.5529 C.ar    1  UNL1        0.0398
     22 C          -3.0827    4.6146   24.0187 C.ar    1  UNL1        0.0328
     23 C          -4.2055    3.7598   24.5272 C.ar    1  UNL1        0.1403
     24 F          -4.5231    3.7328   25.9929 F       1  UNL1       -0.2042
     25 C          -5.0107    2.9319   23.5699 C.ar    1  UNL1        0.0328
     26 C          -4.6930    2.9589   22.1042 C.ar    1  UNL1        0.0398
     27 C           3.5788    0.2452   21.2049 C.3     1  UNL1        0.1118
     28 C           4.0365   -1.0806   20.6730 C.3     1  UNL1        0.0388
     29 C           3.0444   -2.0286   20.0673 C.3     1  UNL1        0.0048
     30 C           3.5021   -3.3544   19.5354 C.3     1  UNL1        0.0174
     31 C           4.9519   -3.7321   19.6094 C.3     1  UNL1        0.0720
     32 N           5.9440   -2.7841   20.2151 N.3     1  UNL1       -0.2739
     33 C           5.4863   -1.4583   20.7470 C.3     1  UNL1        0.0739
     34 C           7.3937   -3.1618   20.2890 C.3     1  UNL1        0.0576
     35 C           8.4318   -2.2786   19.6626 C.3     1  UNL1        0.0173
     36 C           7.8055   -4.4227   20.9895 C.3     1  UNL1        0.0173
@<TRIPOS>BOND
     1    12    13    1
     2    13    14   ar
     3    14    15   ar
     4    15    16   ar
     5    16    17   ar
     6    17    18   ar
     7    18     1    1
     8     1     2   ar
     9     2     3   ar
    10     3     4   ar
    11     4     5   ar
    12     5     6   ar
    13     6    19    1
    14    19    20    1
    15    20    21   ar
    16    21    22   ar
    17    22    23   ar
    18    23    24    1
    19    23    25   ar
    20    25    26   ar
    21     6     7   ar
    22     7     8   ar
    23     8     9   ar
    24     9    10    2
    25     9    11   ar
    26    11    27    1
    27    28    27    1
    28    28    29    1
    29    29    30    1
    30    30    31    1
    31    31    32    1
    32    32    34    1
    33    34    35    1
    34    34    36    1
    35    32    33    1
    36    18    13   ar
    37    11     1   ar
    38    33    28    1
    39     8     3   ar
    40    26    20   ar
@<TRIPOS>MOLECULE
*****
 36 40 0 0 0
SMALL
GASTEIGER

@<TRIPOS>ATOM
      1 C           5.9607   -1.9716   26.2000 C.ar    1  UNL1        0.1456
      2 N           6.1439   -2.9957   25.1194 N.ar    1  UNL1       -0.2280
      3 C           5.4184   -2.8475   23.8149 C.ar    1  UNL1        0.0877
      4 C           5.6016   -3.8715   22.7343 C.ar    1  UNL1        0.0224
      5 C           4.8761   -3.7233   21.4298 C.ar    1  UNL1        0.0390
      6 C           3.9675   -2.5510   21.2059 C.ar    1  UNL1        0.1455
      7 C           3.7843   -1.5269   22.2865 C.ar    1  UNL1        0.0437
      8 C           4.5098   -1.6752   23.5910 C.ar    1  UNL1        0.0769
      9 C           4.3266   -0.6511   24.6716 C.ar    1  UNL1        0.2634
     10 O           3.4180    0.5212   24.4477 O.2     1  UNL1       -0.2669
     11 N           5.0521   -0.7993   25.9761 N.ar    1  UNL1       -0.2806
     12 C           8.5096   -0.4637   26.6786 C.3     1  UNL1        0.0311
     13 C           7.9606   -1.3659   27.7439 C.ar    1  UNL1       -0.0189
     14 C           8.6861   -1.5140   29.0483 C.ar    1  UNL1       -0.0042
     15 C           8.1371   -2.4162   30.1135 C.ar    1  UNL1       -0.0003
     16 C           6.8626   -3.1702   29.8742 C.ar    1  UNL1        0.0001
     17 C           6.1371   -3.0220   28.5698 C.ar    1  UNL1        0.0027
     18 C           6.6862   -2.1198   27.5046 C.ar    1  UNL1        0.0303
     19 O           3.2421   -2.4028   19.9013 O.3     1  UNL1       -0.4535
     20 C           2.5649   -1.1079   19.5626 C.ar    1  UNL1        0.1454
     21 C           1.2255   -0.7844   20.1554 C.ar    1  UNL1        0.0398
     22 C           0.5484    0.5105   19.8166 C.ar    1  UNL1        0.0328
     23 C           1.2107    1.4819   18.8851 C.ar    1  UNL1        0.1403
     24 F           0.5336    2.7767   18.5464 F       1  UNL1       -0.2042
     25 C           2.5501    1.1584   18.2923 C.ar    1  UNL1        0.0328
     26 C           3.2272   -0.1365   18.6310 C.ar    1  UNL1        0.0398
     27 C           4.8689    0.2248   27.0568 C.3     1  UNL1        0.1118
     28 C           3.7691    0.0638   28.0640 C.3     1  UNL1        0.0388
     29 C           4.0961   -0.3205   29.4766 C.3     1  UNL1        0.0048
     30 C           2.9963   -0.4815   30.4838 C.3     1  UNL1        0.0174
     31 C           1.5694   -0.2583   30.0784 C.3     1  UNL1        0.0720
     32 N           1.2425    0.1260   28.6658 N.3     1  UNL1       -0.2739
     33 C           2.3423    0.2870   27.6586 C.3     1  UNL1        0.0739
     34 C          -0.1843    0.3493   28.2604 C.3     1  UNL1        0.0576
     35 C          -1.2684   -0.5233   28.8203 C.3     1  UNL1        0.0173
     36 C          -0.5271    1.4451   27.2951 C.3     1  UNL1        0.0173
@<TRIPOS>BOND
     1    12    13    1
     2    13    14   ar
     3    14    15   ar
     4    15    16   ar
     5    16    17   ar
     6    17    18   ar
     7    18     1    1
     8     1     2   ar
     9     2     3   ar
    10     3     4   ar
    11     4     5   ar
    12     5     6   ar
    13     6    19    1
    14    19    20    1
    15    20    21   ar
    16    21    22   ar
    17    22    23   ar
    18    23    24    1
    19    23    25   ar
    20    25    26   ar
    21     6     7   ar
    22     7     8   ar
    23     8     9   ar
    24     9    10    2
    25     9    11   ar
    26    11    27    1
    27    28    27    1
    28    28    29    1
    29    29    30    1
    30    30    31    1
    31    31    32    1
    32    32    34    1
    33    34    35    1
    34    34    36    1
    35    32    33    1
    36    18    13   ar
    37    11     1   ar
    38    33    28    1
    39     8     3   ar
    40    26    20   ar
@<TRIPOS>MOLECULE
*****
 36 40 0 0 0
SMALL
GASTEIGER

@<TRIPOS>ATOM
      1 C           1.6099    1.1341   23.2445 C.ar    1  UNL1        0.1456
      2 N           0.3945    1.4549   24.0630 N.ar    1  UNL1       -0.2280
      3 C           0.4490    1.3524   25.5585 C.ar    1  UNL1        0.0877
      4 C          -0.7664    1.6731   26.3770 C.ar    1  UNL1        0.0224
      5 C          -0.7119    1.5707   27.8725 C.ar    1  UNL1        0.0390
      6 C           0.5580    1.1475   28.5495 C.ar    1  UNL1        0.1455
      7 C           1.7733    0.8268   27.7310 C.ar    1  UNL1        0.0437
      8 C           1.7188    0.9292   26.2355 C.ar    1  UNL1        0.0769
      9 C           2.9343    0.6085   25.4170 C.ar    1  UNL1        0.2634
     10 O           4.2041    0.1853   26.0940 O.2     1  UNL1       -0.2669
     11 N           2.8798    0.7110   23.9215 N.ar    1  UNL1       -0.2806
     12 C           2.5797    3.6209   21.8751 C.3     1  UNL1        0.0311
     13 C           2.0404    2.4800   21.0642 C.ar    1  UNL1       -0.0189
     14 C           1.9859    2.5824   19.5688 C.ar    1  UNL1       -0.0042
     15 C           1.4466    1.4415   18.7580 C.ar    1  UNL1       -0.0003
     16 C           0.9617    0.1981   19.4427 C.ar    1  UNL1        0.0001
     17 C           1.0161    0.0957   20.9382 C.ar    1  UNL1        0.0027
     18 C           1.5554    1.2366   21.7489 C.ar    1  UNL1        0.0303
     19 O           0.6124    1.0451   30.0450 O.3     1  UNL1       -0.4535
     20 C           0.9291    2.2579   30.8688 C.ar    1  UNL1        0.1454
     21 C           0.9747    3.6115   30.2241 C.ar    1  UNL1        0.0398
     22 C           1.2915    4.8244   31.0480 C.ar    1  UNL1        0.0328
     23 C           1.5626    4.6836   32.5165 C.ar    1  UNL1        0.1403
     24 F           1.8793    5.8965   33.3403 F       1  UNL1       -0.2042
     25 C           1.5170    3.3300   33.1612 C.ar    1  UNL1        0.0328
     26 C           1.2003    2.1172   32.3374 C.ar    1  UNL1        0.0398
     27 C           4.0952    0.3902   23.1029 C.3     1  UNL1        0.1118
     28 C           4.3128   -1.0056   22.5986 C.3     1  UNL1        0.0388
     29 C           4.5992   -2.1163   23.5653 C.3     1  UNL1        0.0048
     30 C           4.8168   -3.5121   23.0609 C.3     1  UNL1        0.0174
     31 C           4.7480   -3.7972   21.5898 C.3     1  UNL1        0.0720
     32 N           4.4616   -2.6866   20.6232 N.3     1  UNL1       -0.2739
     33 C           4.2440   -1.2908   21.1276 C.3     1  UNL1        0.0739
     34 C           4.3928   -2.9717   19.1522 C.3     1  UNL1        0.0576
     35 C           4.0585   -1.8710   18.1897 C.3     1  UNL1        0.0173
     36 C           4.6583   -4.3578   18.6437 C.3     1  UNL1        0.0173
@<TRIPOS>BOND
     1    12    13    1
     2    13    14   ar
     3    14    15   ar
     4    15    16   ar
     5    16    17   ar
     6    17    18   ar
     7    18     1    1
     8     1     2   ar
     9     2     3   ar
    10     3     4   ar
    11     4     5   ar
    12     5     6   ar
    13     6    19    1
    14    19    20    1
    15    20    21   ar
    16    21    22   ar
    17    22    23   ar
    18    23    24    1
    19    23    25   ar
    20    25    26   ar
    21     6     7   ar
    22     7     8   ar
    23     8     9   ar
    24     9    10    2
    25     9    11   ar
    26    11    27    1
    27    28    27    1
    28    28    29    1
    29    29    30    1
    30    30    31    1
    31    31    32    1
    32    32    34    1
    33    34    35    1
    34    34    36    1
    35    32    33    1
    36    18    13   ar
    37    11     1   ar
    38    33    28    1
    39     8     3   ar
    40    26    20   ar
