@<TRIPOS>MOLECULE
*****
 39 41 0 0 0
SMALL
GASTEIGER

@<TRIPOS>ATOM
      1 C          -8.8622  -16.7081   21.9185 C.2     1  UNL1        0.2491
      2 O          -8.1455  -15.4727   21.4602 O.2     1  UNL1       -0.2699
      3 N          -9.4424  -16.7695   23.3004 N.am    1  UNL1       -0.2776
      4 C          -7.9492  -19.9296   19.7882 C.ar    1  UNL1        0.1723
      5 C          -7.8126  -18.7556   20.7117 C.ar    1  UNL1        0.0446
      6 C          -8.9988  -17.8821   20.9949 C.ar    1  UNL1        0.0568
      7 C         -10.3214  -18.1827   20.3544 C.ar    1  UNL1        0.0078
      8 C         -10.4580  -19.3568   19.4309 C.ar    1  UNL1        0.0402
      9 C          -9.2718  -20.2302   19.1478 C.ar    1  UNL1        0.1724
     10 O          -9.4084  -21.4043   18.2242 O.3     1  UNL1       -0.4684
     11 C          -9.1895  -21.2288   16.7506 C.3     1  UNL1        0.2526
     12 O          -6.7630  -20.8030   19.5051 O.3     1  UNL1       -0.4723
     13 C          -5.7608  -21.0804   20.5861 C.3     1  UNL1        0.2082
     14 C          -4.4484  -20.3540   20.5964 C.3     1  UNL1        0.0794
     15 C          -3.9866  -19.6221   19.3712 C.3     1  UNL1        0.1461
     16 C          -3.2070  -17.3756   18.3247 C.3     1  UNL1        0.1741
     17 O          -4.0285  -18.1231   19.3327 O.3     1  UNL1       -0.3510
     18 C         -10.1592  -18.0049   23.7586 C.3     1  UNL1        0.0757
     19 C          -9.3766  -19.1968   24.2244 C.3     1  UNL1        0.0215
     20 C         -11.6585  -18.0485   23.7511 C.3     1  UNL1        0.0215
     21 C          -9.3059  -15.5955   24.2239 C.3     1  UNL1        0.0964
     22 C          -8.2684  -15.6100   25.3071 C.3     1  UNL1        0.0530
     23 C          -8.5251  -15.4482   26.7761 C.3     1  UNL1        0.0717
     24 N          -7.2073  -15.5271   27.4885 N.3     1  UNL1       -0.2962
     25 C          -6.1362  -15.7377   26.4597 C.3     1  UNL1        0.0862
     26 C          -6.7920  -15.7889   25.1116 C.3     1  UNL1        0.0938
     27 H          -7.2150  -16.3077   28.1450 H       1  UNL1        0.1233
     28 N          -6.0939  -15.9847   23.7985 N.3     1  UNL1       -0.1829
     29 H          -5.7667  -15.0662   23.4991 H       1  UNL1        0.1484
     30 S          -4.9204  -16.9142   23.7041 S.O2    1  UNL1        0.0450
     31 O          -4.2223  -16.1425   24.7846 O.2     1  UNL1       -0.1572
     32 O          -5.6184  -17.6859   22.6237 O.2     1  UNL1       -0.1572
     33 C          -3.7468  -17.8437   23.6098 C.3     1  UNL1        0.1952
     34 C          -2.6956  -17.6205   22.5632 C.ar    1  UNL1        0.0029
     35 C          -1.9208  -18.7836   22.0184 C.ar    1  UNL1       -0.0025
     36 C          -0.8696  -18.5604   20.9720 C.ar    1  UNL1       -0.0003
     37 C          -0.5932  -17.1742   20.4703 C.ar    1  UNL1       -0.0000
     38 C          -1.3680  -16.0110   21.0150 C.ar    1  UNL1       -0.0003
     39 C          -2.4192  -16.2342   22.0615 C.ar    1  UNL1       -0.0025
@<TRIPOS>BOND
     1    16    17    1
     2    17    15    1
     3    15    14    1
     4    14    13    1
     5    13    12    1
     6    12     4    1
     7     4     5   ar
     8     5     6   ar
     9     6     1    1
    10     1     2    2
    11     1     3   am
    12     3    21    1
    13    22    21    1
    14    22    23    1
    15    23    24    1
    16    24    25    1
    17    25    26    1
    18    26    28    1
    19    28    30    1
    20    30    31    2
    21    30    32    2
    22    30    33    1
    23    33    34    1
    24    34    35   ar
    25    35    36   ar
    26    36    37   ar
    27    37    38   ar
    28    38    39   ar
    29     3    18    1
    30    18    19    1
    31    18    20    1
    32     6     7   ar
    33     7     8   ar
    34     8     9   ar
    35     9    10    1
    36    10    11    1
    37     9     4   ar
    38    26    22    1
    39    39    34   ar
    40    24    27    1
    41    28    29    1
@<TRIPOS>MOLECULE
*****
 39 41 0 0 0
SMALL
GASTEIGER

@<TRIPOS>ATOM
      1 C          -8.5638  -20.4119   23.1525 C.2     1  UNL1        0.2491
      2 O          -8.1778  -21.5467   24.0543 O.2     1  UNL1       -0.2699
      3 N          -7.6337  -19.9714   22.0612 N.am    1  UNL1       -0.2776
      4 C         -11.9836  -18.5705   22.3378 C.ar    1  UNL1        0.1723
      5 C         -10.6676  -19.2648   22.1484 C.ar    1  UNL1        0.0446
      6 C          -9.8799  -19.7176   23.3420 C.ar    1  UNL1        0.0568
      7 C         -10.4082  -19.4761   24.7249 C.ar    1  UNL1        0.0078
      8 C         -11.7242  -18.7818   24.9143 C.ar    1  UNL1        0.0402
      9 C         -12.5120  -18.3290   23.7208 C.ar    1  UNL1        0.1724
     10 O         -13.8281  -17.6346   23.9102 O.3     1  UNL1       -0.4684
     11 C         -14.9401  -18.3227   24.6451 C.3     1  UNL1        0.2526
     12 O         -12.7714  -18.1178   21.1443 O.3     1  UNL1       -0.4723
     13 C         -12.7691  -16.6708   20.7492 C.3     1  UNL1        0.2082
     14 C         -11.7955  -16.1756   19.7211 C.3     1  UNL1        0.0794
     15 C         -10.5447  -15.4686   20.1519 C.3     1  UNL1        0.1461
     16 C          -8.8345  -13.5418   19.8160 C.3     1  UNL1        0.1741
     17 O          -9.9698  -14.3756   19.3005 O.3     1  UNL1       -0.3510
     18 C          -8.0197  -18.8366   21.1594 C.3     1  UNL1        0.0757
     19 C          -8.4492  -19.1122   19.7489 C.3     1  UNL1        0.0215
     20 C          -7.9762  -17.4262   21.6681 C.3     1  UNL1        0.0215
     21 C          -6.3176  -20.6657   21.8717 C.3     1  UNL1        0.0964
     22 C          -5.1851  -19.9541   21.1928 C.3     1  UNL1        0.0530
     23 C          -4.8732  -19.9914   19.7260 C.3     1  UNL1        0.0717
     24 N          -3.6610  -19.1406   19.4880 N.3     1  UNL1       -0.2962
     25 C          -3.2237  -18.5773   20.8077 C.3     1  UNL1        0.0862
     26 C          -4.1657  -19.0801   21.8613 C.3     1  UNL1        0.0938
     27 H          -3.8914  -18.3814   18.8469 H       1  UNL1        0.1233
     28 N          -4.0998  -18.7643   23.3262 N.3     1  UNL1       -0.1829
     29 H          -3.1430  -18.9530   23.6253 H       1  UNL1        0.1484
     30 S          -4.4419  -17.3874   23.8127 S.O2    1  UNL1        0.0450
     31 O          -3.6970  -17.6527   25.0874 O.2     1  UNL1       -0.1572
     32 O          -5.1868  -17.1220   22.5381 O.2     1  UNL1       -0.1572
     33 C          -4.7841  -16.0103   24.2994 C.3     1  UNL1        0.1952
     34 C          -5.9853  -15.8006   25.1731 C.ar    1  UNL1        0.0029
     35 C          -5.8189  -15.6700   26.6581 C.ar    1  UNL1       -0.0025
     36 C          -7.0200  -15.4603   27.5318 C.ar    1  UNL1       -0.0003
     37 C          -8.3874  -15.3812   26.9206 C.ar    1  UNL1       -0.0000
     38 C          -8.5539  -15.5118   25.4355 C.ar    1  UNL1       -0.0003
     39 C          -7.3528  -15.7215   24.5618 C.ar    1  UNL1       -0.0025
@<TRIPOS>BOND
     1    16    17    1
     2    17    15    1
     3    15    14    1
     4    14    13    1
     5    13    12    1
     6    12     4    1
     7     4     5   ar
     8     5     6   ar
     9     6     1    1
    10     1     2    2
    11     1     3   am
    12     3    21    1
    13    22    21    1
    14    22    23    1
    15    23    24    1
    16    24    25    1
    17    25    26    1
    18    26    28    1
    19    28    30    1
    20    30    31    2
    21    30    32    2
    22    30    33    1
    23    33    34    1
    24    34    35   ar
    25    35    36   ar
    26    36    37   ar
    27    37    38   ar
    28    38    39   ar
    29     3    18    1
    30    18    19    1
    31    18    20    1
    32     6     7   ar
    33     7     8   ar
    34     8     9   ar
    35     9    10    1
    36    10    11    1
    37     9     4   ar
    38    26    22    1
    39    39    34   ar
    40    24    27    1
    41    28    29    1
@<TRIPOS>MOLECULE
*****
 39 41 0 0 0
SMALL
GASTEIGER

@<TRIPOS>ATOM
      1 C          -7.2432  -20.3596   22.4269 C.2     1  UNL1        0.2491
      2 O          -6.2810  -21.1139   23.2959 O.2     1  UNL1       -0.2699
      3 N          -6.9100  -20.1019   20.9872 N.am    1  UNL1       -0.2776
      4 C         -10.1736  -17.9071   23.4982 C.ar    1  UNL1        0.1723
      5 C          -8.8783  -18.4037   22.9276 C.ar    1  UNL1        0.0446
      6 C          -8.5385  -19.8630   22.9975 C.ar    1  UNL1        0.0568
      7 C          -9.4940  -20.8258   23.6379 C.ar    1  UNL1        0.0078
      8 C         -10.7893  -20.3291   24.2084 C.ar    1  UNL1        0.0402
      9 C         -11.1290  -18.8698   24.1386 C.ar    1  UNL1        0.1724
     10 O         -12.4244  -18.3732   24.7092 O.3     1  UNL1       -0.4684
     11 C         -13.5669  -18.0393   23.7965 C.3     1  UNL1        0.2526
     12 O         -10.5133  -16.4477   23.4283 O.3     1  UNL1       -0.4723
     13 C         -10.6983  -15.7837   22.0962 C.3     1  UNL1        0.2082
     14 C         -11.9053  -16.0975   21.2628 C.3     1  UNL1        0.0794
     15 C         -11.7412  -16.5044   19.8284 C.3     1  UNL1        0.1461
     16 C         -11.6565  -19.0091   20.5132 C.3     1  UNL1        0.1741
     17 O         -11.4618  -17.9370   19.4825 O.3     1  UNL1       -0.3510
     18 C          -7.8723  -19.3476   20.1182 C.3     1  UNL1        0.0757
     19 C          -8.5903  -20.0532   19.0062 C.3     1  UNL1        0.0215
     20 C          -8.1164  -17.8877   20.3611 C.3     1  UNL1        0.0215
     21 C          -5.6148  -20.5985   20.4166 C.3     1  UNL1        0.0964
     22 C          -4.4237  -19.6886   20.3569 C.3     1  UNL1        0.0530
     23 C          -3.5241  -19.4904   19.1731 C.3     1  UNL1        0.0717
     24 N          -2.4675  -18.4965   19.5550 N.3     1  UNL1       -0.2962
     25 C          -2.7142  -18.0804   20.9749 C.3     1  UNL1        0.0862
     26 C          -3.9232  -18.8172   21.4704 C.3     1  UNL1        0.0938
     27 H          -2.5197  -17.6830   18.9419 H       1  UNL1        0.1233
     28 N          -4.5258  -18.7026   22.8393 N.3     1  UNL1       -0.1829
     29 H          -3.9244  -19.2316   23.4709 H       1  UNL1        0.1484
     30 S          -4.7247  -17.3520   23.4606 S.O2    1  UNL1        0.0450
     31 O          -3.5756  -17.6102   24.3897 O.2     1  UNL1       -0.1572
     32 O          -5.8737  -17.0938   22.5316 O.2     1  UNL1       -0.1572
     33 C          -4.9236  -16.0013   24.0819 C.3     1  UNL1        0.1952
     34 C          -6.0116  -15.7940   25.0936 C.ar    1  UNL1        0.0029
     35 C          -7.4096  -15.4936   24.6405 C.ar    1  UNL1       -0.0025
     36 C          -8.4976  -15.2863   25.6521 C.ar    1  UNL1       -0.0003
     37 C          -8.1876  -15.3794   27.1167 C.ar    1  UNL1       -0.0000
     38 C          -6.7896  -15.6798   27.5698 C.ar    1  UNL1       -0.0003
     39 C          -5.7016  -15.8871   26.5582 C.ar    1  UNL1       -0.0025
@<TRIPOS>BOND
     1    16    17    1
     2    17    15    1
     3    15    14    1
     4    14    13    1
     5    13    12    1
     6    12     4    1
     7     4     5   ar
     8     5     6   ar
     9     6     1    1
    10     1     2    2
    11     1     3   am
    12     3    21    1
    13    22    21    1
    14    22    23    1
    15    23    24    1
    16    24    25    1
    17    25    26    1
    18    26    28    1
    19    28    30    1
    20    30    31    2
    21    30    32    2
    22    30    33    1
    23    33    34    1
    24    34    35   ar
    25    35    36   ar
    26    36    37   ar
    27    37    38   ar
    28    38    39   ar
    29     3    18    1
    30    18    19    1
    31    18    20    1
    32     6     7   ar
    33     7     8   ar
    34     8     9   ar
    35     9    10    1
    36    10    11    1
    37     9     4   ar
    38    26    22    1
    39    39    34   ar
    40    24    27    1
    41    28    29    1
@<TRIPOS>MOLECULE
*****
 39 41 0 0 0
SMALL
GASTEIGER

@<TRIPOS>ATOM
      1 C          -8.1922  -19.7726   22.1744 C.2     1  UNL1        0.2491
      2 O          -8.7902  -19.8171   23.5493 O.2     1  UNL1       -0.2699
      3 N          -9.0830  -19.6673   20.9721 N.am    1  UNL1       -0.2776
      4 C          -4.3368  -18.9034   22.5349 C.ar    1  UNL1        0.1723
      5 C          -5.8255  -18.8427   22.7076 C.ar    1  UNL1        0.0446
      6 C          -6.7034  -19.8333   22.0018 C.ar    1  UNL1        0.0568
      7 C          -6.0925  -20.8845   21.1233 C.ar    1  UNL1        0.0078
      8 C          -4.6037  -20.9452   20.9507 C.ar    1  UNL1        0.0402
      9 C          -3.7259  -19.9546   21.6565 C.ar    1  UNL1        0.1724
     10 O          -2.2370  -20.0153   21.4838 O.3     1  UNL1       -0.4684
     11 C          -1.6367  -19.9236   20.1123 C.3     1  UNL1        0.2526
     12 O          -3.4589  -17.9128   23.2407 O.3     1  UNL1       -0.4723
     13 C          -3.3044  -16.5246   22.6941 C.3     1  UNL1        0.2082
     14 C          -2.0596  -16.1468   21.9472 C.3     1  UNL1        0.0794
     15 C          -1.8224  -16.6815   20.5659 C.3     1  UNL1        0.1461
     16 C          -2.7373  -17.0647   18.1647 C.3     1  UNL1        0.1741
     17 O          -2.9793  -16.8941   19.6351 O.3     1  UNL1       -0.3510
     18 C          -8.4849  -19.6228   19.5972 C.3     1  UNL1        0.0757
     19 C          -9.1128  -20.4031   18.4806 C.3     1  UNL1        0.0215
     20 C          -7.2590  -18.7980   19.3390 C.3     1  UNL1        0.0215
     21 C         -10.5718  -19.6066   21.1448 C.3     1  UNL1        0.0964
     22 C         -11.2158  -18.3570   21.6678 C.3     1  UNL1        0.0530
     23 C         -12.6218  -18.2361   22.1762 C.3     1  UNL1        0.0717
     24 N         -12.8419  -16.8133   22.5969 N.3     1  UNL1       -0.2962
     25 C         -11.5719  -16.0547   22.3485 C.3     1  UNL1        0.0862
     26 C         -10.5670  -17.0088   21.7743 C.3     1  UNL1        0.0938
     27 H         -13.0778  -16.7780   23.5887 H       1  UNL1        0.1233
     28 N          -9.1601  -16.6735   21.3764 N.3     1  UNL1       -0.1829
     29 H          -9.2109  -16.2333   20.4577 H       1  UNL1        0.1484
     30 S          -8.3300  -15.7733   22.2426 S.O2    1  UNL1        0.0450
     31 O          -8.4967  -16.7243   23.3906 O.2     1  UNL1       -0.1572
     32 O          -8.1632  -14.8224   21.0946 O.2     1  UNL1       -0.1572
     33 C          -7.4997  -14.8731   23.1088 C.3     1  UNL1        0.1952
     34 C          -7.3007  -15.2021   24.5588 C.ar    1  UNL1        0.0029
     35 C          -8.4839  -15.2944   25.4762 C.ar    1  UNL1       -0.0025
     36 C          -8.2848  -15.6235   26.9260 C.ar    1  UNL1       -0.0003
     37 C          -6.9028  -15.8603   27.4585 C.ar    1  UNL1       -0.0000
     38 C          -5.7195  -15.7680   26.5411 C.ar    1  UNL1       -0.0003
     39 C          -5.9185  -15.4389   25.0912 C.ar    1  UNL1       -0.0025
@<TRIPOS>BOND
     1    16    17    1
     2    17    15    1
     3    15    14    1
     4    14    13    1
     5    13    12    1
     6    12     4    1
     7     4     5   ar
     8     5     6   ar
     9     6     1    1
    10     1     2    2
    11     1     3   am
    12     3    21    1
    13    22    21    1
    14    22    23    1
    15    23    24    1
    16    24    25    1
    17    25    26    1
    18    26    28    1
    19    28    30    1
    20    30    31    2
    21    30    32    2
    22    30    33    1
    23    33    34    1
    24    34    35   ar
    25    35    36   ar
    26    36    37   ar
    27    37    38   ar
    28    38    39   ar
    29     3    18    1
    30    18    19    1
    31    18    20    1
    32     6     7   ar
    33     7     8   ar
    34     8     9   ar
    35     9    10    1
    36    10    11    1
    37     9     4   ar
    38    26    22    1
    39    39    34   ar
    40    24    27    1
    41    28    29    1
@<TRIPOS>MOLECULE
*****
 39 41 0 0 0
SMALL
GASTEIGER

@<TRIPOS>ATOM
      1 C          -8.5858  -18.9963   21.1495 C.2     1  UNL1        0.2491
      2 O          -9.0672  -18.4719   19.8292 O.2     1  UNL1       -0.2699
      3 N          -9.5753  -19.4286   22.1907 N.am    1  UNL1       -0.2776
      4 C          -4.7630  -20.0107   20.8220 C.ar    1  UNL1        0.1723
      5 C          -6.2339  -19.9186   20.5428 C.ar    1  UNL1        0.0446
      6 C          -7.1148  -19.0884   21.4287 C.ar    1  UNL1        0.0568
      7 C          -6.5249  -18.3504   22.5937 C.ar    1  UNL1        0.0078
      8 C          -5.0540  -18.4425   22.8728 C.ar    1  UNL1        0.0402
      9 C          -4.1731  -19.2727   21.9869 C.ar    1  UNL1        0.1724
     10 O          -2.7021  -19.3648   22.2661 O.3     1  UNL1       -0.4684
     11 C          -1.9360  -18.1381   22.6642 C.3     1  UNL1        0.2526
     12 O          -3.8820  -20.8409   19.9361 O.3     1  UNL1       -0.4723
     13 C          -2.9065  -20.1745   19.0118 C.3     1  UNL1        0.2082
     14 C          -2.9572  -18.6887   18.8123 C.3     1  UNL1        0.0794
     15 C          -1.6844  -17.8992   18.7299 C.3     1  UNL1        0.1461
     16 C           0.4995  -17.5002   20.0793 C.3     1  UNL1        0.1741
     17 O          -0.4303  -18.4305   19.3583 O.3     1  UNL1       -0.3510
     18 C          -9.0938  -19.9530   23.5110 C.3     1  UNL1        0.0757
     19 C          -8.2354  -21.1821   23.5619 C.3     1  UNL1        0.0215
     20 C          -9.4707  -19.2484   24.7804 C.3     1  UNL1        0.0215
     21 C         -11.0462  -19.3365   21.9116 C.3     1  UNL1        0.0964
     22 C         -11.7994  -18.0878   22.2625 C.3     1  UNL1        0.0530
     23 C         -13.1182  -18.0242   22.9743 C.3     1  UNL1        0.0717
     24 N         -13.5000  -16.5805   23.1150 N.3     1  UNL1       -0.2962
     25 C         -12.4172  -15.7517   22.4901 C.3     1  UNL1        0.0862
     26 C         -11.3662  -16.6832   21.9632 C.3     1  UNL1        0.0938
     27 H         -13.5926  -16.3415   24.1023 H       1  UNL1        0.1233
     28 N         -10.1035  -16.2809   21.2604 N.3     1  UNL1       -0.1829
     29 H         -10.3802  -15.7101   20.4617 H       1  UNL1        0.1484
     30 S          -9.0475  -15.5116   21.9972 S.O2    1  UNL1        0.0450
     31 O          -9.2438  -16.3908   23.1966 O.2     1  UNL1       -0.1572
     32 O          -8.8512  -14.6323   20.7979 O.2     1  UNL1       -0.1572
     33 C          -7.9915  -14.7422   22.7341 C.3     1  UNL1        0.1952
     34 C          -7.6629  -15.0921   24.1553 C.ar    1  UNL1        0.0029
     35 C          -8.7607  -15.2171   25.1699 C.ar    1  UNL1       -0.0025
     36 C          -8.4322  -15.5669   26.5910 C.ar    1  UNL1       -0.0003
     37 C          -7.0060  -15.7917   26.9976 C.ar    1  UNL1       -0.0000
     38 C          -5.9082  -15.6667   25.9831 C.ar    1  UNL1       -0.0003
     39 C          -6.2367  -15.3168   24.5619 C.ar    1  UNL1       -0.0025
@<TRIPOS>BOND
     1    16    17    1
     2    17    15    1
     3    15    14    1
     4    14    13    1
     5    13    12    1
     6    12     4    1
     7     4     5   ar
     8     5     6   ar
     9     6     1    1
    10     1     2    2
    11     1     3   am
    12     3    21    1
    13    22    21    1
    14    22    23    1
    15    23    24    1
    16    24    25    1
    17    25    26    1
    18    26    28    1
    19    28    30    1
    20    30    31    2
    21    30    32    2
    22    30    33    1
    23    33    34    1
    24    34    35   ar
    25    35    36   ar
    26    36    37   ar
    27    37    38   ar
    28    38    39   ar
    29     3    18    1
    30    18    19    1
    31    18    20    1
    32     6     7   ar
    33     7     8   ar
    34     8     9   ar
    35     9    10    1
    36    10    11    1
    37     9     4   ar
    38    26    22    1
    39    39    34   ar
    40    24    27    1
    41    28    29    1
@<TRIPOS>MOLECULE
*****
 39 41 0 0 0
SMALL
GASTEIGER

@<TRIPOS>ATOM
      1 C         -14.5111   -5.5236   19.5937 C.2     1  UNL1        0.2491
      2 O         -14.0016   -4.7971   20.8031 O.2     1  UNL1       -0.2699
      3 N         -13.6035   -6.4463   18.8354 N.am    1  UNL1       -0.2776
      4 C         -18.4340   -6.0071   19.2375 C.ar    1  UNL1        0.1723
      5 C         -17.0169   -6.2031   19.6885 C.ar    1  UNL1        0.0446
      6 C         -15.9282   -5.3275   19.1427 C.ar    1  UNL1        0.0568
      7 C         -16.2565   -4.2558   18.1459 C.ar    1  UNL1        0.0078
      8 C         -17.6736   -4.0598   17.6949 C.ar    1  UNL1        0.0402
      9 C         -18.7623   -4.9354   18.2407 C.ar    1  UNL1        0.1724
     10 O         -20.1795   -4.7393   17.7897 O.3     1  UNL1       -0.4684
     11 C         -20.4621   -4.1757   16.4286 C.3     1  UNL1        0.2526
     12 O         -19.5228   -6.8827   19.7833 O.3     1  UNL1       -0.4723
     13 C         -19.2220   -8.3004   20.1700 C.3     1  UNL1        0.2082
     14 C         -19.6086   -9.4253   19.2561 C.3     1  UNL1        0.0794
     15 C         -18.9965   -9.5261   17.8903 C.3     1  UNL1        0.1461
     16 C         -17.1462  -11.1478   18.7250 C.3     1  UNL1        0.1741
     17 O         -17.6447  -10.1534   17.7188 O.3     1  UNL1       -0.3510
     18 C         -14.1131   -7.1728   17.6260 C.3     1  UNL1        0.0757
     19 C         -14.0830   -6.5062   16.2826 C.3     1  UNL1        0.0215
     20 C         -14.6528   -8.5659   17.7601 C.3     1  UNL1        0.0215
     21 C         -12.1865   -6.6424   19.2864 C.3     1  UNL1        0.0964
     22 C         -11.0723   -5.9108   18.5983 C.3     1  UNL1        0.0530
     23 C          -9.9846   -6.5341   17.7746 C.3     1  UNL1        0.0717
     24 N          -9.0903   -5.4360   17.2803 N.3     1  UNL1       -0.2962
     25 C          -9.6253   -4.1340   17.7985 C.3     1  UNL1        0.0862
     26 C         -10.8502   -4.4274   18.6130 C.3     1  UNL1        0.0938
     27 H          -9.0849   -5.4267   16.2604 H       1  UNL1        0.1233
     28 N         -11.7033   -3.4151   19.3184 N.3     1  UNL1       -0.1829
     29 H         -11.1334   -3.0197   20.0662 H       1  UNL1        0.1484
     30 S         -12.2806   -2.2593   18.5565 S.O2    1  UNL1        0.0450
     31 O         -13.1294   -3.2070   17.7619 O.2     1  UNL1       -0.1572
     32 O         -11.4318   -1.3115   19.3511 O.2     1  UNL1       -0.1572
     33 C         -12.8579   -1.1033   17.7946 C.3     1  UNL1        0.1952
     34 C         -13.9588   -0.2822   18.3980 C.ar    1  UNL1        0.0029
     35 C         -14.9904   -0.9354   19.2692 C.ar    1  UNL1       -0.0025
     36 C         -16.0913   -0.1143   19.8725 C.ar    1  UNL1       -0.0003
     37 C         -16.1604    1.3599   19.6047 C.ar    1  UNL1       -0.0000
     38 C         -15.1288    2.0132   18.7334 C.ar    1  UNL1       -0.0003
     39 C         -14.0280    1.1921   18.1300 C.ar    1  UNL1       -0.0025
@<TRIPOS>BOND
     1    16    17    1
     2    17    15    1
     3    15    14    1
     4    14    13    1
     5    13    12    1
     6    12     4    1
     7     4     5   ar
     8     5     6   ar
     9     6     1    1
    10     1     2    2
    11     1     3   am
    12     3    21    1
    13    22    21    1
    14    22    23    1
    15    23    24    1
    16    24    25    1
    17    25    26    1
    18    26    28    1
    19    28    30    1
    20    30    31    2
    21    30    32    2
    22    30    33    1
    23    33    34    1
    24    34    35   ar
    25    35    36   ar
    26    36    37   ar
    27    37    38   ar
    28    38    39   ar
    29     3    18    1
    30    18    19    1
    31    18    20    1
    32     6     7   ar
    33     7     8   ar
    34     8     9   ar
    35     9    10    1
    36    10    11    1
    37     9     4   ar
    38    26    22    1
    39    39    34   ar
    40    24    27    1
    41    28    29    1
@<TRIPOS>MOLECULE
*****
 39 41 0 0 0
SMALL
GASTEIGER

@<TRIPOS>ATOM
      1 C          -8.0374  -18.7812   20.5219 C.2     1  UNL1        0.2491
      2 O          -8.6508  -17.5854   21.1880 O.2     1  UNL1       -0.2699
      3 N          -8.8724  -19.6562   19.6347 N.am    1  UNL1       -0.2776
      4 C          -4.1368  -19.1423   19.8853 C.ar    1  UNL1        0.1723
      5 C          -5.5853  -18.8215   19.6641 C.ar    1  UNL1        0.0446
      6 C          -6.5889  -19.1021   20.7431 C.ar    1  UNL1        0.0568
      7 C          -6.1439  -19.7036   22.0432 C.ar    1  UNL1        0.0078
      8 C          -4.6955  -20.0245   22.2643 C.ar    1  UNL1        0.0402
      9 C          -3.6919  -19.7438   21.1853 C.ar    1  UNL1        0.1724
     10 O          -2.2434  -20.0647   21.4065 O.3     1  UNL1       -0.4684
     11 C          -1.4347  -19.2529   22.3744 C.3     1  UNL1        0.2526
     12 O          -3.1333  -18.8617   18.8063 O.3     1  UNL1       -0.4723
     13 C          -2.4688  -17.5191   18.7309 C.3     1  UNL1        0.2082
     14 C          -1.2613  -17.2315   19.5731 C.3     1  UNL1        0.0794
     15 C          -1.4090  -16.4846   20.8655 C.3     1  UNL1        0.1461
     16 C          -3.2920  -16.3513   22.6505 C.3     1  UNL1        0.1741
     17 O          -2.7581  -15.9902   21.2961 O.3     1  UNL1       -0.3510
     18 C          -8.2589  -20.8520   18.9686 C.3     1  UNL1        0.0757
     19 C          -7.1191  -21.5735   19.6247 C.3     1  UNL1        0.0215
     20 C          -8.7852  -21.3264   17.6465 C.3     1  UNL1        0.0215
     21 C         -10.3209  -19.3353   19.4135 C.3     1  UNL1        0.0964
     22 C         -10.9548  -18.1880   20.1427 C.3     1  UNL1        0.0530
     23 C         -11.1970  -16.8159   19.5870 C.3     1  UNL1        0.0717
     24 N         -11.8497  -15.9912   20.6565 N.3     1  UNL1       -0.2962
     25 C         -12.0108  -16.8534   21.8732 C.3     1  UNL1        0.0862
     26 C         -11.4577  -18.2111   21.5557 C.3     1  UNL1        0.0938
     27 H         -12.7633  -15.6698   20.3365 H       1  UNL1        0.1233
     28 N         -11.4150  -19.3857   22.4876 N.3     1  UNL1       -0.1829
     29 H         -10.9566  -20.1449   21.9836 H       1  UNL1        0.1484
     30 S         -10.7236  -19.2666   23.8133 S.O2    1  UNL1        0.0450
     31 O         -11.9475  -18.6222   24.3937 O.2     1  UNL1       -0.1572
     32 O          -9.4997  -19.9111   23.2330 O.2     1  UNL1       -0.1572
     33 C         -10.0322  -19.1475   25.1392 C.3     1  UNL1        0.1952
     34 C          -9.3878  -17.8521   25.5353 C.ar    1  UNL1        0.0029
     35 C          -9.0315  -17.5996   26.9703 C.ar    1  UNL1       -0.0025
     36 C          -8.3872  -16.3043   27.3664 C.ar    1  UNL1       -0.0003
     37 C          -8.0991  -15.2615   26.3275 C.ar    1  UNL1       -0.0000
     38 C          -8.4553  -15.5139   24.8923 C.ar    1  UNL1       -0.0003
     39 C          -9.0997  -16.8093   24.4963 C.ar    1  UNL1       -0.0025
@<TRIPOS>BOND
     1    16    17    1
     2    17    15    1
     3    15    14    1
     4    14    13    1
     5    13    12    1
     6    12     4    1
     7     4     5   ar
     8     5     6   ar
     9     6     1    1
    10     1     2    2
    11     1     3   am
    12     3    21    1
    13    22    21    1
    14    22    23    1
    15    23    24    1
    16    24    25    1
    17    25    26    1
    18    26    28    1
    19    28    30    1
    20    30    31    2
    21    30    32    2
    22    30    33    1
    23    33    34    1
    24    34    35   ar
    25    35    36   ar
    26    36    37   ar
    27    37    38   ar
    28    38    39   ar
    29     3    18    1
    30    18    19    1
    31    18    20    1
    32     6     7   ar
    33     7     8   ar
    34     8     9   ar
    35     9    10    1
    36    10    11    1
    37     9     4   ar
    38    26    22    1
    39    39    34   ar
    40    24    27    1
    41    28    29    1
@<TRIPOS>MOLECULE
*****
 39 41 0 0 0
SMALL
GASTEIGER

@<TRIPOS>ATOM
      1 C           2.7833   -0.4274   22.1388 C.2     1  UNL1        0.2491
      2 O           3.5150   -1.5494   22.8137 O.2     1  UNL1       -0.2699
      3 N           2.4248   -0.5325   20.6860 N.am    1  UNL1       -0.2776
      4 C           0.7294    2.0807   24.4280 C.ar    1  UNL1        0.1723
      5 C           1.1027    0.8537   23.6503 C.ar    1  UNL1        0.0446
      6 C           2.4099    0.7997   22.9166 C.ar    1  UNL1        0.0568
      7 C           3.3438    1.9726   22.9607 C.ar    1  UNL1        0.0078
      8 C           2.9704    3.1997   23.7385 C.ar    1  UNL1        0.0402
      9 C           1.6632    3.2537   24.4721 C.ar    1  UNL1        0.1724
     10 O           1.2899    4.4808   25.2500 O.3     1  UNL1       -0.4684
     11 C           0.3274    5.4734   24.6683 C.3     1  UNL1        0.2526
     12 O          -0.5778    2.1348   25.1617 O.3     1  UNL1       -0.4723
     13 C          -0.6521    1.6985   26.5949 C.3     1  UNL1        0.2082
     14 C           0.5981    1.3066   27.3254 C.3     1  UNL1        0.0794
     15 C           0.5526    1.0416   28.8011 C.3     1  UNL1        0.1461
     16 C          -1.5052   -0.5372   28.9516 C.3     1  UNL1        0.1741
     17 O          -0.0875   -0.2123   29.3186 O.3     1  UNL1       -0.3510
     18 C           1.6930    0.5896   20.0111 C.3     1  UNL1        0.0757
     19 C           0.1965    0.6601   20.0839 C.3     1  UNL1        0.0215
     20 C           2.4579    1.6413   19.2633 C.3     1  UNL1        0.0215
     21 C           2.7981   -1.7595   19.9082 C.3     1  UNL1        0.0964
     22 C           4.1121   -1.8195   19.1872 C.3     1  UNL1        0.0530
     23 C           4.3476   -1.4540   17.7516 C.3     1  UNL1        0.0717
     24 N           5.8023   -1.6643   17.4523 N.3     1  UNL1       -0.2962
     25 C           6.4659   -2.1597   18.7030 C.3     1  UNL1        0.0862
     26 C           5.4213   -2.2556   19.7752 C.3     1  UNL1        0.0938
     27 H           6.2265   -0.7836   17.1609 H       1  UNL1        0.1233
     28 N           5.6464   -2.7083   21.1874 N.3     1  UNL1       -0.1829
     29 H           4.8949   -3.3608   21.4108 H       1  UNL1        0.1484
     30 S           6.9321   -3.3836   21.5627 S.O2    1  UNL1        0.0450
     31 O           7.4079   -2.1175   22.2112 O.2     1  UNL1       -0.1572
     32 O           6.4563   -4.6498   20.9142 O.2     1  UNL1       -0.1572
     33 C           8.2178   -4.0590   21.9380 C.3     1  UNL1        0.1952
     34 C           8.2181   -5.1552   22.9620 C.ar    1  UNL1        0.0029
     35 C           7.5248   -4.9535   24.2768 C.ar    1  UNL1       -0.0025
     36 C           7.5251   -6.0496   25.3007 C.ar    1  UNL1       -0.0003
     37 C           8.2186   -7.3474   25.0099 C.ar    1  UNL1       -0.0000
     38 C           8.9119   -7.5492   23.6951 C.ar    1  UNL1       -0.0003
     39 C           8.9116   -6.4531   22.6712 C.ar    1  UNL1       -0.0025
@<TRIPOS>BOND
     1    16    17    1
     2    17    15    1
     3    15    14    1
     4    14    13    1
     5    13    12    1
     6    12     4    1
     7     4     5   ar
     8     5     6   ar
     9     6     1    1
    10     1     2    2
    11     1     3   am
    12     3    21    1
    13    22    21    1
    14    22    23    1
    15    23    24    1
    16    24    25    1
    17    25    26    1
    18    26    28    1
    19    28    30    1
    20    30    31    2
    21    30    32    2
    22    30    33    1
    23    33    34    1
    24    34    35   ar
    25    35    36   ar
    26    36    37   ar
    27    37    38   ar
    28    38    39   ar
    29     3    18    1
    30    18    19    1
    31    18    20    1
    32     6     7   ar
    33     7     8   ar
    34     8     9   ar
    35     9    10    1
    36    10    11    1
    37     9     4   ar
    38    26    22    1
    39    39    34   ar
    40    24    27    1
    41    28    29    1
@<TRIPOS>MOLECULE
*****
 39 41 0 0 0
SMALL
GASTEIGER

@<TRIPOS>ATOM
      1 C         -13.9819   -3.0603   20.2240 C.2     1  UNL1        0.2491
      2 O         -14.0342   -2.8986   21.7143 O.2     1  UNL1       -0.2699
      3 N         -14.7390   -2.1142   19.3399 N.am    1  UNL1       -0.2776
      4 C         -12.9630   -6.6417   18.8508 C.ar    1  UNL1        0.1723
      5 C         -13.7722   -5.5338   19.4570 C.ar    1  UNL1        0.0446
      6 C         -13.1726   -4.1683   19.6178 C.ar    1  UNL1        0.0568
      7 C         -11.7636   -3.9107   19.1722 C.ar    1  UNL1        0.0078
      8 C         -10.9544   -5.0186   18.5660 C.ar    1  UNL1        0.0402
      9 C         -11.5540   -6.3841   18.4053 C.ar    1  UNL1        0.1724
     10 O         -10.7447   -7.4921   17.7990 O.3     1  UNL1       -0.4684
     11 C          -9.4811   -7.9492   18.4656 C.3     1  UNL1        0.2526
     12 O         -13.5626   -8.0072   18.6901 O.3     1  UNL1       -0.4723
     13 C         -14.8881   -8.1686   18.0067 C.3     1  UNL1        0.2082
     14 C         -16.1570   -8.0872   18.8025 C.3     1  UNL1        0.0794
     15 C         -16.3531   -8.9765   19.9945 C.3     1  UNL1        0.1461
     16 C         -17.2852  -10.8501   18.4547 C.3     1  UNL1        0.1741
     17 O         -16.8399  -10.3831   19.8088 O.3     1  UNL1       -0.3510
     18 C         -14.6867   -2.2760   17.8495 C.3     1  UNL1        0.0757
     19 C         -15.6097   -3.2415   17.1671 C.3     1  UNL1        0.0215
     20 C         -13.7113   -1.4723   17.0416 C.3     1  UNL1        0.0215
     21 C         -15.5483   -1.0063   19.9461 C.3     1  UNL1        0.0964
     22 C         -16.8803   -0.6430   19.3597 C.3     1  UNL1        0.0530
     23 C         -18.1718   -1.3715   19.5866 C.3     1  UNL1        0.0717
     24 N         -19.2443   -0.6662   18.8106 N.3     1  UNL1       -0.2962
     25 C         -18.6158    0.4981   18.1041 C.3     1  UNL1        0.0862
     26 C         -17.1547    0.5124   18.4434 C.3     1  UNL1        0.0938
     27 H         -19.9702   -0.3348   19.4460 H       1  UNL1        0.1233
     28 N         -16.1454    1.5076   17.9527 N.3     1  UNL1       -0.1829
     29 H         -16.4739    1.8370   17.0450 H       1  UNL1        0.1484
     30 S         -15.8356    2.7268   18.7696 S.O2    1  UNL1        0.0450
     31 O         -14.5653    2.0859   19.2445 O.2     1  UNL1       -0.1572
     32 O         -17.1059    3.3678   18.2947 O.2     1  UNL1       -0.1572
     33 C         -15.5259    3.9462   19.5865 C.3     1  UNL1        0.1952
     34 C         -15.7640    3.9371   21.0675 C.ar    1  UNL1        0.0029
     35 C         -14.8900    4.7536   21.9727 C.ar    1  UNL1       -0.0025
     36 C         -15.1282    4.7444   23.4537 C.ar    1  UNL1       -0.0003
     37 C         -16.2402    3.9188   24.0294 C.ar    1  UNL1       -0.0000
     38 C         -17.1142    3.1022   23.1242 C.ar    1  UNL1       -0.0003
     39 C         -16.8761    3.1113   21.6433 C.ar    1  UNL1       -0.0025
@<TRIPOS>BOND
     1    16    17    1
     2    17    15    1
     3    15    14    1
     4    14    13    1
     5    13    12    1
     6    12     4    1
     7     4     5   ar
     8     5     6   ar
     9     6     1    1
    10     1     2    2
    11     1     3   am
    12     3    21    1
    13    22    21    1
    14    22    23    1
    15    23    24    1
    16    24    25    1
    17    25    26    1
    18    26    28    1
    19    28    30    1
    20    30    31    2
    21    30    32    2
    22    30    33    1
    23    33    34    1
    24    34    35   ar
    25    35    36   ar
    26    36    37   ar
    27    37    38   ar
    28    38    39   ar
    29     3    18    1
    30    18    19    1
    31    18    20    1
    32     6     7   ar
    33     7     8   ar
    34     8     9   ar
    35     9    10    1
    36    10    11    1
    37     9     4   ar
    38    26    22    1
    39    39    34   ar
    40    24    27    1
    41    28    29    1
