@<TRIPOS>MOLECULE
*****
 42 47 0 0 0
SMALL
GASTEIGER

@<TRIPOS>ATOM
      1 N           3.1342    0.2405   31.4972 N.am    1  UNL1       -0.2222
      2 C           2.5049    0.3194   30.1378 C.2     1  UNL1        0.3219
      3 O           2.7937   -0.5876   28.9786 O.2     1  UNL1       -0.2512
      4 N           1.5361    1.4647   30.1413 N.am    1  UNL1       -0.1907
      5 C           1.5666    2.0935   31.5028 C.2     1  UNL1        0.2529
      6 O           0.7525    3.2719   31.9482 O.2     1  UNL1       -0.2724
      7 C           2.5543    1.3369   32.3408 C.3     1  UNL1        0.1391
      8 C           3.5667    0.4897   33.0530 C.3     1  UNL1        0.0449
      9 C           3.9136    0.7788   34.4834 C.3     1  UNL1        0.0746
     10 N           3.2481    1.9152   35.2016 N.3     1  UNL1       -0.2676
     11 C           2.2356    2.7624   34.4894 C.3     1  UNL1        0.0746
     12 C           1.8888    2.4732   33.0591 C.3     1  UNL1        0.0449
     13 C           6.6442   -1.5120   32.0956 C.ar    1  UNL1        0.2293
     14 C           5.6157   -0.5122   31.6569 C.ar    1  UNL1        0.0924
     15 C           4.1627   -0.7593   31.9359 C.ar    1  UNL1        0.1453
     16 N           3.7383   -2.0062   32.6537 N.ar    1  UNL1       -0.2084
     17 C           4.7668   -3.0060   33.0924 C.ar    1  UNL1        0.2027
     18 N           6.2198   -2.7589   32.8133 N.ar    1  UNL1       -0.1892
     19 C           9.1387   -2.1662   32.4108 C.3     1  UNL1        0.2542
     20 O           8.0972   -1.2650   31.8166 O.3     1  UNL1       -0.4560
     21 C           0.6860    1.9039   28.9862 C.ar    1  UNL1        0.0622
     22 C           0.6577    3.3482   28.5824 C.ar    1  UNL1        0.0154
     23 C          -0.1924    3.7874   27.4272 C.ar    1  UNL1        0.0018
     24 C          -1.0142    2.7824   26.6758 C.ar    1  UNL1        0.0061
     25 C          -0.9859    1.3379   27.0797 C.ar    1  UNL1        0.0018
     26 C          -0.1357    0.8988   28.2349 C.ar    1  UNL1        0.0154
     27 C          -1.8643    3.2216   25.5207 C.ar    1  UNL1        0.0295
     28 C          -3.2741    3.7268   25.6054 C.ar    1  UNL1        0.0070
     29 C          -3.7350    4.0502   24.2151 C.ar    1  UNL1        0.0081
     30 C          -2.6099    3.7448   23.2711 C.ar    1  UNL1        0.0434
     31 S          -1.4538    3.2328   24.0780 S.2     1  UNL1       -0.0858
     32 C          -2.6364    3.9207   21.7817 C.2     1  UNL1        0.0789
     33 O          -2.1026    5.1799   21.1655 O.co2   1  UNL1       -0.5441
     34 O          -3.1966    2.8375   20.9084 O.co2   1  UNL1       -0.5441
     35 C           3.5950    2.2043   36.6321 C.3     1  UNL1        0.1183
     36 C           2.5950    1.9312   37.7162 C.ar    1  UNL1        0.0712
     37 N           2.5673    0.5919   38.3910 N.ar    1  UNL1       -0.2471
     38 C           1.5672    0.3189   39.4752 C.ar    1  UNL1        0.0985
     39 C           0.5950    1.3853   39.8846 C.ar    1  UNL1        0.0203
     40 C           0.6228    2.7246   39.2099 C.ar    1  UNL1       -0.0015
     41 C           1.6227    2.9976   38.1257 C.ar    1  UNL1       -0.0069
     42 C           1.6505    4.3370   37.4509 C.3     1  UNL1        0.0323
@<TRIPOS>UNITY_ATOM_ATTR
33 1
charge -1
@<TRIPOS>BOND
     1    19    20    1
     2    20    13    1
     3    13    14   ar
     4    14    15   ar
     5    15     1    1
     6     1     2   am
     7     2     3    2
     8     2     4   am
     9     4    21    1
    10    21    22   ar
    11    22    23   ar
    12    23    24   ar
    13    24    27    1
    14    27    28   ar
    15    28    29   ar
    16    29    30   ar
    17    30    32    1
    18    32    33   ar
    19    32    34   ar
    20    30    31   ar
    21    24    25   ar
    22    25    26   ar
    23     4     5   am
    24     5     6    2
    25     5     7    1
    26     7     8    1
    27     8     9    1
    28     9    10    1
    29    10    35    1
    30    35    36    1
    31    36    37   ar
    32    37    38   ar
    33    38    39   ar
    34    39    40   ar
    35    40    41   ar
    36    41    42    1
    37    10    11    1
    38    11    12    1
    39    15    16   ar
    40    16    17   ar
    41    17    18   ar
    42    18    13   ar
    43     7     1    1
    44    41    36   ar
    45    26    21   ar
    46    12     7    1
    47    31    27   ar
@<TRIPOS>MOLECULE
*****
 42 47 0 0 0
SMALL
GASTEIGER

@<TRIPOS>ATOM
      1 N           2.8827    0.9831   31.4888 N.am    1  UNL1       -0.2222
      2 C           2.3104    0.9702   30.1022 C.2     1  UNL1        0.3219
      3 O           2.6997    0.0346   28.9964 O.2     1  UNL1       -0.2512
      4 N           1.2804    2.0574   30.0157 N.am    1  UNL1       -0.1907
      5 C           1.2162    2.7421   31.3488 C.2     1  UNL1        0.2529
      6 O           0.3192    3.8893   31.7084 O.2     1  UNL1       -0.2724
      7 C           2.2064    2.0782   32.2592 C.3     1  UNL1        0.1391
      8 C           3.2319    1.3202   33.0489 C.3     1  UNL1        0.0449
      9 C           3.4989    1.6870   34.4786 C.3     1  UNL1        0.0746
     10 N           2.7405    2.8118   35.1186 N.3     1  UNL1       -0.2676
     11 C           1.7150    3.5698   34.3289 C.3     1  UNL1        0.0746
     12 C           1.4480    3.2030   32.8992 C.3     1  UNL1        0.0449
     13 C           6.4540   -0.4872   32.4018 C.ar    1  UNL1        0.2293
     14 C           5.3919    0.4333   31.8777 C.ar    1  UNL1        0.0924
     15 C           3.9447    0.0626   32.0128 C.ar    1  UNL1        0.1453
     16 N           3.5596   -1.2286   32.6719 N.ar    1  UNL1       -0.2084
     17 C           4.6216   -2.1492   33.1960 C.ar    1  UNL1        0.2027
     18 N           6.0688   -1.7785   33.0609 N.ar    1  UNL1       -0.1892
     19 C           8.9431   -0.8684   33.0408 C.3     1  UNL1        0.2542
     20 O           7.9011   -0.1166   32.2668 O.3     1  UNL1       -0.4560
     21 C           0.4590    2.3996   28.8083 C.ar    1  UNL1        0.0622
     22 C           0.4784    3.7952   28.2590 C.ar    1  UNL1        0.0154
     23 C          -0.3431    4.1375   27.0515 C.ar    1  UNL1        0.0018
     24 C          -1.1839    3.0841   26.3932 C.ar    1  UNL1        0.0061
     25 C          -1.2034    1.6883   26.9425 C.ar    1  UNL1        0.0018
     26 C          -0.3819    1.3462   28.1501 C.ar    1  UNL1        0.0154
     27 C          -2.0054    3.4263   25.1857 C.ar    1  UNL1        0.0295
     28 C          -3.4561    3.8079   25.1855 C.ar    1  UNL1        0.0070
     29 C          -3.8677    4.0645   23.7661 C.ar    1  UNL1        0.0081
     30 C          -2.6714    3.8415   22.8891 C.ar    1  UNL1        0.0434
     31 S          -1.5205    3.4471   23.7665 S.2     1  UNL1       -0.0858
     32 C          -2.6328    3.9873   21.3967 C.2     1  UNL1        0.0789
     33 O          -2.8137    2.7832   20.5206 O.co2   1  UNL1       -0.5441
     34 O          -2.4133    5.3370   20.7804 O.co2   1  UNL1       -0.5441
     35 C           3.0076    3.1785   36.5484 C.3     1  UNL1        0.1183
     36 C           2.2701    2.4802   37.6521 C.ar    1  UNL1        0.0712
     37 N           0.9714    3.0367   38.1557 N.ar    1  UNL1       -0.2471
     38 C           0.2339    2.3382   39.2596 C.ar    1  UNL1        0.0985
     39 C           0.7951    1.0833   39.8597 C.ar    1  UNL1        0.0203
     40 C           2.0939    0.5268   39.3561 C.ar    1  UNL1       -0.0015
     41 C           2.8314    1.2252   38.2524 C.ar    1  UNL1       -0.0069
     42 C           4.1301    0.6687   37.7488 C.3     1  UNL1        0.0323
@<TRIPOS>UNITY_ATOM_ATTR
33 1
charge -1
@<TRIPOS>BOND
     1    19    20    1
     2    20    13    1
     3    13    14   ar
     4    14    15   ar
     5    15     1    1
     6     1     2   am
     7     2     3    2
     8     2     4   am
     9     4    21    1
    10    21    22   ar
    11    22    23   ar
    12    23    24   ar
    13    24    27    1
    14    27    28   ar
    15    28    29   ar
    16    29    30   ar
    17    30    32    1
    18    32    33   ar
    19    32    34   ar
    20    30    31   ar
    21    24    25   ar
    22    25    26   ar
    23     4     5   am
    24     5     6    2
    25     5     7    1
    26     7     8    1
    27     8     9    1
    28     9    10    1
    29    10    35    1
    30    35    36    1
    31    36    37   ar
    32    37    38   ar
    33    38    39   ar
    34    39    40   ar
    35    40    41   ar
    36    41    42    1
    37    10    11    1
    38    11    12    1
    39    15    16   ar
    40    16    17   ar
    41    17    18   ar
    42    18    13   ar
    43     7     1    1
    44    41    36   ar
    45    26    21   ar
    46    12     7    1
    47    31    27   ar
@<TRIPOS>MOLECULE
*****
 42 47 0 0 0
SMALL
GASTEIGER

@<TRIPOS>ATOM
      1 N           3.6539   -1.1897   21.5651 N.am    1  UNL1       -0.2222
      2 C           2.4430   -0.3059   21.6209 C.2     1  UNL1        0.3219
      3 O           1.5747    0.0743   20.4584 O.2     1  UNL1       -0.2512
      4 N           2.2531    0.1308   23.0433 N.am    1  UNL1       -0.1907
      5 C           3.3465   -0.4830   23.8666 C.2     1  UNL1        0.2529
      6 O           3.5402   -0.3110   25.3440 O.2     1  UNL1       -0.2724
      7 C           4.2122   -1.2991   22.9530 C.3     1  UNL1        0.1391
      8 C           4.9824   -2.0709   21.9229 C.3     1  UNL1        0.0449
      9 C           6.1937   -2.8582   22.3264 C.3     1  UNL1        0.0746
     10 N           6.6349   -2.8736   23.7600 N.3     1  UNL1       -0.2676
     11 C           5.8647   -2.1018   24.7900 C.3     1  UNL1        0.0746
     12 C           4.6534   -1.3146   24.3866 C.3     1  UNL1        0.0449
     13 C           5.6890   -1.7483   18.2042 C.ar    1  UNL1        0.2293
     14 C           5.1341   -1.0897   19.4323 C.ar    1  UNL1        0.0924
     15 C           4.2088   -1.8483   20.3370 C.ar    1  UNL1        0.1453
     16 N           3.8385   -3.2654   20.0136 N.ar    1  UNL1       -0.2084
     17 C           4.3934   -3.9241   18.7856 C.ar    1  UNL1        0.2027
     18 N           5.3188   -3.1655   17.8808 N.ar    1  UNL1       -0.1892
     19 C           6.3136    0.4360   16.9440 C.3     1  UNL1        0.2542
     20 O           6.6143   -0.9899   17.2994 O.3     1  UNL1       -0.4560
     21 C           1.1615    1.0243   23.5530 C.ar    1  UNL1        0.0622
     22 C           0.6556    0.8650   24.9560 C.ar    1  UNL1        0.0154
     23 C          -0.4361    1.7586   25.4657 C.ar    1  UNL1        0.0018
     24 C          -1.0218    2.8116   24.5723 C.ar    1  UNL1        0.0061
     25 C          -0.5159    2.9710   23.1691 C.ar    1  UNL1        0.0018
     26 C           0.5758    2.0773   22.6596 C.ar    1  UNL1        0.0154
     27 C          -2.1135    3.7052   25.0819 C.ar    1  UNL1        0.0295
     28 C          -1.9546    4.8040   26.0908 C.ar    1  UNL1        0.0070
     29 C          -3.2985    5.4348   26.3046 C.ar    1  UNL1        0.0081
     30 C          -4.2880    4.7260   25.4279 C.ar    1  UNL1        0.0434
     31 S          -3.5556    3.6571   24.6723 S.2     1  UNL1       -0.0858
     32 C          -5.7528    5.0323   25.3250 C.2     1  UNL1        0.0789
     33 O          -6.4072    5.9180   26.3435 O.co2   1  UNL1       -0.5441
     34 O          -6.5632    4.4530   24.2036 O.co2   1  UNL1       -0.5441
     35 C           7.8463   -3.6610   24.1634 C.3     1  UNL1        0.1183
     36 C           7.6870   -5.0191   24.7799 C.ar    1  UNL1        0.0712
     37 N           6.9836   -5.1673   26.0965 N.ar    1  UNL1       -0.2471
     38 C           6.8244   -6.5255   26.7130 C.ar    1  UNL1        0.0985
     39 C           7.3684   -7.7354   26.0129 C.ar    1  UNL1        0.0203
     40 C           8.0718   -7.5872   24.6963 C.ar    1  UNL1       -0.0015
     41 C           8.2311   -6.2291   24.0799 C.ar    1  UNL1       -0.0069
     42 C           8.9344   -6.0808   22.7633 C.3     1  UNL1        0.0323
@<TRIPOS>UNITY_ATOM_ATTR
33 1
charge -1
@<TRIPOS>BOND
     1    19    20    1
     2    20    13    1
     3    13    14   ar
     4    14    15   ar
     5    15     1    1
     6     1     2   am
     7     2     3    2
     8     2     4   am
     9     4    21    1
    10    21    22   ar
    11    22    23   ar
    12    23    24   ar
    13    24    27    1
    14    27    28   ar
    15    28    29   ar
    16    29    30   ar
    17    30    32    1
    18    32    33   ar
    19    32    34   ar
    20    30    31   ar
    21    24    25   ar
    22    25    26   ar
    23     4     5   am
    24     5     6    2
    25     5     7    1
    26     7     8    1
    27     8     9    1
    28     9    10    1
    29    10    35    1
    30    35    36    1
    31    36    37   ar
    32    37    38   ar
    33    38    39   ar
    34    39    40   ar
    35    40    41   ar
    36    41    42    1
    37    10    11    1
    38    11    12    1
    39    15    16   ar
    40    16    17   ar
    41    17    18   ar
    42    18    13   ar
    43     7     1    1
    44    41    36   ar
    45    26    21   ar
    46    12     7    1
    47    31    27   ar
@<TRIPOS>MOLECULE
*****
 42 47 0 0 0
SMALL
GASTEIGER

@<TRIPOS>ATOM
      1 N           3.7474   -0.6548   23.7388 N.am    1  UNL1       -0.2222
      2 C           2.5784    0.2840   23.6908 C.2     1  UNL1        0.3219
      3 O           1.8642    0.7403   22.4532 O.2     1  UNL1       -0.2512
      4 N           2.2489    0.6863   25.0979 N.am    1  UNL1       -0.1907
      5 C           3.2143   -0.0038   26.0154 C.2     1  UNL1        0.2529
      6 O           3.2478    0.1141   27.5103 O.2     1  UNL1       -0.2724
      7 C           4.1404   -0.8327   25.1754 C.3     1  UNL1        0.1391
      8 C           4.9868   -1.6092   24.2107 C.3     1  UNL1        0.0449
      9 C           6.1088   -2.4655   24.7183 C.3     1  UNL1        0.0746
     10 N           6.3845   -2.5453   26.1906 N.3     1  UNL1       -0.2676
     11 C           5.5382   -1.7687   27.1553 C.3     1  UNL1        0.0746
     12 C           4.4162   -0.9124   26.6477 C.3     1  UNL1        0.0449
     13 C           4.6247   -3.3081   20.9210 C.ar    1  UNL1        0.2293
     14 C           3.9646   -2.6609   22.1023 C.ar    1  UNL1        0.0924
     15 C           4.4075   -1.3020   22.5575 C.ar    1  UNL1        0.1453
     16 N           5.5103   -0.5903   21.8314 N.ar    1  UNL1       -0.2084
     17 C           6.1704   -1.2374   20.6502 C.ar    1  UNL1        0.2027
     18 N           5.7276   -2.5964   20.1949 N.ar    1  UNL1       -0.1892
     19 C           3.4659   -4.8230   19.1570 C.3     1  UNL1        0.2542
     20 O           4.1820   -4.6670   20.4658 O.3     1  UNL1       -0.4560
     21 C           1.1476    1.6155   25.5142 C.ar    1  UNL1        0.0622
     22 C           0.0876    1.1437   26.4649 C.ar    1  UNL1        0.0154
     23 C          -1.0139    2.0730   26.8813 C.ar    1  UNL1        0.0018
     24 C          -1.0553    3.4740   26.3470 C.ar    1  UNL1        0.0061
     25 C           0.0048    3.9458   25.3963 C.ar    1  UNL1        0.0018
     26 C           1.1061    3.0165   24.9799 C.ar    1  UNL1        0.0154
     27 C          -2.1567    4.4032   26.7634 C.ar    1  UNL1        0.0295
     28 C          -1.9894    5.6802   27.5325 C.ar    1  UNL1        0.0070
     29 C          -3.3480    6.2848   27.7282 C.ar    1  UNL1        0.0081
     30 C          -4.3551    5.3816   27.0801 C.ar    1  UNL1        0.0434
     31 S          -3.6188    4.2188   26.4838 S.2     1  UNL1       -0.0858
     32 C          -5.8381    5.6025   27.0359 C.2     1  UNL1        0.0789
     33 O          -6.5934    5.8777   28.3024 O.co2   1  UNL1       -0.5441
     34 O          -6.5658    5.5482   25.7255 O.co2   1  UNL1       -0.5441
     35 C           7.5067   -3.4016   26.6982 C.3     1  UNL1        0.1183
     36 C           7.6849   -4.7944   26.1707 C.ar    1  UNL1        0.0712
     37 N           8.5730   -5.0403   24.9871 N.ar    1  UNL1       -0.2471
     38 C           8.7512   -6.4332   24.4597 C.ar    1  UNL1        0.0985
     39 C           8.0413   -7.5802   25.1158 C.ar    1  UNL1        0.0203
     40 C           7.1532   -7.3343   26.2994 C.ar    1  UNL1       -0.0015
     41 C           6.9750   -5.9415   26.8268 C.ar    1  UNL1       -0.0069
     42 C           6.0869   -5.6956   28.0104 C.3     1  UNL1        0.0323
@<TRIPOS>UNITY_ATOM_ATTR
33 1
charge -1
@<TRIPOS>BOND
     1    19    20    1
     2    20    13    1
     3    13    14   ar
     4    14    15   ar
     5    15     1    1
     6     1     2   am
     7     2     3    2
     8     2     4   am
     9     4    21    1
    10    21    22   ar
    11    22    23   ar
    12    23    24   ar
    13    24    27    1
    14    27    28   ar
    15    28    29   ar
    16    29    30   ar
    17    30    32    1
    18    32    33   ar
    19    32    34   ar
    20    30    31   ar
    21    24    25   ar
    22    25    26   ar
    23     4     5   am
    24     5     6    2
    25     5     7    1
    26     7     8    1
    27     8     9    1
    28     9    10    1
    29    10    35    1
    30    35    36    1
    31    36    37   ar
    32    37    38   ar
    33    38    39   ar
    34    39    40   ar
    35    40    41   ar
    36    41    42    1
    37    10    11    1
    38    11    12    1
    39    15    16   ar
    40    16    17   ar
    41    17    18   ar
    42    18    13   ar
    43     7     1    1
    44    41    36   ar
    45    26    21   ar
    46    12     7    1
    47    31    27   ar
@<TRIPOS>MOLECULE
*****
 42 47 0 0 0
SMALL
GASTEIGER

@<TRIPOS>ATOM
      1 N           3.8665    0.5404   31.4878 N.am    1  UNL1       -0.2222
      2 C           3.1845    0.7156   30.1633 C.2     1  UNL1        0.3219
      3 O           3.6436    0.1473   28.8532 O.2     1  UNL1       -0.2512
      4 N           1.9629    1.5590   30.3789 N.am    1  UNL1       -0.1907
      5 C           1.8899    1.9050   31.8366 C.2     1  UNL1        0.2529
      6 O           0.8270    2.7348   32.4936 O.2     1  UNL1       -0.2724
      7 C           3.0663    1.2755   32.5220 C.3     1  UNL1        0.1391
      8 C           4.2843    0.5900   33.0666 C.3     1  UNL1        0.0449
      9 C           4.6044    0.6798   34.5293 C.3     1  UNL1        0.0746
     10 N           3.7065    1.4551   35.4473 N.3     1  UNL1       -0.2676
     11 C           2.4885    2.1405   34.9027 C.3     1  UNL1        0.0746
     12 C           2.1685    2.0507   33.4400 C.3     1  UNL1        0.0449
     13 C           6.3237   -2.4859   32.2316 C.ar    1  UNL1        0.2293
     14 C           5.0630   -1.7116   31.9846 C.ar    1  UNL1        0.0924
     15 C           5.1272   -0.2339   31.7348 C.ar    1  UNL1        0.1453
     16 N           6.4521    0.4694   31.7320 N.ar    1  UNL1       -0.2084
     17 C           7.7128   -0.3049   31.9790 C.ar    1  UNL1        0.2027
     18 N           7.6486   -1.7826   32.2288 N.ar    1  UNL1       -0.1892
     19 C           7.0708   -4.9025   31.6385 C.3     1  UNL1        0.2542
     20 O           6.2596   -3.9636   32.4813 O.3     1  UNL1       -0.4560
     21 C           0.9860    1.9821   29.3223 C.ar    1  UNL1        0.0622
     22 C           0.9689    3.4031   28.8423 C.ar    1  UNL1        0.0154
     23 C          -0.0081    3.8261   27.7857 C.ar    1  UNL1        0.0018
     24 C          -0.9681    2.8282   27.2090 C.ar    1  UNL1        0.0061
     25 C          -0.9511    1.4071   27.6890 C.ar    1  UNL1        0.0018
     26 C           0.0260    0.9841   28.7456 C.ar    1  UNL1        0.0154
     27 C          -1.9451    3.2513   26.1524 C.ar    1  UNL1        0.0295
     28 C          -1.8222    2.9862   24.6810 C.ar    1  UNL1        0.0070
     29 C          -3.0177    3.5848   24.0009 C.ar    1  UNL1        0.0081
     30 C          -3.8793    4.2198   25.0518 C.ar    1  UNL1        0.0434
     31 S          -3.2164    4.0136   26.3815 S.2     1  UNL1       -0.0858
     32 C          -5.1761    4.9353   24.8147 C.2     1  UNL1        0.0789
     33 O          -6.1642    5.0874   25.9330 O.co2   1  UNL1       -0.5441
     34 O          -5.4851    5.4986   23.4593 O.co2   1  UNL1       -0.5441
     35 C           4.0266    1.5448   36.9101 C.3     1  UNL1        0.1183
     36 C           2.9191    1.5426   37.9217 C.ar    1  UNL1        0.0712
     37 N           2.3148    0.2447   38.3692 N.ar    1  UNL1       -0.2471
     38 C           1.2072    0.2425   39.3809 C.ar    1  UNL1        0.0985
     39 C           0.7042    1.5380   39.9451 C.ar    1  UNL1        0.0203
     40 C           1.3085    2.8359   39.4976 C.ar    1  UNL1       -0.0015
     41 C           2.4160    2.8382   38.4859 C.ar    1  UNL1       -0.0069
     42 C           3.0204    4.1361   38.0384 C.3     1  UNL1        0.0323
@<TRIPOS>UNITY_ATOM_ATTR
33 1
charge -1
@<TRIPOS>BOND
     1    19    20    1
     2    20    13    1
     3    13    14   ar
     4    14    15   ar
     5    15     1    1
     6     1     2   am
     7     2     3    2
     8     2     4   am
     9     4    21    1
    10    21    22   ar
    11    22    23   ar
    12    23    24   ar
    13    24    27    1
    14    27    28   ar
    15    28    29   ar
    16    29    30   ar
    17    30    32    1
    18    32    33   ar
    19    32    34   ar
    20    30    31   ar
    21    24    25   ar
    22    25    26   ar
    23     4     5   am
    24     5     6    2
    25     5     7    1
    26     7     8    1
    27     8     9    1
    28     9    10    1
    29    10    35    1
    30    35    36    1
    31    36    37   ar
    32    37    38   ar
    33    38    39   ar
    34    39    40   ar
    35    40    41   ar
    36    41    42    1
    37    10    11    1
    38    11    12    1
    39    15    16   ar
    40    16    17   ar
    41    17    18   ar
    42    18    13   ar
    43     7     1    1
    44    41    36   ar
    45    26    21   ar
    46    12     7    1
    47    31    27   ar
@<TRIPOS>MOLECULE
*****
 42 47 0 0 0
SMALL
GASTEIGER

@<TRIPOS>ATOM
      1 N           6.0463   -2.8832   25.5895 N.am    1  UNL1       -0.2222
      2 C           5.7406   -2.2463   26.9128 C.2     1  UNL1        0.3219
      3 O           6.4594   -2.5062   28.2034 O.2     1  UNL1       -0.2512
      4 N           4.5898   -1.3039   26.7187 N.am    1  UNL1       -0.1907
      5 C           4.1843   -1.3583   25.2756 C.2     1  UNL1        0.2529
      6 O           3.0737   -0.5744   24.6416 O.2     1  UNL1       -0.2724
      7 C           5.0845   -2.3344   24.5777 C.3     1  UNL1        0.1391
      8 C           6.0549   -3.3322   24.0185 C.3     1  UNL1        0.0449
      9 C           6.0025   -3.6956   22.5642 C.3     1  UNL1        0.0746
     10 N           4.9796   -3.0612   21.6690 N.3     1  UNL1       -0.2676
     11 C           4.0093   -2.0634   22.2281 C.3     1  UNL1        0.0746
     12 C           4.0617   -1.7000   23.6825 C.3     1  UNL1        0.0449
     13 C           7.9481   -6.3558   25.3175 C.ar    1  UNL1        0.2293
     14 C           6.8698   -5.3473   25.5824 C.ar    1  UNL1        0.0924
     15 C           7.1246   -3.8917   25.3246 C.ar    1  UNL1        0.1453
     16 N           8.4576   -3.4448   24.8018 N.ar    1  UNL1       -0.2084
     17 C           9.5359   -4.4532   24.5369 C.ar    1  UNL1        0.2027
     18 N           9.2811   -5.9089   24.7948 N.ar    1  UNL1       -0.1892
     19 C           8.0357   -8.4080   26.9083 C.3     1  UNL1        0.2542
     20 O           7.6934   -7.8113   25.5753 O.3     1  UNL1       -0.4560
     21 C           3.9558   -0.4560   27.7812 C.ar    1  UNL1        0.0622
     22 C           2.5998   -0.8117   28.3148 C.ar    1  UNL1        0.0154
     23 C           1.9658    0.0363   29.3773 C.ar    1  UNL1        0.0018
     24 C           2.6878    1.2399   29.9064 C.ar    1  UNL1        0.0061
     25 C           4.0439    1.5957   29.3729 C.ar    1  UNL1        0.0018
     26 C           4.6778    0.7477   28.3103 C.ar    1  UNL1        0.0154
     27 C           2.0538    2.0879   30.9690 C.ar    1  UNL1        0.0295
     28 C           0.8336    2.9443   30.8021 C.ar    1  UNL1        0.0070
     29 C           0.5544    3.6140   32.1149 C.ar    1  UNL1        0.0081
     30 C           1.6019    3.1715   33.0931 C.ar    1  UNL1        0.0434
     31 S           2.5286    2.2283   32.3848 S.2     1  UNL1       -0.0858
     32 C           1.7048    3.5974   34.5277 C.2     1  UNL1        0.0789
     33 O           2.1652    2.6207   35.5689 O.co2   1  UNL1       -0.5441
     34 O           1.3472    5.0000   34.9211 O.co2   1  UNL1       -0.5441
     35 C           4.9272   -3.4247   20.2146 C.3     1  UNL1        0.1183
     36 C           4.9802   -2.3491   19.1704 C.ar    1  UNL1        0.0712
     37 N           3.7084   -1.7814   18.6133 N.ar    1  UNL1       -0.2471
     38 C           3.7614   -0.7058   17.5690 C.ar    1  UNL1        0.0985
     39 C           5.0861   -0.1981   17.0819 C.ar    1  UNL1        0.0203
     40 C           6.3578   -0.7658   17.6389 C.ar    1  UNL1       -0.0015
     41 C           6.3049   -1.8413   18.6831 C.ar    1  UNL1       -0.0069
     42 C           7.5766   -2.4091   19.2402 C.3     1  UNL1        0.0323
@<TRIPOS>UNITY_ATOM_ATTR
33 1
charge -1
@<TRIPOS>BOND
     1    19    20    1
     2    20    13    1
     3    13    14   ar
     4    14    15   ar
     5    15     1    1
     6     1     2   am
     7     2     3    2
     8     2     4   am
     9     4    21    1
    10    21    22   ar
    11    22    23   ar
    12    23    24   ar
    13    24    27    1
    14    27    28   ar
    15    28    29   ar
    16    29    30   ar
    17    30    32    1
    18    32    33   ar
    19    32    34   ar
    20    30    31   ar
    21    24    25   ar
    22    25    26   ar
    23     4     5   am
    24     5     6    2
    25     5     7    1
    26     7     8    1
    27     8     9    1
    28     9    10    1
    29    10    35    1
    30    35    36    1
    31    36    37   ar
    32    37    38   ar
    33    38    39   ar
    34    39    40   ar
    35    40    41   ar
    36    41    42    1
    37    10    11    1
    38    11    12    1
    39    15    16   ar
    40    16    17   ar
    41    17    18   ar
    42    18    13   ar
    43     7     1    1
    44    41    36   ar
    45    26    21   ar
    46    12     7    1
    47    31    27   ar
@<TRIPOS>MOLECULE
*****
 42 47 0 0 0
SMALL
GASTEIGER

@<TRIPOS>ATOM
      1 N           3.4333   -0.0874   30.5846 N.am    1  UNL1       -0.2222
      2 C           2.1813    0.6994   30.3320 C.2     1  UNL1        0.3219
      3 O           1.2984    1.3116   31.3787 O.2     1  UNL1       -0.2512
      4 N           1.9673    0.7663   28.8488 N.am    1  UNL1       -0.1907
      5 C           3.0869    0.0211   28.1848 C.2     1  UNL1        0.2529
      6 O           3.2687   -0.1641   26.7074 O.2     1  UNL1       -0.2724
      7 C           3.9930   -0.5066   29.2576 C.3     1  UNL1        0.1391
      8 C           4.8017   -0.9673   30.4338 C.3     1  UNL1        0.0449
      9 C           6.0485   -1.7727   30.2175 C.3     1  UNL1        0.0746
     10 N           6.4865   -2.1174   28.8250 N.3     1  UNL1       -0.2676
     11 C           5.6778   -1.6567   27.6487 C.3     1  UNL1        0.0746
     12 C           4.4311   -0.8513   27.8650 C.3     1  UNL1        0.0449
     13 C           5.5125    0.2795   33.9450 C.ar    1  UNL1        0.2293
     14 C           4.9236    0.5921   32.6013 C.ar    1  UNL1        0.0924
     15 C           4.0221   -0.4000   31.9283 C.ar    1  UNL1        0.1453
     16 N           3.7093   -1.7047   32.5991 N.ar    1  UNL1       -0.2084
     17 C           4.2981   -2.0173   33.9427 C.ar    1  UNL1        0.2027
     18 N           5.1997   -1.0252   34.6157 N.ar    1  UNL1       -0.1892
     19 C           7.6685    0.8057   35.2956 C.3     1  UNL1        0.2542
     20 O           6.4140    1.2716   34.6180 O.3     1  UNL1       -0.4560
     21 C           0.8329    1.4573   28.1520 C.ar    1  UNL1        0.0622
     22 C           1.1044    2.6338   27.2621 C.ar    1  UNL1        0.0154
     23 C          -0.0301    3.3248   26.5653 C.ar    1  UNL1        0.0018
     24 C          -1.4361    2.8392   26.7584 C.ar    1  UNL1        0.0061
     25 C          -1.7077    1.6626   27.6484 C.ar    1  UNL1        0.0018
     26 C          -0.5732    0.9717   28.3452 C.ar    1  UNL1        0.0154
     27 C          -2.5706    3.5302   26.0616 C.ar    1  UNL1        0.0295
     28 C          -2.6544    3.8260   24.5934 C.ar    1  UNL1        0.0070
     29 C          -3.9560    4.5253   24.3351 C.ar    1  UNL1        0.0081
     30 C          -4.6766    4.6616   25.6436 C.ar    1  UNL1        0.0434
     31 S          -3.8204    4.0466   26.7106 S.2     1  UNL1       -0.0858
     32 C          -6.0180    5.3008   25.8490 C.2     1  UNL1        0.0789
     33 O          -7.0042    5.3541   24.7199 O.co2   1  UNL1       -0.5441
     34 O          -6.3733    5.8866   27.1833 O.co2   1  UNL1       -0.5441
     35 C           7.7334   -2.9228   28.6087 C.3     1  UNL1        0.1183
     36 C           7.7223   -4.0809   27.6554 C.ar    1  UNL1        0.0712
     37 N           8.1236   -3.8781   26.2243 N.ar    1  UNL1       -0.2471
     38 C           8.1124   -5.0362   25.2710 C.ar    1  UNL1        0.0985
     39 C           7.7000   -6.3970   25.7488 C.ar    1  UNL1        0.0203
     40 C           7.2987   -6.5997   27.1798 C.ar    1  UNL1       -0.0015
     41 C           7.3099   -5.4417   28.1331 C.ar    1  UNL1       -0.0069
     42 C           6.9086   -5.6444   29.5641 C.3     1  UNL1        0.0323
@<TRIPOS>UNITY_ATOM_ATTR
33 1
charge -1
@<TRIPOS>BOND
     1    19    20    1
     2    20    13    1
     3    13    14   ar
     4    14    15   ar
     5    15     1    1
     6     1     2   am
     7     2     3    2
     8     2     4   am
     9     4    21    1
    10    21    22   ar
    11    22    23   ar
    12    23    24   ar
    13    24    27    1
    14    27    28   ar
    15    28    29   ar
    16    29    30   ar
    17    30    32    1
    18    32    33   ar
    19    32    34   ar
    20    30    31   ar
    21    24    25   ar
    22    25    26   ar
    23     4     5   am
    24     5     6    2
    25     5     7    1
    26     7     8    1
    27     8     9    1
    28     9    10    1
    29    10    35    1
    30    35    36    1
    31    36    37   ar
    32    37    38   ar
    33    38    39   ar
    34    39    40   ar
    35    40    41   ar
    36    41    42    1
    37    10    11    1
    38    11    12    1
    39    15    16   ar
    40    16    17   ar
    41    17    18   ar
    42    18    13   ar
    43     7     1    1
    44    41    36   ar
    45    26    21   ar
    46    12     7    1
    47    31    27   ar
@<TRIPOS>MOLECULE
*****
 42 47 0 0 0
SMALL
GASTEIGER

@<TRIPOS>ATOM
      1 N           4.2595   -0.0233   31.4386 N.am    1  UNL1       -0.2222
      2 C           3.5138    0.1999   30.1562 C.2     1  UNL1        0.3219
      3 O           3.8720   -0.3726   28.8169 O.2     1  UNL1       -0.2512
      4 N           2.3470    1.0962   30.4486 N.am    1  UNL1       -0.1907
      5 C           2.3717    1.4269   31.9114 C.2     1  UNL1        0.2529
      6 O           1.3872    2.2968   32.6354 O.2     1  UNL1       -0.2724
      7 C           3.5536    0.7350   32.5233 C.3     1  UNL1        0.1391
      8 C           4.7665   -0.0129   32.9918 C.3     1  UNL1        0.0449
      9 C           5.1715    0.0436   34.4349 C.3     1  UNL1        0.0746
     10 N           4.3635    0.8481   35.4097 N.3     1  UNL1       -0.2676
     11 C           3.1507    1.5960   34.9412 C.3     1  UNL1        0.0746
     12 C           2.7457    1.5395   33.4981 C.3     1  UNL1        0.0449
     13 C           6.6088   -3.1604   32.0624 C.ar    1  UNL1        0.2293
     14 C           5.3741   -2.3254   31.8945 C.ar    1  UNL1        0.0924
     15 C           5.4943   -0.8583   31.6065 C.ar    1  UNL1        0.1453
     16 N           6.8492   -0.2260   31.4866 N.ar    1  UNL1       -0.2084
     17 C           8.0840   -1.0609   31.6546 C.ar    1  UNL1        0.2027
     18 N           7.9638   -2.5282   31.9425 N.ar    1  UNL1       -0.1892
     19 C           7.1015   -5.6279   31.4155 C.3     1  UNL1        0.2542
     20 O           6.4887   -4.6276   32.3503 O.3     1  UNL1       -0.4560
     21 C           1.3337    1.5773   29.4529 C.ar    1  UNL1        0.0622
     22 C           1.3300    3.0137   29.0208 C.ar    1  UNL1        0.0154
     23 C           0.3166    3.4948   28.0250 C.ar    1  UNL1        0.0018
     24 C          -0.6932    2.5395   27.4613 C.ar    1  UNL1        0.0061
     25 C          -0.6895    1.1030   27.8934 C.ar    1  UNL1        0.0018
     26 C           0.3239    0.6220   28.8892 C.ar    1  UNL1        0.0154
     27 C          -1.7066    3.0206   26.4656 C.ar    1  UNL1        0.0295
     28 C          -3.0736    3.5496   26.7843 C.ar    1  UNL1        0.0070
     29 C          -3.7428    3.9131   25.4920 C.ar    1  UNL1        0.0081
     30 C          -2.7894    3.6088   24.3747 C.ar    1  UNL1        0.0434
     31 S          -1.5310    3.0572   24.9764 S.2     1  UNL1       -0.0858
     32 C          -3.0489    3.8191   22.9123 C.2     1  UNL1        0.0789
     33 O          -2.0097    4.4762   22.0531 O.co2   1  UNL1       -0.5441
     34 O          -4.3475    3.3723   22.3091 O.co2   1  UNL1       -0.5441
     35 C           4.7685    0.9046   36.8529 C.3     1  UNL1        0.1183
     36 C           4.5447    2.1578   37.6462 C.ar    1  UNL1        0.0712
     37 N           5.5206    3.2926   37.5469 N.ar    1  UNL1       -0.2471
     38 C           5.2967    4.5459   38.3402 C.ar    1  UNL1        0.0985
     39 C           4.0970    4.6643   39.2328 C.ar    1  UNL1        0.0203
     40 C           3.1211    3.5294   39.3320 C.ar    1  UNL1       -0.0015
     41 C           3.3449    2.2762   38.5388 C.ar    1  UNL1       -0.0069
     42 C           2.3691    1.1414   38.6380 C.3     1  UNL1        0.0323
@<TRIPOS>UNITY_ATOM_ATTR
33 1
charge -1
@<TRIPOS>BOND
     1    19    20    1
     2    20    13    1
     3    13    14   ar
     4    14    15   ar
     5    15     1    1
     6     1     2   am
     7     2     3    2
     8     2     4   am
     9     4    21    1
    10    21    22   ar
    11    22    23   ar
    12    23    24   ar
    13    24    27    1
    14    27    28   ar
    15    28    29   ar
    16    29    30   ar
    17    30    32    1
    18    32    33   ar
    19    32    34   ar
    20    30    31   ar
    21    24    25   ar
    22    25    26   ar
    23     4     5   am
    24     5     6    2
    25     5     7    1
    26     7     8    1
    27     8     9    1
    28     9    10    1
    29    10    35    1
    30    35    36    1
    31    36    37   ar
    32    37    38   ar
    33    38    39   ar
    34    39    40   ar
    35    40    41   ar
    36    41    42    1
    37    10    11    1
    38    11    12    1
    39    15    16   ar
    40    16    17   ar
    41    17    18   ar
    42    18    13   ar
    43     7     1    1
    44    41    36   ar
    45    26    21   ar
    46    12     7    1
    47    31    27   ar
@<TRIPOS>MOLECULE
*****
 42 47 0 0 0
SMALL
GASTEIGER

@<TRIPOS>ATOM
      1 N           6.0239   -2.2899   26.2683 N.am    1  UNL1       -0.2222
      2 C           6.0727   -1.9661   27.7321 C.2     1  UNL1        0.3219
      3 O           7.0993   -2.4561   28.7098 O.2     1  UNL1       -0.2512
      4 N           4.9145   -1.0661   28.0466 N.am    1  UNL1       -0.1907
      5 C           4.1500   -0.8338   26.7772 C.2     1  UNL1        0.2529
      6 O           2.9164    0.0071   26.6321 O.2     1  UNL1       -0.2724
      7 C           4.8356   -1.5902   25.6780 C.3     1  UNL1        0.1391
      8 C           5.6248   -2.3936   24.6872 C.3     1  UNL1        0.0449
      9 C           5.1972   -2.4417   23.2503 C.3     1  UNL1        0.0746
     10 N           3.9804   -1.6864   22.8042 N.3     1  UNL1       -0.2676
     11 C           3.1912   -0.8830   23.7950 C.3     1  UNL1        0.0746
     12 C           3.6188   -0.8349   25.2319 C.3     1  UNL1        0.0449
     13 C           7.8017   -5.5225   24.8057 C.ar    1  UNL1        0.2293
     14 C           6.8324   -4.6518   25.5488 C.ar    1  UNL1        0.0924
     15 C           6.9932   -3.1607   25.5251 C.ar    1  UNL1        0.1453
     16 N           8.1233   -2.5402   24.7584 N.ar    1  UNL1       -0.2084
     17 C           9.0926   -3.4109   24.0153 C.ar    1  UNL1        0.2027
     18 N           8.9318   -4.9021   24.0389 N.ar    1  UNL1       -0.1892
     19 C           7.3275   -7.7139   26.1182 C.3     1  UNL1        0.2542
     20 O           7.6410   -7.0137   24.8292 O.3     1  UNL1       -0.4560
     21 C           4.5797   -0.4983   29.3939 C.ar    1  UNL1        0.0622
     22 C           3.2178   -0.7178   29.9830 C.ar    1  UNL1        0.0154
     23 C           2.8830   -0.1499   31.3304 C.ar    1  UNL1        0.0018
     24 C           3.9101    0.6376   32.0887 C.ar    1  UNL1        0.0061
     25 C           5.2720    0.8572   31.4995 C.ar    1  UNL1        0.0018
     26 C           5.6067    0.2893   30.1522 C.ar    1  UNL1        0.0154
     27 C           3.5753    1.2055   33.4360 C.ar    1  UNL1        0.0295
     28 C           2.4690    2.1735   33.7347 C.ar    1  UNL1        0.0070
     29 C           2.4979    2.4714   35.2045 C.ar    1  UNL1        0.0081
     30 C           3.6221    1.6875   35.8142 C.ar    1  UNL1        0.0434
     31 S           4.2879    0.9051   34.7213 S.2     1  UNL1       -0.0858
     32 C           4.0120    1.6862   37.2627 C.2     1  UNL1        0.0789
     33 O           5.2442    2.4163   37.7084 O.co2   1  UNL1       -0.5441
     34 O           3.1698    0.9547   38.2655 O.co2   1  UNL1       -0.5441
     35 C           3.5528   -1.7346   21.3672 C.3     1  UNL1        0.1183
     36 C           4.5841   -1.7780   20.2789 C.ar    1  UNL1        0.0712
     37 N           5.6243   -0.7011   20.1878 N.ar    1  UNL1       -0.2471
     38 C           6.6556   -0.7446   19.0994 C.ar    1  UNL1        0.0985
     39 C           6.6468   -1.8650   18.1022 C.ar    1  UNL1        0.0203
     40 C           5.6066   -2.9419   18.1932 C.ar    1  UNL1       -0.0015
     41 C           4.5753   -2.8985   19.2815 C.ar    1  UNL1       -0.0069
     42 C           3.5352   -3.9754   19.3726 C.3     1  UNL1        0.0323
@<TRIPOS>UNITY_ATOM_ATTR
33 1
charge -1
@<TRIPOS>BOND
     1    19    20    1
     2    20    13    1
     3    13    14   ar
     4    14    15   ar
     5    15     1    1
     6     1     2   am
     7     2     3    2
     8     2     4   am
     9     4    21    1
    10    21    22   ar
    11    22    23   ar
    12    23    24   ar
    13    24    27    1
    14    27    28   ar
    15    28    29   ar
    16    29    30   ar
    17    30    32    1
    18    32    33   ar
    19    32    34   ar
    20    30    31   ar
    21    24    25   ar
    22    25    26   ar
    23     4     5   am
    24     5     6    2
    25     5     7    1
    26     7     8    1
    27     8     9    1
    28     9    10    1
    29    10    35    1
    30    35    36    1
    31    36    37   ar
    32    37    38   ar
    33    38    39   ar
    34    39    40   ar
    35    40    41   ar
    36    41    42    1
    37    10    11    1
    38    11    12    1
    39    15    16   ar
    40    16    17   ar
    41    17    18   ar
    42    18    13   ar
    43     7     1    1
    44    41    36   ar
    45    26    21   ar
    46    12     7    1
    47    31    27   ar
