@<TRIPOS>MOLECULE
*****
 30 31 0 0 0
SMALL
GASTEIGER

@<TRIPOS>ATOM
      1 C          -8.1704  -18.4811   22.3420 C.ar    1  UNL1       -0.0185
      2 C          -9.0815  -19.6656   22.2125 C.ar    1  UNL1       -0.0041
      3 C         -10.5120  -19.5631   22.6522 C.ar    1  UNL1        0.0057
      4 C         -11.0313  -18.2762   23.2215 C.ar    1  UNL1        0.0696
      5 C         -10.1201  -17.0917   23.3510 C.ar    1  UNL1        0.0095
      6 C          -8.6897  -17.1942   22.9112 C.ar    1  UNL1        0.0677
      7 C          -2.4487  -18.8910   20.5830 C.2     1  UNL1        0.2256
      8 O          -1.3487  -18.8903   21.6028 O.2     1  UNL1       -0.2749
      9 N          -3.8791  -18.7885   21.0228 N.am    1  UNL1       -0.2795
     10 C          -4.9791  -18.7893   20.0030 C.3     1  UNL1        0.0937
     11 C          -6.4096  -18.6868   20.4428 C.3     1  UNL1        0.0259
     12 C          -6.7400  -18.5836   21.9022 C.3     1  UNL1        0.0257
     13 C          -5.6400  -18.5829   22.9220 C.3     1  UNL1        0.0259
     14 C          -4.2095  -18.6854   22.4823 C.3     1  UNL1        0.0937
     15 C          -1.7891  -17.7583   18.3399 C.3     1  UNL1        0.0101
     16 C          -2.1183  -18.9942   19.1236 C.3     1  UNL1        0.0853
     17 C         -12.4617  -18.1737   23.6612 C.2     1  UNL1        0.3078
     18 O         -13.4792  -17.5374   22.7614 O.2     1  UNL1       -0.2516
     19 N         -12.8746  -18.7075   25.0008 N.am    1  UNL1       -0.1708
     20 H         -12.2068  -19.1252   25.5914 H       1  UNL1        0.2545
     21 C         -14.3050  -18.6050   25.4405 C.2     1  UNL1        0.3751
     22 N         -14.6388  -18.5580   26.9021 N.pl3   1  UNL1       -0.1313
     23 N         -15.4017  -18.5496   24.4185 N.pl3   1  UNL1       -0.2906
     24 H         -13.9191  -18.5944   27.5728 H       1  UNL1        0.3060
     25 H         -15.1826  -18.5805   23.4592 H       1  UNL1        0.2545
     26 H         -16.3406  -18.4824   24.7071 H       1  UNL1        0.2545
     27 C          -7.7785  -16.0096   23.0408 C.3     1  UNL1        0.4183
     28 F          -6.8674  -14.8252   23.1704 F       1  UNL1       -0.1659
     29 F          -8.1255  -15.5898   21.6432 F       1  UNL1       -0.1659
     30 F          -7.4316  -16.4294   24.4384 F       1  UNL1       -0.1659
@<TRIPOS>BOND
     1    15    16    1
     2    16     7    1
     3     7     8    2
     4     7     9   am
     5     9    10    1
     6    10    11    1
     7    11    12    1
     8    12     1    1
     9     1     2   ar
    10     2     3   ar
    11     3     4   ar
    12     4    17    1
    13    17    18    2
    14    17    19   am
    15    19    21    1
    16    21    22    2
    17    21    23    1
    18     4     5   ar
    19     5     6   ar
    20     6    27    1
    21    27    28    1
    22    27    29    1
    23    27    30    1
    24    12    13    1
    25    13    14    1
    26    14     9    1
    27     6     1   ar
    28    19    20    1
    29    22    24    1
    30    23    25    1
    31    23    26    1
@<TRIPOS>MOLECULE
*****
 30 31 0 0 0
SMALL
GASTEIGER

@<TRIPOS>ATOM
      1 C          -6.7624  -18.4502   22.0801 C.ar    1  UNL1       -0.0185
      2 C          -5.6905  -17.7749   22.8833 C.ar    1  UNL1       -0.0041
      3 C          -4.2524  -17.9105   22.4789 C.ar    1  UNL1        0.0057
      4 C          -3.8862  -18.7214   21.2713 C.ar    1  UNL1        0.0696
      5 C          -4.9580  -19.3967   20.4681 C.ar    1  UNL1        0.0095
      6 C          -6.3961  -19.2611   20.8725 C.ar    1  UNL1        0.0677
      7 C         -12.5147  -17.9077   23.6977 C.2     1  UNL1        0.2256
      8 O         -13.3620  -16.8226   23.1023 O.2     1  UNL1       -0.2749
      9 N         -11.0766  -18.0433   23.2933 N.am    1  UNL1       -0.2795
     10 C         -10.2292  -19.1283   23.8887 C.3     1  UNL1        0.0937
     11 C          -8.7911  -19.2640   23.4843 C.3     1  UNL1        0.0259
     12 C          -8.2004  -18.3146   22.4845 C.3     1  UNL1        0.0257
     13 C          -9.0478  -17.2295   21.8891 C.3     1  UNL1        0.0259
     14 C         -10.4859  -17.0939   22.2935 C.3     1  UNL1        0.0937
     15 C         -14.3507  -18.4809   25.4442 C.3     1  UNL1        0.0101
     16 C         -13.1053  -18.8571   24.6975 C.3     1  UNL1        0.0853
     17 C          -2.4481  -18.8571   20.8669 C.2     1  UNL1        0.3078
     18 O          -1.6689  -20.0754   21.2647 O.2     1  UNL1       -0.2516
     19 N          -1.7893  -17.7743   20.0646 N.am    1  UNL1       -0.1708
     20 H          -2.3008  -16.9747   19.8035 H       1  UNL1        0.2545
     21 C          -0.3512  -17.9100   19.6602 C.2     1  UNL1        0.3751
     22 N           0.7118  -18.0577   20.7081 N.pl3   1  UNL1       -0.1313
     23 N           0.0238  -17.8978   18.2079 N.pl3   1  UNL1       -0.2906
     24 H           0.4657  -18.0657   21.6613 H       1  UNL1        0.3060
     25 H          -0.6740  -17.8009   17.5201 H       1  UNL1        0.2545
     26 H           0.9676  -17.9869   17.9424 H       1  UNL1        0.2545
     27 C          -7.4680  -19.9364   20.0693 C.3     1  UNL1        0.4183
     28 F          -8.5398  -20.6117   19.2661 F       1  UNL1       -0.1659
     29 F          -7.7708  -18.6381   19.3817 F       1  UNL1       -0.1659
     30 F          -7.1652  -21.2347   20.7569 F       1  UNL1       -0.1659
@<TRIPOS>BOND
     1    15    16    1
     2    16     7    1
     3     7     8    2
     4     7     9   am
     5     9    10    1
     6    10    11    1
     7    11    12    1
     8    12     1    1
     9     1     2   ar
    10     2     3   ar
    11     3     4   ar
    12     4    17    1
    13    17    18    2
    14    17    19   am
    15    19    21    1
    16    21    22    2
    17    21    23    1
    18     4     5   ar
    19     5     6   ar
    20     6    27    1
    21    27    28    1
    22    27    29    1
    23    27    30    1
    24    12    13    1
    25    13    14    1
    26    14     9    1
    27     6     1   ar
    28    19    20    1
    29    22    24    1
    30    23    25    1
    31    23    26    1
@<TRIPOS>MOLECULE
*****
 30 31 0 0 0
SMALL
GASTEIGER

@<TRIPOS>ATOM
      1 C          -7.3189  -18.6799   22.3649 C.ar    1  UNL1       -0.0185
      2 C          -6.8127  -19.8908   21.6388 C.ar    1  UNL1       -0.0041
      3 C          -5.3726  -19.9706   21.2266 C.ar    1  UNL1        0.0057
      4 C          -4.4389  -18.8395   21.5404 C.ar    1  UNL1        0.0696
      5 C          -4.9452  -17.6285   22.2665 C.ar    1  UNL1        0.0095
      6 C          -6.3852  -17.5487   22.6787 C.ar    1  UNL1        0.0677
      7 C         -13.0791  -18.3607   24.0139 C.2     1  UNL1        0.2256
      8 O         -14.1398  -18.0970   22.9866 O.2     1  UNL1       -0.2749
      9 N         -11.6390  -18.4405   23.6017 N.am    1  UNL1       -0.2795
     10 C         -10.5783  -18.7042   24.6289 C.3     1  UNL1        0.0937
     11 C          -9.1383  -18.7840   24.2167 C.3     1  UNL1        0.0259
     12 C          -8.7590  -18.6001   22.7772 C.3     1  UNL1        0.0257
     13 C          -9.8197  -18.3364   21.7499 C.3     1  UNL1        0.0259
     14 C         -11.2597  -18.2566   22.1621 C.3     1  UNL1        0.0937
     15 C         -14.9036  -18.5369   25.8551 C.3     1  UNL1        0.0101
     16 C         -13.4584  -18.5446   25.4534 C.3     1  UNL1        0.0853
     17 C          -2.9989  -18.9193   21.1282 C.2     1  UNL1        0.3078
     18 O          -2.1385  -20.0442   21.6223 O.2     1  UNL1       -0.2516
     19 N          -2.4192  -17.8741   20.2217 N.am    1  UNL1       -0.1708
     20 H          -2.9839  -17.1358   19.8974 H       1  UNL1        0.2545
     21 C          -0.9792  -17.9539   19.8095 C.2     1  UNL1        0.3751
     22 N           0.0882  -18.1451   20.8459 N.pl3   1  UNL1       -0.1313
     23 N          -0.6065  -17.8426   18.3607 N.pl3   1  UNL1       -0.2906
     24 H          -0.1564  -18.2181   21.7967 H       1  UNL1        0.3060
     25 H          -1.3071  -17.7172   17.6805 H       1  UNL1        0.2545
     26 H           0.3386  -17.8950   18.0901 H       1  UNL1        0.2545
     27 C          -6.8914  -16.3377   23.4048 C.3     1  UNL1        0.4183
     28 F          -7.3976  -15.1267   24.1309 F       1  UNL1       -0.1659
     29 F          -7.7219  -15.9692   22.2113 F       1  UNL1       -0.1659
     30 F          -6.0609  -16.7061   24.5983 F       1  UNL1       -0.1659
@<TRIPOS>BOND
     1    15    16    1
     2    16     7    1
     3     7     8    2
     4     7     9   am
     5     9    10    1
     6    10    11    1
     7    11    12    1
     8    12     1    1
     9     1     2   ar
    10     2     3   ar
    11     3     4   ar
    12     4    17    1
    13    17    18    2
    14    17    19   am
    15    19    21    1
    16    21    22    2
    17    21    23    1
    18     4     5   ar
    19     5     6   ar
    20     6    27    1
    21    27    28    1
    22    27    29    1
    23    27    30    1
    24    12    13    1
    25    13    14    1
    26    14     9    1
    27     6     1   ar
    28    19    20    1
    29    22    24    1
    30    23    25    1
    31    23    26    1
@<TRIPOS>MOLECULE
*****
 30 31 0 0 0
SMALL
GASTEIGER

@<TRIPOS>ATOM
      1 C          -8.1423  -18.3546   22.2968 C.ar    1  UNL1       -0.0185
      2 C          -8.4677  -17.6325   23.5707 C.ar    1  UNL1       -0.0041
      3 C          -9.8929  -17.5160   24.0237 C.ar    1  UNL1        0.0057
      4 C         -10.9927  -18.1216   23.2029 C.ar    1  UNL1        0.0696
      5 C         -10.6673  -18.8436   21.9291 C.ar    1  UNL1        0.0095
      6 C          -9.2421  -18.9601   21.4761 C.ar    1  UNL1        0.0677
      7 C          -2.4415  -18.8206   20.4847 C.2     1  UNL1        0.2256
      8 O          -1.3347  -18.8689   21.4958 O.2     1  UNL1       -0.2749
      9 N          -3.8667  -18.7041   20.9377 N.am    1  UNL1       -0.2795
     10 C          -4.9736  -18.6558   19.9265 C.3     1  UNL1        0.0937
     11 C          -6.3988  -18.5393   20.3796 C.3     1  UNL1        0.0259
     12 C          -6.7171  -18.4711   21.8438 C.3     1  UNL1        0.0257
     13 C          -5.6103  -18.5194   22.8550 C.3     1  UNL1        0.0259
     14 C          -4.1851  -18.6359   22.4019 C.3     1  UNL1        0.0937
     15 C          -1.7727  -17.6381   18.2701 C.3     1  UNL1        0.0101
     16 C          -2.1232  -18.8888   19.0205 C.3     1  UNL1        0.0853
     17 C         -12.4179  -18.0051   23.6560 C.2     1  UNL1        0.3078
     18 O         -13.4118  -17.2549   22.8197 O.2     1  UNL1       -0.2516
     19 N         -12.8492  -18.6388   24.9452 N.am    1  UNL1       -0.1708
     20 H         -12.1969  -19.1312   25.4941 H       1  UNL1        0.2545
     21 C         -14.2744  -18.5223   25.3983 C.2     1  UNL1        0.3751
     22 N         -15.3900  -18.6415   24.4027 N.pl3   1  UNL1       -0.1313
     23 N         -14.5840  -18.2866   26.8470 N.pl3   1  UNL1       -0.2906
     24 H         -15.1868  -18.7962   23.4519 H       1  UNL1        0.3060
     25 H         -13.8518  -18.2084   27.5004 H       1  UNL1        0.2545
     26 H         -15.5194  -18.2102   27.1444 H       1  UNL1        0.2545
     27 C          -8.9167  -19.6823   20.2022 C.3     1  UNL1        0.4183
     28 F          -8.5913  -20.4044   18.9283 F       1  UNL1       -0.1659
     29 F          -9.6682  -18.6447   19.4220 F       1  UNL1       -0.1659
     30 F          -8.1652  -20.7198   20.9823 F       1  UNL1       -0.1659
@<TRIPOS>BOND
     1    15    16    1
     2    16     7    1
     3     7     8    2
     4     7     9   am
     5     9    10    1
     6    10    11    1
     7    11    12    1
     8    12     1    1
     9     1     2   ar
    10     2     3   ar
    11     3     4   ar
    12     4    17    1
    13    17    18    2
    14    17    19   am
    15    19    21    1
    16    21    22    2
    17    21    23    1
    18     4     5   ar
    19     5     6   ar
    20     6    27    1
    21    27    28    1
    22    27    29    1
    23    27    30    1
    24    12    13    1
    25    13    14    1
    26    14     9    1
    27     6     1   ar
    28    19    20    1
    29    22    24    1
    30    23    25    1
    31    23    26    1
@<TRIPOS>MOLECULE
*****
 30 31 0 0 0
SMALL
GASTEIGER

@<TRIPOS>ATOM
      1 C           5.1669   -0.7727   34.2253 C.ar    1  UNL1       -0.0185
      2 C           4.4636   -1.9627   33.6431 C.ar    1  UNL1       -0.0041
      3 C           5.2173   -2.9319   32.7813 C.ar    1  UNL1        0.0057
      4 C           6.6744   -2.7110   32.5019 C.ar    1  UNL1        0.0696
      5 C           7.3777   -1.5210   33.0841 C.ar    1  UNL1        0.0095
      6 C           6.6239   -0.5518   33.9459 C.ar    1  UNL1        0.0677
      7 C           2.1519    3.1040   37.6722 C.2     1  UNL1        0.2256
      8 O           1.4335    4.2625   37.0464 O.2     1  UNL1       -0.2749
      9 N           2.9056    2.1349   36.8105 N.am    1  UNL1       -0.2795
     10 C           3.6240    0.9764   37.4363 C.3     1  UNL1        0.0937
     11 C           4.3778    0.0072   36.5746 C.3     1  UNL1        0.0259
     12 C           4.4131    0.1965   35.0870 C.3     1  UNL1        0.0257
     13 C           3.6947    1.3550   34.4612 C.3     1  UNL1        0.0259
     14 C           2.9410    2.3242   35.3229 C.3     1  UNL1        0.0937
     15 C           0.9739    2.1796   39.7953 C.3     1  UNL1        0.0101
     16 C           2.1165    2.9147   39.1598 C.3     1  UNL1        0.0853
     17 C           7.4281   -3.6802   31.6402 C.2     1  UNL1        0.3078
     18 O           8.8892   -3.4688   31.3749 O.2     1  UNL1       -0.2516
     19 N           6.7207   -4.8608   31.0437 N.am    1  UNL1       -0.1708
     20 H           5.7617   -4.9995   31.2178 H       1  UNL1        0.2545
     21 C           7.4745   -5.8299   30.1820 C.2     1  UNL1        0.3751
     22 N           6.9612   -6.1749   28.8154 N.pl3   1  UNL1       -0.1313
     23 N           8.7416   -6.4541   30.6868 N.pl3   1  UNL1       -0.2906
     24 H           6.1295   -5.7653   28.4841 H       1  UNL1        0.3060
     25 H           9.0785   -6.2277   31.5838 H       1  UNL1        0.2545
     26 H           9.2364   -7.0902   30.1213 H       1  UNL1        0.2545
     27 C           7.3273    0.6383   34.5281 C.3     1  UNL1        0.4183
     28 F           8.0307    1.8283   35.1104 F       1  UNL1       -0.1659
     29 F           6.9687    1.4440   33.3148 F       1  UNL1       -0.1659
     30 F           7.6859   -0.1673   35.7415 F       1  UNL1       -0.1659
@<TRIPOS>BOND
     1    15    16    1
     2    16     7    1
     3     7     8    2
     4     7     9   am
     5     9    10    1
     6    10    11    1
     7    11    12    1
     8    12     1    1
     9     1     2   ar
    10     2     3   ar
    11     3     4   ar
    12     4    17    1
    13    17    18    2
    14    17    19   am
    15    19    21    1
    16    21    22    2
    17    21    23    1
    18     4     5   ar
    19     5     6   ar
    20     6    27    1
    21    27    28    1
    22    27    29    1
    23    27    30    1
    24    12    13    1
    25    13    14    1
    26    14     9    1
    27     6     1   ar
    28    19    20    1
    29    22    24    1
    30    23    25    1
    31    23    26    1
@<TRIPOS>MOLECULE
*****
 30 31 0 0 0
SMALL
GASTEIGER

@<TRIPOS>ATOM
      1 C           6.6959   -4.1047   24.5705 C.ar    1  UNL1       -0.0185
      2 C           7.0895   -5.5045   24.9388 C.ar    1  UNL1       -0.0041
      3 C           7.2575   -5.8816   26.3809 C.ar    1  UNL1        0.0057
      4 C           7.0319   -4.8588   27.4547 C.ar    1  UNL1        0.0696
      5 C           6.6384   -3.4591   27.0864 C.ar    1  UNL1        0.0095
      6 C           6.4704   -3.0820   25.6443 C.ar    1  UNL1        0.0677
      7 C           6.0239   -2.5965   18.8022 C.2     1  UNL1        0.2256
      8 O           7.2256   -2.2590   17.9703 O.2     1  UNL1       -0.2749
      9 N           6.1919   -2.9735   20.2443 N.am    1  UNL1       -0.2795
     10 C           4.9903   -3.3110   21.0761 C.3     1  UNL1        0.0937
     11 C           5.1583   -3.6880   22.5182 C.3     1  UNL1        0.0259
     12 C           6.5279   -3.7277   23.1284 C.3     1  UNL1        0.0257
     13 C           7.7296   -3.3902   22.2965 C.3     1  UNL1        0.0259
     14 C           7.5616   -3.0131   20.8545 C.3     1  UNL1        0.0937
     15 C           4.2002   -1.3368   17.4468 C.3     1  UNL1        0.0101
     16 C           4.6542   -2.5568   18.1920 C.3     1  UNL1        0.0853
     17 C           7.1999   -5.2359   28.8967 C.2     1  UNL1        0.3078
     18 O           7.7554   -6.5809   29.2605 O.2     1  UNL1       -0.2516
     19 N           6.8125   -4.2680   29.9751 N.am    1  UNL1       -0.1708
     20 H           6.4479   -3.3852   29.7364 H       1  UNL1        0.2545
     21 C           6.9805   -4.6450   31.4172 C.2     1  UNL1        0.3751
     22 N           6.5686   -6.0080   31.8889 N.pl3   1  UNL1       -0.1313
     23 N           7.5604   -3.6590   32.3876 N.pl3   1  UNL1       -0.2906
     24 H           6.1880   -6.6552   31.2520 H       1  UNL1        0.3060
     25 H           7.8307   -2.7644   32.0779 H       1  UNL1        0.2545
     26 H           7.6707   -3.9065   33.3341 H       1  UNL1        0.2545
     27 C           6.0769   -1.6821   25.2761 C.3     1  UNL1        0.4183
     28 F           5.6833   -0.2823   24.9079 F       1  UNL1       -0.1659
     29 F           7.5242   -1.3035   25.1682 F       1  UNL1       -0.1659
     30 F           4.6295   -2.0607   25.3839 F       1  UNL1       -0.1659
@<TRIPOS>BOND
     1    15    16    1
     2    16     7    1
     3     7     8    2
     4     7     9   am
     5     9    10    1
     6    10    11    1
     7    11    12    1
     8    12     1    1
     9     1     2   ar
    10     2     3   ar
    11     3     4   ar
    12     4    17    1
    13    17    18    2
    14    17    19   am
    15    19    21    1
    16    21    22    2
    17    21    23    1
    18     4     5   ar
    19     5     6   ar
    20     6    27    1
    21    27    28    1
    22    27    29    1
    23    27    30    1
    24    12    13    1
    25    13    14    1
    26    14     9    1
    27     6     1   ar
    28    19    20    1
    29    22    24    1
    30    23    25    1
    31    23    26    1
@<TRIPOS>MOLECULE
*****
 30 31 0 0 0
SMALL
GASTEIGER

@<TRIPOS>ATOM
      1 C           5.9951   -2.4852   32.3180 C.ar    1  UNL1       -0.0185
      2 C           4.6738   -2.6659   33.0045 C.ar    1  UNL1       -0.0041
      3 C           4.2504   -1.7098   34.0800 C.ar    1  UNL1        0.0057
      4 C           5.1484   -0.5730   34.4690 C.ar    1  UNL1        0.0696
      5 C           6.4698   -0.3924   33.7825 C.ar    1  UNL1        0.0095
      6 C           6.8931   -1.3485   32.7070 C.ar    1  UNL1        0.0677
      7 C           7.6886   -6.3095   28.0160 C.2     1  UNL1        0.2256
      8 O           7.4309   -5.9800   26.5756 O.2     1  UNL1       -0.2749
      9 N           7.2652   -5.3534   29.0915 N.am    1  UNL1       -0.2795
     10 C           7.5229   -5.6830   30.5320 C.3     1  UNL1        0.0937
     11 C           7.0995   -4.7269   31.6075 C.3     1  UNL1        0.0259
     12 C           6.4185   -3.4413   31.2425 C.3     1  UNL1        0.0257
     13 C           6.1608   -3.1117   29.8021 C.3     1  UNL1        0.0259
     14 C           6.5842   -4.0678   28.7266 C.3     1  UNL1        0.0937
     15 C           8.2327   -8.7952   27.4915 C.3     1  UNL1        0.0101
     16 C           8.3696   -7.5952   28.3810 C.3     1  UNL1        0.0853
     17 C           4.7251    0.3830   35.5445 C.2     1  UNL1        0.3078
     18 O           4.6643    1.8543   35.2587 O.2     1  UNL1       -0.2516
     19 N           4.3624   -0.1321   36.9057 N.am    1  UNL1       -0.1708
     20 H           4.4023   -1.0978   37.0933 H       1  UNL1        0.2545
     21 C           3.9391    0.8240   37.9812 C.2     1  UNL1        0.3751
     22 N           4.7502    2.0566   38.2507 N.pl3   1  UNL1       -0.1313
     23 N           2.7045    0.5474   38.7872 N.pl3   1  UNL1       -0.2906
     24 H           5.5604    2.2381   37.7218 H       1  UNL1        0.3060
     25 H           2.1722   -0.2616   38.6102 H       1  UNL1        0.2545
     26 H           2.4267    1.1749   39.4930 H       1  UNL1        0.2545
     27 C           8.2146   -1.1677   32.0205 C.3     1  UNL1        0.4183
     28 F           9.5360   -0.9871   31.3340 F       1  UNL1       -0.1659
     29 F           7.5626   -0.2853   30.9977 F       1  UNL1       -0.1659
     30 F           8.8666   -2.0502   33.0433 F       1  UNL1       -0.1659
@<TRIPOS>BOND
     1    15    16    1
     2    16     7    1
     3     7     8    2
     4     7     9   am
     5     9    10    1
     6    10    11    1
     7    11    12    1
     8    12     1    1
     9     1     2   ar
    10     2     3   ar
    11     3     4   ar
    12     4    17    1
    13    17    18    2
    14    17    19   am
    15    19    21    1
    16    21    22    2
    17    21    23    1
    18     4     5   ar
    19     5     6   ar
    20     6    27    1
    21    27    28    1
    22    27    29    1
    23    27    30    1
    24    12    13    1
    25    13    14    1
    26    14     9    1
    27     6     1   ar
    28    19    20    1
    29    22    24    1
    30    23    25    1
    31    23    26    1
@<TRIPOS>MOLECULE
*****
 30 31 0 0 0
SMALL
GASTEIGER

@<TRIPOS>ATOM
      1 C          -1.4071    2.6351   26.7084 C.ar    1  UNL1       -0.0185
      2 C          -2.7565    3.1386   27.1274 C.ar    1  UNL1       -0.0041
      3 C          -3.7086    3.6761   26.1005 C.ar    1  UNL1        0.0057
      4 C          -3.3114    3.7099   24.6545 C.ar    1  UNL1        0.0696
      5 C          -1.9620    3.2064   24.2354 C.ar    1  UNL1        0.0095
      6 C          -1.0099    2.6690   25.2624 C.ar    1  UNL1        0.0677
      7 C           2.4014    0.4855   30.8162 C.2     1  UNL1        0.2256
      8 O           2.4293   -0.9837   31.1170 O.2     1  UNL1       -0.2749
      9 N           1.4493    1.0229   29.7893 N.am    1  UNL1       -0.2795
     10 C           1.4214    2.4921   29.4885 C.3     1  UNL1        0.0937
     11 C           0.4692    3.0296   28.4615 C.3     1  UNL1        0.0259
     12 C          -0.4550    2.0977   27.7353 C.3     1  UNL1        0.0257
     13 C          -0.4271    0.6285   28.0361 C.3     1  UNL1        0.0259
     14 C           0.5250    0.0911   29.0631 C.3     1  UNL1        0.0937
     15 C           3.1396    1.6655   33.0100 C.3     1  UNL1        0.0101
     16 C           3.3256    1.4173   31.5424 C.3     1  UNL1        0.0853
     17 C          -4.2635    4.2474   23.6275 C.2     1  UNL1        0.3078
     18 O          -3.8807    5.4388   22.8006 O.2     1  UNL1       -0.2516
     19 N          -5.5985    3.5933   23.4275 N.am    1  UNL1       -0.1708
     20 H          -5.8498    2.8114   23.9703 H       1  UNL1        0.2545
     21 C          -6.5506    4.1307   22.4006 C.2     1  UNL1        0.3751
     22 N          -7.9613    4.4633   22.7870 N.pl3   1  UNL1       -0.1313
     23 N          -6.0920    4.3356   20.9871 N.pl3   1  UNL1       -0.2906
     24 H          -8.2623    4.3288   23.7146 H       1  UNL1        0.3060
     25 H          -5.1661    4.1174   20.7335 H       1  UNL1        0.2545
     26 H          -6.7169    4.6883   20.3131 H       1  UNL1        0.2545
     27 C           0.3395    2.1655   24.8432 C.3     1  UNL1        0.4183
     28 F           1.6889    1.6620   24.4241 F       1  UNL1       -0.1659
     29 F          -0.2133    0.7755   24.7331 F       1  UNL1       -0.1659
     30 F           0.8924    3.5555   24.9534 F       1  UNL1       -0.1659
@<TRIPOS>BOND
     1    15    16    1
     2    16     7    1
     3     7     8    2
     4     7     9   am
     5     9    10    1
     6    10    11    1
     7    11    12    1
     8    12     1    1
     9     1     2   ar
    10     2     3   ar
    11     3     4   ar
    12     4    17    1
    13    17    18    2
    14    17    19   am
    15    19    21    1
    16    21    22    2
    17    21    23    1
    18     4     5   ar
    19     5     6   ar
    20     6    27    1
    21    27    28    1
    22    27    29    1
    23    27    30    1
    24    12    13    1
    25    13    14    1
    26    14     9    1
    27     6     1   ar
    28    19    20    1
    29    22    24    1
    30    23    25    1
    31    23    26    1
@<TRIPOS>MOLECULE
*****
 30 31 0 0 0
SMALL
GASTEIGER

@<TRIPOS>ATOM
      1 C           0.7722    2.3162   19.0497 C.ar    1  UNL1       -0.0185
      2 C          -0.0189    3.1932   18.1250 C.ar    1  UNL1       -0.0041
      3 C          -1.3621    3.7101   18.5477 C.ar    1  UNL1        0.0057
      4 C          -1.9142    3.3500   19.8951 C.ar    1  UNL1        0.0696
      5 C          -1.1231    2.4730   20.8198 C.ar    1  UNL1        0.0095
      6 C           0.2200    1.9561   20.3970 C.ar    1  UNL1        0.0677
      7 C           6.1448    0.2485   17.3588 C.2     1  UNL1        0.2256
      8 O           6.3051   -1.1902   16.9662 O.2     1  UNL1       -0.2749
      9 N           4.8017    0.7654   17.7815 N.am    1  UNL1       -0.2795
     10 C           4.6414    2.2042   18.1742 C.3     1  UNL1        0.0937
     11 C           3.2982    2.7211   18.5969 C.3     1  UNL1        0.0259
     12 C           2.1153    1.7993   18.6270 C.3     1  UNL1        0.0257
     13 C           2.2756    0.3605   18.2343 C.3     1  UNL1        0.0259
     14 C           3.6188   -0.1564   17.8116 C.3     1  UNL1        0.0937
     15 C           7.7853    1.7611   16.0281 C.3     1  UNL1        0.0101
     16 C           7.3277    1.1704   17.3287 C.3     1  UNL1        0.0853
     17 C          -3.2574    3.8669   20.3178 C.2     1  UNL1        0.3078
     18 O          -3.6306    5.2944   20.0476 O.2     1  UNL1       -0.2516
     19 N          -4.2273    2.9564   21.0107 N.am    1  UNL1       -0.1708
     20 H          -3.9823    2.0195   21.1881 H       1  UNL1        0.2545
     21 C          -5.5704    3.4733   21.4335 C.2     1  UNL1        0.3751
     22 N          -5.9460    3.4863   22.8856 N.pl3   1  UNL1       -0.1313
     23 N          -6.5380    3.9773   20.4040 N.pl3   1  UNL1       -0.2906
     24 H          -5.3110    3.1555   23.5613 H       1  UNL1        0.3060
     25 H          -6.2915    3.9689   19.4509 H       1  UNL1        0.2545
     26 H          -7.4196    4.3166   20.6814 H       1  UNL1        0.2545
     27 C           1.0111    1.0791   21.3218 C.3     1  UNL1        0.4183
     28 F           1.8021    0.2020   22.2465 F       1  UNL1       -0.1659
     29 F           1.7472    2.2819   21.8330 F       1  UNL1       -0.1659
     30 F           0.2750   -0.1238   20.8106 F       1  UNL1       -0.1659
@<TRIPOS>BOND
     1    15    16    1
     2    16     7    1
     3     7     8    2
     4     7     9   am
     5     9    10    1
     6    10    11    1
     7    11    12    1
     8    12     1    1
     9     1     2   ar
    10     2     3   ar
    11     3     4   ar
    12     4    17    1
    13    17    18    2
    14    17    19   am
    15    19    21    1
    16    21    22    2
    17    21    23    1
    18     4     5   ar
    19     5     6   ar
    20     6    27    1
    21    27    28    1
    22    27    29    1
    23    27    30    1
    24    12    13    1
    25    13    14    1
    26    14     9    1
    27     6     1   ar
    28    19    20    1
    29    22    24    1
    30    23    25    1
    31    23    26    1
