@<TRIPOS>MOLECULE
*****
 27 29 0 0 0
SMALL
GASTEIGER

@<TRIPOS>ATOM
      1 C           7.7120   -5.7172   25.9038 C.2     1  UNL1        0.0412
      2 C           7.3518   -5.0134   27.1785 C.2     1  UNL1       -0.0331
      3 C           6.6399   -3.6939   27.1314 C.3     1  UNL1        0.0418
      4 C           6.2797   -2.9902   28.4061 C.3     1  UNL1        0.1002
      5 N           6.6314   -3.6059   29.7280 N.3     1  UNL1       -0.1549
      6 C           7.3432   -4.9254   29.7751 C.3     1  UNL1        0.1002
      7 C           7.7034   -5.6292   28.5003 C.3     1  UNL1        0.0418
      8 S           6.2711   -2.9021   31.0027 S.O2    1  UNL1        0.0633
      9 O           6.5616   -4.1541   31.7760 O.2     1  UNL1       -0.1528
     10 O           5.9807   -1.6501   30.2293 O.2     1  UNL1       -0.1528
     11 C           5.9109   -2.1984   32.2774 C.ar    1  UNL1        0.1222
     12 C           4.5885   -2.4647   32.9333 C.ar    1  UNL1        0.0206
     13 C           4.2283   -1.7609   34.2081 C.ar    1  UNL1        0.0116
     14 C           5.1905   -0.7908   34.8268 C.ar    1  UNL1        0.0685
     15 C           6.5129   -0.5244   34.1709 C.ar    1  UNL1        0.0116
     16 C           6.8732   -1.2282   32.8962 C.ar    1  UNL1        0.0206
     17 C           4.8303   -0.0869   36.1016 C.1     1  UNL1        0.1004
     18 N           4.4701    0.6168   37.3763 N.1     1  UNL1       -0.1908
     19 C           7.0088   -4.4857   23.2601 C.1     1  UNL1       -0.0405
     20 C           7.3604   -5.1015   24.5819 C.1     1  UNL1       -0.0583
     21 C           3.7692   -4.0430   19.2216 C.3     1  UNL1        0.0521
     22 C           5.0373   -3.6487   19.9190 C.ar    1  UNL1        0.0600
     23 C           5.9538   -2.6387   19.2945 C.ar    1  UNL1        0.0148
     24 C           7.2219   -2.2444   19.9919 C.ar    1  UNL1        0.0034
     25 C           7.5736   -2.8600   21.3138 C.ar    1  UNL1        0.0276
     26 C           6.6571   -3.8700   21.9382 C.ar    1  UNL1        0.1224
     27 N           5.3890   -4.2643   21.2408 N.ar    1  UNL1       -0.2414
@<TRIPOS>BOND
     1    21    22    1
     2    22    23   ar
     3    23    24   ar
     4    24    25   ar
     5    25    26   ar
     6    26    19    1
     7    19    20    3
     8    20     1    1
     9     1     2    2
    10     2     3    1
    11     3     4    1
    12     4     5    1
    13     5     8    1
    14     8     9    2
    15     8    10    2
    16     8    11    1
    17    11    12   ar
    18    12    13   ar
    19    13    14   ar
    20    14    17    1
    21    17    18    3
    22    14    15   ar
    23    15    16   ar
    24     5     6    1
    25     6     7    1
    26    26    27   ar
    27    27    22   ar
    28     7     2    1
    29    16    11   ar
@<TRIPOS>MOLECULE
*****
 27 29 0 0 0
SMALL
GASTEIGER

@<TRIPOS>ATOM
      1 C           0.5638    1.1371   22.2964 C.2     1  UNL1        0.0412
      2 C           0.7612    1.2774   23.7767 C.2     1  UNL1       -0.0331
      3 C           1.9405    0.6305   24.4407 C.3     1  UNL1        0.0418
      4 C           2.1379    0.7707   25.9210 C.3     1  UNL1        0.1002
      5 N           1.1560    1.5579   26.7374 N.3     1  UNL1       -0.1549
      6 C          -0.0232    2.2048   26.0734 C.3     1  UNL1        0.1002
      7 C          -0.2206    2.0645   24.5930 C.3     1  UNL1        0.0418
      8 S           1.3534    1.6982   28.2177 S.O2    1  UNL1        0.0633
      9 O           2.5693    0.8233   28.1384 O.2     1  UNL1       -0.1528
     10 O           0.1376    2.5730   28.2969 O.2     1  UNL1       -0.1528
     11 C           1.5509    1.8384   29.6979 C.ar    1  UNL1        0.1222
     12 C           0.8944    2.9655   30.4387 C.ar    1  UNL1        0.0206
     13 C           1.0918    3.1057   31.9191 C.ar    1  UNL1        0.0116
     14 C           1.9457    2.1189   32.6586 C.ar    1  UNL1        0.0685
     15 C           2.6022    0.9918   31.9179 C.ar    1  UNL1        0.0116
     16 C           2.4048    0.8516   30.4376 C.ar    1  UNL1        0.0206
     17 C           2.1432    2.2591   34.1390 C.1     1  UNL1        0.1004
     18 N           2.3406    2.3994   35.6193 N.1     1  UNL1       -0.1908
     19 C           2.5275   -0.4372   20.6637 C.1     1  UNL1       -0.0405
     20 C           1.5457    0.3499   21.4800 C.1     1  UNL1       -0.0583
     21 C           4.3155   -5.0053   18.9505 C.3     1  UNL1        0.0521
     22 C           4.4033   -3.5084   18.9908 C.ar    1  UNL1        0.0600
     23 C           5.4729   -2.7987   18.2147 C.ar    1  UNL1        0.0148
     24 C           5.5607   -1.3019   18.2550 C.ar    1  UNL1        0.0034
     25 C           4.5789   -0.5147   19.0713 C.ar    1  UNL1        0.0276
     26 C           3.5093   -1.2244   19.8473 C.ar    1  UNL1        0.1224
     27 N           3.4215   -2.7213   19.8071 N.ar    1  UNL1       -0.2414
@<TRIPOS>BOND
     1    21    22    1
     2    22    23   ar
     3    23    24   ar
     4    24    25   ar
     5    25    26   ar
     6    26    19    1
     7    19    20    3
     8    20     1    1
     9     1     2    2
    10     2     3    1
    11     3     4    1
    12     4     5    1
    13     5     8    1
    14     8     9    2
    15     8    10    2
    16     8    11    1
    17    11    12   ar
    18    12    13   ar
    19    13    14   ar
    20    14    17    1
    21    17    18    3
    22    14    15   ar
    23    15    16   ar
    24     5     6    1
    25     6     7    1
    26    26    27   ar
    27    27    22   ar
    28     7     2    1
    29    16    11   ar
@<TRIPOS>MOLECULE
*****
 27 29 0 0 0
SMALL
GASTEIGER

@<TRIPOS>ATOM
      1 C           2.5266    2.5967   18.2689 C.2     1  UNL1        0.0412
      2 C           1.2023    2.8341   18.9320 C.2     1  UNL1       -0.0331
      3 C           0.6599    1.8297   19.9051 C.3     1  UNL1        0.0418
      4 C          -0.6644    2.0671   20.5683 C.3     1  UNL1        0.1002
      5 N          -1.4464    3.3091   20.2584 N.3     1  UNL1       -0.1549
      6 C          -0.9040    4.3136   19.2853 C.3     1  UNL1        0.1002
      7 C           0.4203    4.0761   18.6221 C.3     1  UNL1        0.0418
      8 S          -2.7707    3.5466   20.9215 S.O2    1  UNL1        0.0633
      9 O          -3.4390    3.5687   19.5789 O.2     1  UNL1       -0.1528
     10 O          -2.1023    3.5245   22.2642 O.2     1  UNL1       -0.1528
     11 C          -4.0949    3.7840   21.5847 C.ar    1  UNL1        0.1222
     12 C          -4.2431    3.5699   23.0619 C.ar    1  UNL1        0.0206
     13 C          -5.5675    3.8074   23.7251 C.ar    1  UNL1        0.0116
     14 C          -6.7436    4.2590   22.9110 C.ar    1  UNL1        0.0685
     15 C          -6.5954    4.4731   21.4338 C.ar    1  UNL1        0.0116
     16 C          -5.2712    4.2357   20.7706 C.ar    1  UNL1        0.0206
     17 C          -8.0680    4.4964   23.5742 C.1     1  UNL1        0.1004
     18 N          -9.3923    4.7340   24.2373 N.1     1  UNL1       -0.1908
     19 C           4.0906    0.1128   18.8887 C.1     1  UNL1       -0.0405
     20 C           3.3086    1.3547   18.5788 C.1     1  UNL1       -0.0583
     21 C           4.5344   -5.0637   18.8044 C.3     1  UNL1        0.0521
     22 C           5.0945   -3.7175   19.1564 C.ar    1  UNL1        0.0600
     23 C           6.4365   -3.6132   19.8182 C.ar    1  UNL1        0.0148
     24 C           6.9965   -2.2669   20.1702 C.ar    1  UNL1        0.0034
     25 C           6.2146   -1.0249   19.8604 C.ar    1  UNL1        0.0276
     26 C           4.8726   -1.1292   19.1985 C.ar    1  UNL1        0.1224
     27 N           4.3125   -2.4755   18.8465 N.ar    1  UNL1       -0.2414
@<TRIPOS>BOND
     1    21    22    1
     2    22    23   ar
     3    23    24   ar
     4    24    25   ar
     5    25    26   ar
     6    26    19    1
     7    19    20    3
     8    20     1    1
     9     1     2    2
    10     2     3    1
    11     3     4    1
    12     4     5    1
    13     5     8    1
    14     8     9    2
    15     8    10    2
    16     8    11    1
    17    11    12   ar
    18    12    13   ar
    19    13    14   ar
    20    14    17    1
    21    17    18    3
    22    14    15   ar
    23    15    16   ar
    24     5     6    1
    25     6     7    1
    26    26    27   ar
    27    27    22   ar
    28     7     2    1
    29    16    11   ar
@<TRIPOS>MOLECULE
*****
 27 29 0 0 0
SMALL
GASTEIGER

@<TRIPOS>ATOM
      1 C          -1.0050    2.6094   27.1941 C.2     1  UNL1        0.0412
      2 C          -0.1251    2.0678   26.1068 C.2     1  UNL1       -0.0331
      3 C          -0.5438    2.1914   24.6717 C.3     1  UNL1        0.0418
      4 C           0.3362    1.6498   23.5844 C.3     1  UNL1        0.1002
      5 N           1.6350    0.9846   23.9321 N.3     1  UNL1       -0.1549
      6 C           2.0537    0.8611   25.3671 C.3     1  UNL1        0.1002
      7 C           1.1736    1.4027   26.4545 C.3     1  UNL1        0.0418
      8 S           2.5149    0.4431   22.8448 S.O2    1  UNL1        0.0633
      9 O           2.8818   -0.7184   23.7202 O.2     1  UNL1       -0.1528
     10 O           2.1481    1.6045   21.9694 O.2     1  UNL1       -0.1528
     11 C           3.3949   -0.0985   21.7574 C.ar    1  UNL1        0.1222
     12 C           4.8074    0.3883   21.6235 C.ar    1  UNL1        0.0206
     13 C           5.6874   -0.1534   20.5361 C.ar    1  UNL1        0.0116
     14 C           5.1549   -1.1817   19.5827 C.ar    1  UNL1        0.0685
     15 C           3.7424   -1.6684   19.7167 C.ar    1  UNL1        0.0116
     16 C           2.8624   -1.1268   20.8040 C.ar    1  UNL1        0.0206
     17 C           6.0349   -1.7233   18.4953 C.1     1  UNL1        0.1004
     18 N           6.9148   -2.2648   17.4080 N.1     1  UNL1       -0.1908
     19 C          -3.6025    3.9396   26.4987 C.1     1  UNL1       -0.0405
     20 C          -2.3038    3.2745   26.8464 C.1     1  UNL1       -0.0583
     21 C          -7.6589    4.4949   23.2990 C.3     1  UNL1        0.0521
     22 C          -6.9294    4.8824   24.5511 C.ar    1  UNL1        0.0600
     23 C          -7.4987    5.9350   25.4555 C.ar    1  UNL1        0.0148
     24 C          -6.7692    6.3225   26.7076 C.ar    1  UNL1        0.0034
     25 C          -5.4705    5.6574   27.0553 C.ar    1  UNL1        0.0276
     26 C          -4.9013    4.6048   26.1510 C.ar    1  UNL1        0.1224
     27 N          -5.6307    4.2173   24.8989 N.ar    1  UNL1       -0.2414
@<TRIPOS>BOND
     1    21    22    1
     2    22    23   ar
     3    23    24   ar
     4    24    25   ar
     5    25    26   ar
     6    26    19    1
     7    19    20    3
     8    20     1    1
     9     1     2    2
    10     2     3    1
    11     3     4    1
    12     4     5    1
    13     5     8    1
    14     8     9    2
    15     8    10    2
    16     8    11    1
    17    11    12   ar
    18    12    13   ar
    19    13    14   ar
    20    14    17    1
    21    17    18    3
    22    14    15   ar
    23    15    16   ar
    24     5     6    1
    25     6     7    1
    26    26    27   ar
    27    27    22   ar
    28     7     2    1
    29    16    11   ar
@<TRIPOS>MOLECULE
*****
 27 29 0 0 0
SMALL
GASTEIGER

@<TRIPOS>ATOM
      1 C           7.5658   -5.0885   23.8507 C.2     1  UNL1        0.0412
      2 C           6.6483   -4.1425   23.1345 C.2     1  UNL1       -0.0331
      3 C           5.7214   -3.2600   23.9168 C.3     1  UNL1        0.0418
      4 C           4.8038   -2.3140   23.2006 C.3     1  UNL1        0.1002
      5 N           4.8130   -2.2505   21.7019 N.3     1  UNL1       -0.1549
      6 C           5.7399   -3.1330   20.9196 C.3     1  UNL1        0.1002
      7 C           6.6575   -4.0791   21.6359 C.3     1  UNL1        0.0418
      8 S           3.8955   -1.3045   20.9857 S.O2    1  UNL1        0.0633
      9 O           2.9970   -1.2670   22.1862 O.2     1  UNL1       -0.1528
     10 O           4.7939   -1.3420   19.7851 O.2     1  UNL1       -0.1528
     11 C           2.9779   -0.3585   20.2694 C.ar    1  UNL1        0.1222
     12 C           1.4941   -0.4613   20.4638 C.ar    1  UNL1        0.0206
     13 C           0.5765    0.4848   19.7475 C.ar    1  UNL1        0.0116
     14 C           1.1427    1.5336   18.8369 C.ar    1  UNL1        0.0685
     15 C           2.6265    1.6365   18.6425 C.ar    1  UNL1        0.0116
     16 C           3.5441    0.6904   19.3587 C.ar    1  UNL1        0.0206
     17 C           0.2251    2.4797   18.1206 C.1     1  UNL1        0.1004
     18 N          -0.6925    3.4257   17.4043 N.1     1  UNL1       -0.1908
     19 C           7.5473   -5.2156   26.8480 C.1     1  UNL1       -0.0405
     20 C           7.5566   -5.1521   25.3494 C.1     1  UNL1       -0.0583
     21 C           6.1898   -3.1757   31.4302 C.3     1  UNL1        0.0521
     22 C           6.8593   -4.2592   30.6377 C.ar    1  UNL1        0.0600
     23 C           7.5195   -5.4061   31.3439 C.ar    1  UNL1        0.0148
     24 C           8.1890   -6.4895   30.5514 C.ar    1  UNL1        0.0034
     25 C           8.1982   -6.4260   29.0528 C.ar    1  UNL1        0.0276
     26 C           7.5380   -5.2791   28.3467 C.ar    1  UNL1        0.1224
     27 N           6.8685   -4.1957   29.1392 N.ar    1  UNL1       -0.2414
@<TRIPOS>BOND
     1    21    22    1
     2    22    23   ar
     3    23    24   ar
     4    24    25   ar
     5    25    26   ar
     6    26    19    1
     7    19    20    3
     8    20     1    1
     9     1     2    2
    10     2     3    1
    11     3     4    1
    12     4     5    1
    13     5     8    1
    14     8     9    2
    15     8    10    2
    16     8    11    1
    17    11    12   ar
    18    12    13   ar
    19    13    14   ar
    20    14    17    1
    21    17    18    3
    22    14    15   ar
    23    15    16   ar
    24     5     6    1
    25     6     7    1
    26    26    27   ar
    27    27    22   ar
    28     7     2    1
    29    16    11   ar
@<TRIPOS>MOLECULE
*****
 27 29 0 0 0
SMALL
GASTEIGER

@<TRIPOS>ATOM
      1 C           0.1217    2.0772   28.8021 C.2     1  UNL1        0.0412
      2 C           0.5490    1.7325   27.4062 C.2     1  UNL1       -0.0331
      3 C           1.8300    0.9866   27.1767 C.3     1  UNL1        0.0418
      4 C           2.2574    0.6419   25.7808 C.3     1  UNL1        0.1002
      5 N           1.4037    1.0430   24.6144 N.3     1  UNL1       -0.1549
      6 C           0.1227    1.7888   24.8440 C.3     1  UNL1        0.1002
      7 C          -0.3047    2.1336   26.2399 C.3     1  UNL1        0.0418
      8 S           1.8310    0.6982   23.2185 S.O2    1  UNL1        0.0633
      9 O           0.9391    1.7768   22.6791 O.2     1  UNL1       -0.1528
     10 O           2.7230   -0.3804   23.7580 O.2     1  UNL1       -0.1528
     11 C           2.2584    0.3534   21.8227 C.ar    1  UNL1        0.1222
     12 C           2.1630    1.3807   20.7338 C.ar    1  UNL1        0.0206
     13 C           2.5904    1.0359   19.3379 C.ar    1  UNL1        0.0116
     14 C           3.1131   -0.3362   19.0309 C.ar    1  UNL1        0.0685
     15 C           3.2085   -1.3634   20.1198 C.ar    1  UNL1        0.0116
     16 C           2.7811   -1.0187   21.5156 C.ar    1  UNL1        0.0206
     17 C           3.5405   -0.6810   17.6350 C.1     1  UNL1        0.1004
     18 N           3.9679   -1.0258   16.2392 N.1     1  UNL1       -0.1908
     19 C           1.8290    1.2751   31.1348 C.1     1  UNL1       -0.0405
     20 C           0.9754    1.6761   29.9685 C.1     1  UNL1       -0.0583
     21 C           4.7793   -2.2563   33.5483 C.3     1  UNL1        0.0521
     22 C           4.1578   -0.8917   33.5079 C.ar    1  UNL1        0.0600
     23 C           4.3900    0.0717   34.6339 C.ar    1  UNL1        0.0148
     24 C           3.7685    1.4363   34.5935 C.ar    1  UNL1        0.0034
     25 C           2.9148    1.8374   33.4271 C.ar    1  UNL1        0.0276
     26 C           2.6827    0.8740   32.3012 C.ar    1  UNL1        0.1224
     27 N           3.3042   -0.4906   32.3416 N.ar    1  UNL1       -0.2414
@<TRIPOS>BOND
     1    21    22    1
     2    22    23   ar
     3    23    24   ar
     4    24    25   ar
     5    25    26   ar
     6    26    19    1
     7    19    20    3
     8    20     1    1
     9     1     2    2
    10     2     3    1
    11     3     4    1
    12     4     5    1
    13     5     8    1
    14     8     9    2
    15     8    10    2
    16     8    11    1
    17    11    12   ar
    18    12    13   ar
    19    13    14   ar
    20    14    17    1
    21    17    18    3
    22    14    15   ar
    23    15    16   ar
    24     5     6    1
    25     6     7    1
    26    26    27   ar
    27    27    22   ar
    28     7     2    1
    29    16    11   ar
@<TRIPOS>MOLECULE
*****
 27 29 0 0 0
SMALL
GASTEIGER

@<TRIPOS>ATOM
      1 C          -0.5057    1.9807   25.0200 C.2     1  UNL1        0.0412
      2 C           0.1768    1.7067   26.3273 C.2     1  UNL1       -0.0331
      3 C           1.5052    1.0104   26.3483 C.3     1  UNL1        0.0418
      4 C           2.1877    0.7364   27.6556 C.3     1  UNL1        0.1002
      5 N           1.5418    1.1588   28.9420 N.3     1  UNL1       -0.1549
      6 C           0.2134    1.8551   28.9209 C.3     1  UNL1        0.1002
      7 C          -0.4691    2.1291   27.6135 C.3     1  UNL1        0.0418
      8 S           2.2243    0.8848   30.2492 S.O2    1  UNL1        0.0633
      9 O           2.8058    2.2674   30.2354 O.2     1  UNL1       -0.1528
     10 O           1.6428   -0.4978   30.2631 O.2     1  UNL1       -0.1528
     11 C           2.9068    0.6108   31.5565 C.ar    1  UNL1        0.1222
     12 C           2.9285    1.6622   32.6261 C.ar    1  UNL1        0.0206
     13 C           3.6110    1.3881   33.9335 C.ar    1  UNL1        0.0116
     14 C           4.2718    0.0627   34.1712 C.ar    1  UNL1        0.0685
     15 C           4.2501   -0.9887   33.1016 C.ar    1  UNL1        0.0116
     16 C           3.5676   -0.7147   31.7943 C.ar    1  UNL1        0.0206
     17 C           4.9544   -0.2113   35.4786 C.1     1  UNL1        0.1004
     18 N           5.6369   -0.4854   36.7858 N.1     1  UNL1       -0.1908
     19 C           0.7861    1.1360   22.4474 C.1     1  UNL1       -0.0405
     20 C           0.1402    1.5584   23.7336 C.1     1  UNL1       -0.0583
     21 C           3.3476   -2.4176   19.6527 C.3     1  UNL1        0.0521
     22 C           2.7128   -1.0631   19.7638 C.ar    1  UNL1        0.0600
     23 C           2.7238   -0.1310   18.5887 C.ar    1  UNL1        0.0148
     24 C           2.0890    1.2235   18.6998 C.ar    1  UNL1        0.0034
     25 C           1.4431    1.6459   19.9860 C.ar    1  UNL1        0.0276
     26 C           1.4321    0.7137   21.1611 C.ar    1  UNL1        0.1224
     27 N           2.0669   -0.6408   21.0500 N.ar    1  UNL1       -0.2414
@<TRIPOS>BOND
     1    21    22    1
     2    22    23   ar
     3    23    24   ar
     4    24    25   ar
     5    25    26   ar
     6    26    19    1
     7    19    20    3
     8    20     1    1
     9     1     2    2
    10     2     3    1
    11     3     4    1
    12     4     5    1
    13     5     8    1
    14     8     9    2
    15     8    10    2
    16     8    11    1
    17    11    12   ar
    18    12    13   ar
    19    13    14   ar
    20    14    17    1
    21    17    18    3
    22    14    15   ar
    23    15    16   ar
    24     5     6    1
    25     6     7    1
    26    26    27   ar
    27    27    22   ar
    28     7     2    1
    29    16    11   ar
@<TRIPOS>MOLECULE
*****
 27 29 0 0 0
SMALL
GASTEIGER

@<TRIPOS>ATOM
      1 C          -0.4728    2.0013   25.4651 C.2     1  UNL1        0.0412
      2 C           0.2696    1.7213   26.7381 C.2     1  UNL1       -0.0331
      3 C          -0.2923    2.1812   28.0506 C.3     1  UNL1        0.0418
      4 C           0.4500    1.9012   29.3236 C.3     1  UNL1        0.1002
      5 N           1.7544    1.1614   29.2840 N.3     1  UNL1       -0.1549
      6 C           2.3162    0.7016   27.9715 C.3     1  UNL1        0.1002
      7 C           1.5738    0.9815   26.6985 C.3     1  UNL1        0.0418
      8 S           2.4967    0.8815   30.5570 S.O2    1  UNL1        0.0633
      9 O           1.2753    1.2433   31.3489 O.2     1  UNL1       -0.1528
     10 O           3.7182    0.5197   29.7651 O.2     1  UNL1       -0.1528
     11 C           3.2391    0.6015   31.8300 C.ar    1  UNL1        0.1222
     12 C           4.2643   -0.4925   31.8753 C.ar    1  UNL1        0.0206
     13 C           5.0067   -0.7724   33.1483 C.ar    1  UNL1        0.0116
     14 C           4.7238    0.0417   34.3760 C.ar    1  UNL1        0.0685
     15 C           3.6986    1.1357   34.3307 C.ar    1  UNL1        0.0116
     16 C           2.9562    1.4156   33.0577 C.ar    1  UNL1        0.0206
     17 C           5.4662   -0.2382   35.6490 C.1     1  UNL1        0.1004
     18 N           6.2086   -0.5181   36.9220 N.1     1  UNL1       -0.1908
     19 C          -3.0814    3.4808   25.5443 C.1     1  UNL1       -0.0405
     20 C          -1.7771    2.7411   25.5047 C.1     1  UNL1       -0.0583
     21 C          -7.6824    4.6074   23.4085 C.3     1  UNL1        0.0521
     22 C          -6.6862    4.7839   24.5159 C.ar    1  UNL1        0.0600
     23 C          -6.9942    5.7002   25.6629 C.ar    1  UNL1        0.0148
     24 C          -5.9980    5.8767   26.7703 C.ar    1  UNL1        0.0034
     25 C          -4.6937    5.1370   26.7307 C.ar    1  UNL1        0.0276
     26 C          -4.3857    4.2207   25.5838 C.ar    1  UNL1        0.1224
     27 N          -5.3819    4.0441   24.4764 N.ar    1  UNL1       -0.2414
@<TRIPOS>BOND
     1    21    22    1
     2    22    23   ar
     3    23    24   ar
     4    24    25   ar
     5    25    26   ar
     6    26    19    1
     7    19    20    3
     8    20     1    1
     9     1     2    2
    10     2     3    1
    11     3     4    1
    12     4     5    1
    13     5     8    1
    14     8     9    2
    15     8    10    2
    16     8    11    1
    17    11    12   ar
    18    12    13   ar
    19    13    14   ar
    20    14    17    1
    21    17    18    3
    22    14    15   ar
    23    15    16   ar
    24     5     6    1
    25     6     7    1
    26    26    27   ar
    27    27    22   ar
    28     7     2    1
    29    16    11   ar
@<TRIPOS>MOLECULE
*****
 27 29 0 0 0
SMALL
GASTEIGER

@<TRIPOS>ATOM
      1 C           0.6551    0.7833   28.0525 C.2     1  UNL1        0.0412
      2 C           1.0501    1.1370   29.4556 C.2     1  UNL1       -0.0331
      3 C           0.4295    2.3225   30.1333 C.3     1  UNL1        0.0418
      4 C           0.8246    2.6762   31.5364 C.3     1  UNL1        0.1002
      5 N           1.8404    1.8444   32.2619 N.3     1  UNL1       -0.1549
      6 C           2.4610    0.6589   31.5842 C.3     1  UNL1        0.1002
      7 C           2.0659    0.3052   30.1810 C.3     1  UNL1        0.0418
      8 S           2.2355    2.1981   33.6650 S.O2    1  UNL1        0.0633
      9 O           1.3169    3.3832   33.6249 O.2     1  UNL1       -0.1528
     10 O           3.1541    1.0130   33.7051 O.2     1  UNL1       -0.1528
     11 C           2.6305    2.5518   35.0681 C.ar    1  UNL1        0.1222
     12 C           3.6310    1.7080   35.8009 C.ar    1  UNL1        0.0206
     13 C           4.0261    2.0618   37.2041 C.ar    1  UNL1        0.0116
     14 C           3.4207    3.2593   37.8744 C.ar    1  UNL1        0.0685
     15 C           2.4202    4.1031   37.1416 C.ar    1  UNL1        0.0116
     16 C           2.0251    3.7494   35.7385 C.ar    1  UNL1        0.0206
     17 C           3.8158    3.6131   39.2776 C.1     1  UNL1        0.1004
     18 N           4.2109    3.9668   40.6806 N.1     1  UNL1       -0.1908
     19 C          -1.3765    2.4470   26.6016 C.1     1  UNL1       -0.0405
     20 C          -0.3607    1.6151   27.3270 C.1     1  UNL1       -0.0583
     21 C          -5.6496    5.4026   26.6693 C.3     1  UNL1        0.0521
     22 C          -4.5288    4.7566   25.9100 C.ar    1  UNL1        0.0600
     23 C          -4.4238    4.9424   24.4253 C.ar    1  UNL1        0.0148
     24 C          -3.3030    4.2964   23.6660 C.ar    1  UNL1        0.0034
     25 C          -2.2873    3.4646   24.3914 C.ar    1  UNL1        0.0276
     26 C          -2.3923    3.2788   25.8761 C.ar    1  UNL1        0.1224
     27 N          -3.5131    3.9248   26.6354 N.ar    1  UNL1       -0.2414
@<TRIPOS>BOND
     1    21    22    1
     2    22    23   ar
     3    23    24   ar
     4    24    25   ar
     5    25    26   ar
     6    26    19    1
     7    19    20    3
     8    20     1    1
     9     1     2    2
    10     2     3    1
    11     3     4    1
    12     4     5    1
    13     5     8    1
    14     8     9    2
    15     8    10    2
    16     8    11    1
    17    11    12   ar
    18    12    13   ar
    19    13    14   ar
    20    14    17    1
    21    17    18    3
    22    14    15   ar
    23    15    16   ar
    24     5     6    1
    25     6     7    1
    26    26    27   ar
    27    27    22   ar
    28     7     2    1
    29    16    11   ar
