@<TRIPOS>MOLECULE
*****
 32 34 0 0 0
SMALL
GASTEIGER

@<TRIPOS>ATOM
      1 C         -12.7624  -18.4797   24.0154 C.3     1  UNL1        0.1261
      2 C         -13.2133  -18.5144   25.4457 C.3     1  UNL1        0.0290
      3 N         -11.5201  -18.8937   24.7471 N.am    1  UNL1       -0.2963
      4 C         -10.1623  -19.1979   24.1869 C.2     1  UNL1        0.2474
      5 O          -9.1172  -19.5884   25.1894 O.2     1  UNL1       -0.2701
      6 C          -9.7114  -19.1632   22.7567 C.ar    1  UNL1        0.0690
      7 C          -8.2648  -19.5384   22.6289 C.ar    1  UNL1        0.0260
      8 C          -7.6137  -19.5662   21.2779 C.ar    1  UNL1        0.1262
      9 C          -8.4093  -19.2187   20.0546 C.ar    1  UNL1        0.0328
     10 C          -9.8559  -18.8435   20.1824 C.ar    1  UNL1        0.0726
     11 CL        -10.6515  -18.4960   18.9592 Cl      1  UNL1       -0.0809
     12 C         -10.5070  -18.8157   21.5334 C.ar    1  UNL1        0.0655
     13 N         -11.9500  -18.4171   21.4383 N.am    1  UNL1       -0.2819
     14 C         -12.9538  -18.2676   22.5429 C.2     1  UNL1        0.2420
     15 O         -14.3308  -17.8509   22.1189 O.2     1  UNL1       -0.2731
     16 H         -11.6075  -18.9768   25.7242 H       1  UNL1        0.1501
     17 H         -12.2821  -18.2288   20.5309 H       1  UNL1        0.1549
     18 S          -6.1670  -19.9414   21.1500 S.O2    1  UNL1        0.0737
     19 O          -6.0059  -18.9429   20.0424 O.2     1  UNL1       -0.1499
     20 O          -6.3281  -20.9400   22.2576 O.2     1  UNL1       -0.1499
     21 N          -4.7203  -20.3166   21.0221 N.pl3   1  UNL1       -0.2128
     22 H          -4.4552  -21.2647   21.0298 H       1  UNL1        0.1738
     23 C          -3.6776  -19.2473   20.8827 C.ar    1  UNL1        0.0923
     24 C          -2.9900  -19.0375   19.5663 C.ar    1  UNL1        0.0204
     25 C          -1.9473  -17.9682   19.4268 C.ar    1  UNL1        0.0311
     26 C          -1.5924  -17.1087   20.6038 C.ar    1  UNL1        0.1425
     27 F          -0.5497  -16.0394   20.4644 F       1  UNL1       -0.2041
     28 C          -2.2801  -17.3185   21.9203 C.ar    1  UNL1        0.0606
     29 C          -3.3227  -18.3878   22.0597 C.ar    1  UNL1        0.1568
     30 F          -4.0104  -18.5977   23.3762 F       1  UNL1       -0.2027
     31 C         -15.1622  -18.4621   25.0110 C.3     1  UNL1        0.0022
     32 C         -14.2054  -18.0811   23.9204 C.3     1  UNL1        0.0269
@<TRIPOS>BOND
     1    31    32    1
     2    32     1    1
     3     1     2    1
     4     1     3    1
     5     3     4   am
     6     4     5    2
     7     4     6    1
     8     6     7   ar
     9     7     8   ar
    10     8    18    1
    11    18    19    2
    12    18    20    2
    13    18    21    1
    14    21    23    1
    15    23    24   ar
    16    24    25   ar
    17    25    26   ar
    18    26    27    1
    19    26    28   ar
    20    28    29   ar
    21    29    30    1
    22     8     9   ar
    23     9    10   ar
    24    10    11    1
    25    10    12   ar
    26    12    13    1
    27    13    14   am
    28    14    15    2
    29    14     1    1
    30    12     6   ar
    31    29    23   ar
    32     3    16    1
    33    21    22    1
    34    13    17    1
@<TRIPOS>MOLECULE
*****
 32 34 0 0 0
SMALL
GASTEIGER

@<TRIPOS>ATOM
      1 C         -11.4518   -5.2562   18.9669 C.3     1  UNL1        0.1261
      2 C          -9.9620   -5.1536   18.8249 C.3     1  UNL1        0.0290
      3 N         -11.2143   -3.7756   19.0031 N.am    1  UNL1       -0.2963
      4 C         -12.2186   -2.6706   19.1459 C.2     1  UNL1        0.2474
      5 O         -11.6591   -1.2788   19.1469 O.2     1  UNL1       -0.2701
      6 C         -13.7083   -2.7732   19.2879 C.ar    1  UNL1        0.0690
      7 C         -14.3423   -1.4189   19.4045 C.ar    1  UNL1        0.0260
      8 C         -15.8298   -1.2976   19.5552 C.ar    1  UNL1        0.1262
      9 C         -16.6832   -2.5307   19.5894 C.ar    1  UNL1        0.0328
     10 C         -16.0492   -3.8850   19.4729 C.ar    1  UNL1        0.0726
     11 CL        -16.9026   -5.1181   19.5071 Cl      1  UNL1       -0.0809
     12 C         -14.5617   -4.0063   19.3221 C.ar    1  UNL1        0.0655
     13 N         -14.1361   -5.4413   19.2228 N.am    1  UNL1       -0.2819
     14 C         -12.7521   -5.9976   19.0647 C.2     1  UNL1        0.2420
     15 O         -12.6557   -7.4928   18.9952 O.2     1  UNL1       -0.2731
     16 H         -10.2751   -3.4915   18.9224 H       1  UNL1        0.1501
     17 H         -14.8611   -6.1059   19.2672 H       1  UNL1        0.1549
     18 S         -16.4639    0.0569   19.6718 S.O2    1  UNL1        0.0737
     19 O         -15.1909    0.6935   19.1983 O.2     1  UNL1       -0.1499
     20 O         -17.7368   -0.5798   20.1453 O.2     1  UNL1       -0.1499
     21 N         -17.0979    1.4112   19.7883 N.pl3   1  UNL1       -0.2128
     22 H         -17.6820    1.7448   19.0694 H       1  UNL1        0.1738
     23 C         -16.8420    2.2574   21.0003 C.ar    1  UNL1        0.0923
     24 C         -17.4490    1.8813   22.3193 C.ar    1  UNL1        0.0204
     25 C         -17.1932    2.7274   23.5311 C.ar    1  UNL1        0.0311
     26 C         -16.3303    3.9497   23.4239 C.ar    1  UNL1        0.1425
     27 F         -16.0744    4.7958   24.6358 F       1  UNL1       -0.2041
     28 C         -15.7233    4.3258   22.1048 C.ar    1  UNL1        0.0606
     29 C         -15.9791    3.4796   20.8930 C.ar    1  UNL1        0.1568
     30 F         -15.3721    3.8557   19.5738 F       1  UNL1       -0.2027
     31 C          -9.5743   -7.0521   18.9758 C.3     1  UNL1        0.0022
     32 C         -11.0262   -6.6912   18.8676 C.3     1  UNL1        0.0269
@<TRIPOS>BOND
     1    31    32    1
     2    32     1    1
     3     1     2    1
     4     1     3    1
     5     3     4   am
     6     4     5    2
     7     4     6    1
     8     6     7   ar
     9     7     8   ar
    10     8    18    1
    11    18    19    2
    12    18    20    2
    13    18    21    1
    14    21    23    1
    15    23    24   ar
    16    24    25   ar
    17    25    26   ar
    18    26    27    1
    19    26    28   ar
    20    28    29   ar
    21    29    30    1
    22     8     9   ar
    23     9    10   ar
    24    10    11    1
    25    10    12   ar
    26    12    13    1
    27    13    14   am
    28    14    15    2
    29    14     1    1
    30    12     6   ar
    31    29    23   ar
    32     3    16    1
    33    21    22    1
    34    13    17    1
@<TRIPOS>MOLECULE
*****
 32 34 0 0 0
SMALL
GASTEIGER

@<TRIPOS>ATOM
      1 C           3.8318   -2.9769   20.2285 C.3     1  UNL1        0.1261
      2 C           3.6869   -3.3758   18.7898 C.3     1  UNL1        0.0290
      3 N           2.8215   -1.9966   19.7104 N.am    1  UNL1       -0.2963
      4 C           2.1276   -0.8906   20.4488 C.2     1  UNL1        0.2474
      5 O           1.1609   -0.0756   19.6417 O.2     1  UNL1       -0.2701
      6 C           2.2725   -0.4916   21.8875 C.ar    1  UNL1        0.0690
      7 C           1.3916    0.6748   22.2242 C.ar    1  UNL1        0.0260
      8 C           1.3854    1.2326   23.6166 C.ar    1  UNL1        0.1262
      9 C           2.2601    0.6240   24.6723 C.ar    1  UNL1        0.0328
     10 C           3.1409   -0.5425   24.3356 C.ar    1  UNL1        0.0726
     11 CL          4.0156   -1.1511   25.3913 Cl      1  UNL1       -0.0809
     12 C           3.1471   -1.1003   22.9432 C.ar    1  UNL1        0.0655
     13 N           4.0929   -2.2581   22.8209 N.am    1  UNL1       -0.2819
     14 C           4.3977   -3.0933   21.6128 C.2     1  UNL1        0.2420
     15 O           5.4008   -4.1899   21.8158 O.2     1  UNL1       -0.2731
     16 H           2.5823   -2.0916   18.7602 H       1  UNL1        0.1501
     17 H           4.5778   -2.5022   23.6422 H       1  UNL1        0.1549
     18 S           0.5045    2.3992   23.9533 S.O2    1  UNL1        0.0737
     19 O          -0.2208    1.5599   24.9630 O.2     1  UNL1       -0.1499
     20 O           1.2298    3.2384   22.9435 O.2     1  UNL1       -0.1499
     21 N          -0.3764    3.5656   24.2900 N.pl3   1  UNL1       -0.2128
     22 H          -0.0050    4.3402   24.7710 H       1  UNL1        0.1738
     23 C          -1.8231    3.5519   23.8939 C.ar    1  UNL1        0.0923
     24 C          -2.2034    3.5482   22.4429 C.ar    1  UNL1        0.0204
     25 C          -3.6500    3.5345   22.0468 C.ar    1  UNL1        0.0311
     26 C          -4.7164    3.5246   23.1017 C.ar    1  UNL1        0.1425
     27 F          -6.1631    3.5109   22.7055 F       1  UNL1       -0.2041
     28 C          -4.3361    3.5283   24.5526 C.ar    1  UNL1        0.0606
     29 C          -2.8895    3.5420   24.9487 C.ar    1  UNL1        0.1568
     30 F          -2.5091    3.5457   26.3997 F       1  UNL1       -0.2027
     31 C           4.6851   -5.0575   18.9272 C.3     1  UNL1        0.0022
     32 C           4.7776   -4.1347   20.1062 C.3     1  UNL1        0.0269
@<TRIPOS>BOND
     1    31    32    1
     2    32     1    1
     3     1     2    1
     4     1     3    1
     5     3     4   am
     6     4     5    2
     7     4     6    1
     8     6     7   ar
     9     7     8   ar
    10     8    18    1
    11    18    19    2
    12    18    20    2
    13    18    21    1
    14    21    23    1
    15    23    24   ar
    16    24    25   ar
    17    25    26   ar
    18    26    27    1
    19    26    28   ar
    20    28    29   ar
    21    29    30    1
    22     8     9   ar
    23     9    10   ar
    24    10    11    1
    25    10    12   ar
    26    12    13    1
    27    13    14   am
    28    14    15    2
    29    14     1    1
    30    12     6   ar
    31    29    23   ar
    32     3    16    1
    33    21    22    1
    34    13    17    1
@<TRIPOS>MOLECULE
*****
 32 34 0 0 0
SMALL
GASTEIGER

@<TRIPOS>ATOM
      1 C           6.7811   -3.8491   29.8841 C.3     1  UNL1        0.1261
      2 C           6.5602   -2.6131   30.7047 C.3     1  UNL1        0.0290
      3 N           6.8354   -2.7545   28.8600 N.am    1  UNL1       -0.2963
      4 C           7.0561   -2.8681   27.3807 C.2     1  UNL1        0.2474
      5 O           7.0558   -1.5744   26.6214 O.2     1  UNL1       -0.2701
      6 C           7.2771   -4.1042   26.5601 C.ar    1  UNL1        0.0690
      7 C           7.4566   -3.7733   25.1081 C.ar    1  UNL1        0.0260
      8 C           7.6909   -4.8703   24.1123 C.ar    1  UNL1        0.1262
      9 C           7.7457   -6.2982   24.5685 C.ar    1  UNL1        0.0328
     10 C           7.5662   -6.6291   26.0205 C.ar    1  UNL1        0.0726
     11 CL          7.6210   -8.0570   26.4766 Cl      1  UNL1       -0.0809
     12 C           7.3319   -5.5321   27.0163 C.ar    1  UNL1        0.0655
     13 N           7.1793   -6.0765   28.4057 N.am    1  UNL1       -0.2819
     14 C           6.9342   -5.3276   29.6820 C.2     1  UNL1        0.2420
     15 O           6.8281   -6.1682   30.9197 O.2     1  UNL1       -0.2731
     16 H           6.7095   -1.8408   29.2042 H       1  UNL1        0.1501
     17 H           7.2493   -7.0548   28.4911 H       1  UNL1        0.1549
     18 S           7.8704   -4.5394   22.6603 S.O2    1  UNL1        0.0737
     19 O           7.7164   -3.0806   22.9737 O.2     1  UNL1       -0.1499
     20 O           8.0243   -5.9982   22.3469 O.2     1  UNL1       -0.1499
     21 N           8.0498   -4.2085   21.2083 N.pl3   1  UNL1       -0.2128
     22 H           8.9008   -4.4144   20.7581 H       1  UNL1        0.1738
     23 C           6.9328   -3.5639   20.4423 C.ar    1  UNL1        0.0923
     24 C           5.5073   -3.8643   20.7996 C.ar    1  UNL1        0.0204
     25 C           4.3903   -3.2197   20.0336 C.ar    1  UNL1        0.0311
     26 C           4.6988   -2.2746   18.9103 C.ar    1  UNL1        0.1425
     27 F           3.5817   -1.6300   18.1443 F       1  UNL1       -0.2041
     28 C           6.1243   -1.9742   18.5531 C.ar    1  UNL1        0.0606
     29 C           7.2413   -2.6188   19.3191 C.ar    1  UNL1        0.1568
     30 F           8.6668   -2.3184   18.9618 F       1  UNL1       -0.2027
     31 C           6.2800   -3.4733   32.4056 C.3     1  UNL1        0.0022
     32 C           6.6285   -4.3936   31.2735 C.3     1  UNL1        0.0269
@<TRIPOS>BOND
     1    31    32    1
     2    32     1    1
     3     1     2    1
     4     1     3    1
     5     3     4   am
     6     4     5    2
     7     4     6    1
     8     6     7   ar
     9     7     8   ar
    10     8    18    1
    11    18    19    2
    12    18    20    2
    13    18    21    1
    14    21    23    1
    15    23    24   ar
    16    24    25   ar
    17    25    26   ar
    18    26    27    1
    19    26    28   ar
    20    28    29   ar
    21    29    30    1
    22     8     9   ar
    23     9    10   ar
    24    10    11    1
    25    10    12   ar
    26    12    13    1
    27    13    14   am
    28    14    15    2
    29    14     1    1
    30    12     6   ar
    31    29    23   ar
    32     3    16    1
    33    21    22    1
    34    13    17    1
@<TRIPOS>MOLECULE
*****
 32 34 0 0 0
SMALL
GASTEIGER

@<TRIPOS>ATOM
      1 C           7.3018   -6.0641   27.2671 C.3     1  UNL1        0.1261
      2 C           7.8048   -7.4771   27.2542 C.3     1  UNL1        0.0290
      3 N           7.3899   -6.4003   28.7263 N.am    1  UNL1       -0.2963
      4 C           7.0571   -5.5366   29.9066 C.2     1  UNL1        0.2474
      5 O           7.2533   -6.1697   31.2523 O.2     1  UNL1       -0.2701
      6 C           6.5540   -4.1235   29.9195 C.ar    1  UNL1        0.0690
      7 C           6.3475   -3.6280   31.3201 C.ar    1  UNL1        0.0260
      8 C           5.8464   -2.2340   31.5562 C.ar    1  UNL1        0.1262
      9 C           5.5518   -1.3356   30.3917 C.ar    1  UNL1        0.0328
     10 C           5.7584   -1.8311   28.9911 C.ar    1  UNL1        0.0726
     11 CL          5.4639   -0.9327   27.8266 Cl      1  UNL1       -0.0809
     12 C           6.2595   -3.2250   28.7550 C.ar    1  UNL1        0.0655
     13 N           6.3953   -3.5178   27.2901 N.am    1  UNL1       -0.2819
     14 C           6.8591   -4.7813   26.6279 C.2     1  UNL1        0.2420
     15 O           6.8836   -4.7590   25.1283 O.2     1  UNL1       -0.2731
     16 H           7.7082   -7.3077   28.9371 H       1  UNL1        0.1501
     17 H           6.1471   -2.7836   26.6830 H       1  UNL1        0.1549
     18 S           5.6398   -1.7385   32.9569 S.O2    1  UNL1        0.0737
     19 O           6.8024   -0.8042   32.7977 O.2     1  UNL1       -0.1499
     20 O           4.4772   -2.6728   33.1160 O.2     1  UNL1       -0.1499
     21 N           5.4333   -1.2429   34.3575 N.pl3   1  UNL1       -0.2128
     22 H           5.8861   -1.6890   35.1093 H       1  UNL1        0.1738
     23 C           4.5368   -0.0676   34.6127 C.ar    1  UNL1        0.0923
     24 C           3.7200    0.5094   33.4947 C.ar    1  UNL1        0.0204
     25 C           2.8236    1.6846   33.7499 C.ar    1  UNL1        0.0311
     26 C           2.7439    2.2829   35.1231 C.ar    1  UNL1        0.1425
     27 F           1.8474    3.4582   35.3783 F       1  UNL1       -0.2041
     28 C           3.5607    1.7059   36.2411 C.ar    1  UNL1        0.0606
     29 C           4.4571    0.5307   35.9859 C.ar    1  UNL1        0.1568
     30 F           5.2740   -0.0463   37.1039 F       1  UNL1       -0.2027
     31 C           7.9904   -7.6755   25.3490 C.3     1  UNL1        0.0022
     32 C           7.4376   -6.3569   25.8022 C.3     1  UNL1        0.0269
@<TRIPOS>BOND
     1    31    32    1
     2    32     1    1
     3     1     2    1
     4     1     3    1
     5     3     4   am
     6     4     5    2
     7     4     6    1
     8     6     7   ar
     9     7     8   ar
    10     8    18    1
    11    18    19    2
    12    18    20    2
    13    18    21    1
    14    21    23    1
    15    23    24   ar
    16    24    25   ar
    17    25    26   ar
    18    26    27    1
    19    26    28   ar
    20    28    29   ar
    21    29    30    1
    22     8     9   ar
    23     9    10   ar
    24    10    11    1
    25    10    12   ar
    26    12    13    1
    27    13    14   am
    28    14    15    2
    29    14     1    1
    30    12     6   ar
    31    29    23   ar
    32     3    16    1
    33    21    22    1
    34    13    17    1
@<TRIPOS>MOLECULE
*****
 32 34 0 0 0
SMALL
GASTEIGER

@<TRIPOS>ATOM
      1 C         -11.2137  -17.1231   22.4511 C.3     1  UNL1        0.1261
      2 C         -11.7181  -16.1949   23.5161 C.3     1  UNL1        0.0290
      3 N          -9.9769  -16.8222   23.2447 N.am    1  UNL1       -0.2963
      4 C          -8.5806  -17.3252   23.0270 C.2     1  UNL1        0.2474
      5 O          -7.5527  -16.8353   24.0034 O.2     1  UNL1       -0.2701
      6 C          -8.0763  -18.2535   21.9621 C.ar    1  UNL1        0.0690
      7 C          -6.6040  -18.5024   22.1045 C.ar    1  UNL1        0.0260
      8 C          -5.8991  -19.4058   21.1365 C.ar    1  UNL1        0.1262
      9 C          -6.6665  -20.0603   20.0262 C.ar    1  UNL1        0.0328
     10 C          -8.1388  -19.8113   19.8838 C.ar    1  UNL1        0.0726
     11 CL         -8.9062  -20.4657   18.7735 Cl      1  UNL1       -0.0809
     12 C          -8.8437  -18.9079   20.8518 C.ar    1  UNL1        0.0655
     13 N         -10.3050  -18.7957   20.5322 N.am    1  UNL1       -0.2819
     14 C         -11.3598  -18.0015   21.2439 C.2     1  UNL1        0.2420
     15 O         -12.7434  -18.0983   20.6731 O.2     1  UNL1       -0.2731
     16 H         -10.0975  -16.2141   24.0095 H       1  UNL1        0.1501
     17 H         -10.6124  -19.3116   19.7521 H       1  UNL1        0.1549
     18 S          -4.4267  -19.6549   21.2789 S.O2    1  UNL1        0.0737
     19 O          -4.2784  -19.6306   19.7864 O.2     1  UNL1       -0.1499
     20 O          -4.5750  -19.6791   22.7713 O.2     1  UNL1       -0.1499
     21 N          -2.9544  -19.9039   21.4211 N.pl3   1  UNL1       -0.2128
     22 H          -2.6336  -20.7479   21.8135 H       1  UNL1        0.1738
     23 C          -1.9709  -18.8669   20.9656 C.ar    1  UNL1        0.0923
     24 C          -0.8809  -19.2380   20.0043 C.ar    1  UNL1        0.0204
     25 C           0.1026  -18.2011   19.5489 C.ar    1  UNL1        0.0311
     26 C          -0.0040  -16.7930   20.0547 C.ar    1  UNL1        0.1425
     27 F           0.9796  -15.7560   19.5991 F       1  UNL1       -0.2041
     28 C          -1.0940  -16.4218   21.0159 C.ar    1  UNL1        0.0606
     29 C          -2.0774  -17.4587   21.4714 C.ar    1  UNL1        0.1568
     30 F          -3.1675  -17.0876   22.4327 F       1  UNL1       -0.2027
     31 C         -13.6990  -17.3790   23.1640 C.3     1  UNL1        0.0022
     32 C         -12.6750  -17.0110   22.1316 C.3     1  UNL1        0.0269
@<TRIPOS>BOND
     1    31    32    1
     2    32     1    1
     3     1     2    1
     4     1     3    1
     5     3     4   am
     6     4     5    2
     7     4     6    1
     8     6     7   ar
     9     7     8   ar
    10     8    18    1
    11    18    19    2
    12    18    20    2
    13    18    21    1
    14    21    23    1
    15    23    24   ar
    16    24    25   ar
    17    25    26   ar
    18    26    27    1
    19    26    28   ar
    20    28    29   ar
    21    29    30    1
    22     8     9   ar
    23     9    10   ar
    24    10    11    1
    25    10    12   ar
    26    12    13    1
    27    13    14   am
    28    14    15    2
    29    14     1    1
    30    12     6   ar
    31    29    23   ar
    32     3    16    1
    33    21    22    1
    34    13    17    1
@<TRIPOS>MOLECULE
*****
 32 34 0 0 0
SMALL
GASTEIGER

@<TRIPOS>ATOM
      1 C           7.2880   -5.2097   29.1414 C.3     1  UNL1        0.1261
      2 C           6.8339   -4.5034   30.3844 C.3     1  UNL1        0.0290
      3 N           6.6402   -3.9688   28.6024 N.am    1  UNL1       -0.2963
      4 C           6.4850   -3.5402   27.1733 C.2     1  UNL1        0.2474
      5 O           5.7827   -2.2322   26.9588 O.2     1  UNL1       -0.2701
      6 C           6.9391   -4.2465   25.9304 C.ar    1  UNL1        0.0690
      7 C           6.5830   -3.4698   24.6975 C.ar    1  UNL1        0.0260
      8 C           6.9485   -4.0026   23.3439 C.ar    1  UNL1        0.1262
      9 C           7.6701   -5.3120   23.2230 C.ar    1  UNL1        0.0328
     10 C           8.0262   -6.0887   24.4558 C.ar    1  UNL1        0.0726
     11 CL          8.7477   -7.3982   24.3349 Cl      1  UNL1       -0.0809
     12 C           7.6607   -5.5560   25.8095 C.ar    1  UNL1        0.0655
     13 N           8.1063   -6.4825   26.9017 N.am    1  UNL1       -0.2819
     14 C           7.9405   -6.3285   28.3846 C.2     1  UNL1        0.2420
     15 O           8.5012   -7.4400   29.2211 O.2     1  UNL1       -0.2731
     16 H           6.2677   -3.3545   29.2755 H       1  UNL1        0.1501
     17 H           8.5688   -7.2998   26.6063 H       1  UNL1        0.1549
     18 S           6.5924   -3.2259   22.1109 S.O2    1  UNL1        0.0737
     19 O           5.8068   -4.3971   21.6001 O.2     1  UNL1       -0.1499
     20 O           7.3780   -2.0547   22.6218 O.2     1  UNL1       -0.1499
     21 N           6.2363   -2.4492   20.8781 N.pl3   1  UNL1       -0.2128
     22 H           6.9242   -2.2602   20.1996 H       1  UNL1        0.1738
     23 C           4.8321   -1.9607   20.6789 C.ar    1  UNL1        0.0923
     24 C           4.0871   -1.3340   21.8200 C.ar    1  UNL1        0.0204
     25 C           2.6830   -0.8455   21.6208 C.ar    1  UNL1        0.0311
     26 C           2.0239   -0.9836   20.2804 C.ar    1  UNL1        0.1425
     27 F           0.6197   -0.4951   20.0812 F       1  UNL1       -0.2041
     28 C           2.7689   -1.6103   19.1393 C.ar    1  UNL1        0.0606
     29 C           4.1730   -2.0988   19.3386 C.ar    1  UNL1        0.1568
     30 F           4.9181   -2.7256   18.1974 F       1  UNL1       -0.2027
     31 C           7.3014   -5.8902   31.6488 C.3     1  UNL1        0.0022
     32 C           7.7336   -6.1363   30.2336 C.3     1  UNL1        0.0269
@<TRIPOS>BOND
     1    31    32    1
     2    32     1    1
     3     1     2    1
     4     1     3    1
     5     3     4   am
     6     4     5    2
     7     4     6    1
     8     6     7   ar
     9     7     8   ar
    10     8    18    1
    11    18    19    2
    12    18    20    2
    13    18    21    1
    14    21    23    1
    15    23    24   ar
    16    24    25   ar
    17    25    26   ar
    18    26    27    1
    19    26    28   ar
    20    28    29   ar
    21    29    30    1
    22     8     9   ar
    23     9    10   ar
    24    10    11    1
    25    10    12   ar
    26    12    13    1
    27    13    14   am
    28    14    15    2
    29    14     1    1
    30    12     6   ar
    31    29    23   ar
    32     3    16    1
    33    21    22    1
    34    13    17    1
@<TRIPOS>MOLECULE
*****
 32 34 0 0 0
SMALL
GASTEIGER

@<TRIPOS>ATOM
      1 C           4.4288   -2.8825   21.0415 C.3     1  UNL1        0.1261
      2 C           5.3170   -3.9876   20.5519 C.3     1  UNL1        0.0290
      3 N           5.1587   -3.2991   22.2839 N.am    1  UNL1       -0.2963
      4 C           5.0317   -2.7469   23.6727 C.2     1  UNL1        0.2474
      5 O           5.9090   -3.3842   24.7092 O.2     1  UNL1       -0.2701
      6 C           4.1434   -1.6418   24.1623 C.ar    1  UNL1        0.0690
      7 C           4.3272   -1.4010   25.6314 C.ar    1  UNL1        0.0260
      8 C           3.5302   -0.3344   26.3219 C.ar    1  UNL1        0.1262
      9 C           2.5495    0.4916   25.5435 C.ar    1  UNL1        0.0328
     10 C           2.3658    0.2508   24.0744 C.ar    1  UNL1        0.0726
     11 CL          1.3851    1.0768   23.2959 Cl      1  UNL1       -0.0809
     12 C           3.1627   -0.8158   23.3838 C.ar    1  UNL1        0.0655
     13 N           2.8282   -0.8911   21.9235 N.am    1  UNL1       -0.2819
     14 C           3.3915   -1.8108   20.8810 C.2     1  UNL1        0.2420
     15 O           2.8456   -1.6357   19.4950 O.2     1  UNL1       -0.2731
     16 H           5.8069   -4.0319   22.1731 H       1  UNL1        0.1501
     17 H           2.1489   -0.2524   21.6075 H       1  UNL1        0.1549
     18 S           3.7139   -0.0936   27.7911 S.O2    1  UNL1        0.0737
     19 O           4.6929    1.0019   27.4891 O.2     1  UNL1       -0.1499
     20 O           2.7348   -1.1891   28.0931 O.2     1  UNL1       -0.1499
     21 N           3.8976    0.1472   29.2602 N.pl3   1  UNL1       -0.2128
     22 H           3.5653    0.9795   29.6679 H       1  UNL1        0.1738
     23 C           4.5876   -0.8799   30.1081 C.ar    1  UNL1        0.0923
     24 C           5.7410   -1.6604   29.5508 C.ar    1  UNL1        0.0204
     25 C           6.4310   -2.6875   30.3987 C.ar    1  UNL1        0.0311
     26 C           5.9676   -2.9341   31.8038 C.ar    1  UNL1        0.1425
     27 F           6.6577   -3.9613   32.6517 F       1  UNL1       -0.2041
     28 C           4.8143   -2.1536   32.3611 C.ar    1  UNL1        0.0606
     29 C           4.1243   -1.1265   31.5132 C.ar    1  UNL1        0.1568
     30 F           2.9709   -0.3460   32.0705 F       1  UNL1       -0.2027
     31 C           4.6306   -4.0821   18.7457 C.3     1  UNL1        0.0022
     32 C           4.0942   -2.9577   19.5812 C.3     1  UNL1        0.0269
@<TRIPOS>BOND
     1    31    32    1
     2    32     1    1
     3     1     2    1
     4     1     3    1
     5     3     4   am
     6     4     5    2
     7     4     6    1
     8     6     7   ar
     9     7     8   ar
    10     8    18    1
    11    18    19    2
    12    18    20    2
    13    18    21    1
    14    21    23    1
    15    23    24   ar
    16    24    25   ar
    17    25    26   ar
    18    26    27    1
    19    26    28   ar
    20    28    29   ar
    21    29    30    1
    22     8     9   ar
    23     9    10   ar
    24    10    11    1
    25    10    12   ar
    26    12    13    1
    27    13    14   am
    28    14    15    2
    29    14     1    1
    30    12     6   ar
    31    29    23   ar
    32     3    16    1
    33    21    22    1
    34    13    17    1
@<TRIPOS>MOLECULE
*****
 32 34 0 0 0
SMALL
GASTEIGER

@<TRIPOS>ATOM
      1 C           3.4122   -1.6710   20.3458 C.3     1  UNL1        0.1261
      2 C           3.8289   -2.3483   19.0739 C.3     1  UNL1        0.0290
      3 N           2.5619   -0.9931   19.3126 N.am    1  UNL1       -0.2963
      4 C           1.5458    0.0936   19.5042 C.2     1  UNL1        0.2474
      5 O           0.8551    0.5655   18.2591 O.2     1  UNL1       -0.2701
      6 C           1.1291    0.7708   20.7761 C.ar    1  UNL1        0.0690
      7 C           0.0765    1.8094   20.5245 C.ar    1  UNL1        0.0260
      8 C          -0.4797    2.6057   21.6676 C.ar    1  UNL1        0.1262
      9 C           0.0168    2.3634   23.0621 C.ar    1  UNL1        0.0328
     10 C           1.0694    1.3249   23.3137 C.ar    1  UNL1        0.0726
     11 CL          1.5658    1.0826   24.7083 Cl      1  UNL1       -0.0809
     12 C           1.6256    0.5286   22.1707 C.ar    1  UNL1        0.0655
     13 N           2.6613   -0.4508   22.6377 N.am    1  UNL1       -0.2819
     14 C           3.4565   -1.4297   21.8256 C.2     1  UNL1        0.2420
     15 O           4.4237   -2.2796   22.5950 O.2     1  UNL1       -0.2731
     16 H           2.6872   -1.3023   18.3864 H       1  UNL1        0.1501
     17 H           2.8433   -0.4511   23.6052 H       1  UNL1        0.1549
     18 S          -1.5324    3.6443   21.4160 S.O2    1  UNL1        0.0737
     19 O          -0.7907    4.6085   22.2936 O.2     1  UNL1       -0.1499
     20 O          -2.2741    2.6801   20.5384 O.2     1  UNL1       -0.1499
     21 N          -2.5850    4.6829   21.1646 N.pl3   1  UNL1       -0.2128
     22 H          -2.3674    5.4875   20.6407 H       1  UNL1        0.1738
     23 C          -3.9693    4.4956   21.7113 C.ar    1  UNL1        0.0923
     24 C          -4.1611    3.9758   23.1052 C.ar    1  UNL1        0.0204
     25 C          -5.5453    3.7885   23.6518 C.ar    1  UNL1        0.0311
     26 C          -6.7377    4.1210   22.8046 C.ar    1  UNL1        0.1425
     27 F          -8.1219    3.9336   23.3513 F       1  UNL1       -0.2041
     28 C          -6.5458    4.6407   21.4107 C.ar    1  UNL1        0.0606
     29 C          -5.1616    4.8280   20.8640 C.ar    1  UNL1        0.1568
     30 F          -4.9696    5.3478   19.4701 F       1  UNL1       -0.2027
     31 C           4.8657   -3.7823   19.9217 C.3     1  UNL1        0.0022
     32 C           4.4479   -2.6504   20.8128 C.3     1  UNL1        0.0269
@<TRIPOS>BOND
     1    31    32    1
     2    32     1    1
     3     1     2    1
     4     1     3    1
     5     3     4   am
     6     4     5    2
     7     4     6    1
     8     6     7   ar
     9     7     8   ar
    10     8    18    1
    11    18    19    2
    12    18    20    2
    13    18    21    1
    14    21    23    1
    15    23    24   ar
    16    24    25   ar
    17    25    26   ar
    18    26    27    1
    19    26    28   ar
    20    28    29   ar
    21    29    30    1
    22     8     9   ar
    23     9    10   ar
    24    10    11    1
    25    10    12   ar
    26    12    13    1
    27    13    14   am
    28    14    15    2
    29    14     1    1
    30    12     6   ar
    31    29    23   ar
    32     3    16    1
    33    21    22    1
    34    13    17    1
