@<TRIPOS>MOLECULE
*****
 34 36 0 0 0
SMALL
GASTEIGER

@<TRIPOS>ATOM
      1 C          -6.7507  -15.7115   25.2404 C.3     1  UNL1        0.1102
      2 C          -7.0110  -16.2652   23.8709 C.3     1  UNL1        0.0296
      3 C          -8.2630  -17.0470   23.6035 C.3     1  UNL1        0.0730
      4 N          -9.2546  -17.2750   24.7057 N.3     1  UNL1       -0.2689
      5 C          -8.9942  -16.7213   26.0752 C.3     1  UNL1        0.0730
      6 C          -7.7423  -15.9396   26.3426 C.3     1  UNL1        0.0296
      7 C          -6.0630  -14.9918   26.3625 C.2     1  UNL1        0.3177
      8 O          -4.7249  -14.3532   26.1354 O.2     1  UNL1       -0.2501
      9 C          -6.7968  -13.5945   28.4263 C.3     1  UNL1        0.2556
     10 O          -6.7134  -14.9107   27.7117 O.3     1  UNL1       -0.4444
     11 C          -5.5203  -15.2335   24.5279 C.3     1  UNL1        0.1002
     12 N          -4.9491  -16.0362   23.3968 N.am    1  UNL1       -0.3003
     13 C          -4.1485  -17.2719   23.6833 C.2     1  UNL1        0.2461
     14 O          -3.9190  -17.7049   25.1010 O.2     1  UNL1       -0.2701
     15 H          -5.0998  -15.7520   22.4663 H       1  UNL1        0.1498
     16 C          -3.5773  -18.0745   22.5522 C.ar    1  UNL1        0.0594
     17 C          -4.4225  -19.1025   21.8602 C.ar    1  UNL1        0.0416
     18 C          -3.8514  -19.9051   20.7291 C.ar    1  UNL1        0.1419
     19 C          -2.4350  -19.6798   20.2898 C.ar    1  UNL1        0.0738
     20 C          -1.5896  -18.6518   20.9818 C.ar    1  UNL1        0.1419
     21 C          -2.1608  -17.8492   22.1130 C.ar    1  UNL1        0.0416
     22 O          -4.6967  -20.9331   20.0371 O.3     1  UNL1       -0.4713
     23 C          -6.1679  -21.0079   20.3197 C.3     1  UNL1        0.2525
     24 O          -0.1732  -18.4265   20.5426 O.3     1  UNL1       -0.4713
     25 C           0.2107  -17.1361   19.8812 C.3     1  UNL1        0.2525
     26 C         -10.5065  -18.0568   24.4383 C.3     1  UNL1        0.0992
     27 C         -10.9059  -18.3737   23.0277 C.ar    1  UNL1       -0.0031
     28 C         -10.7094  -19.7585   22.4856 C.ar    1  UNL1       -0.0027
     29 C         -11.1088  -20.0755   21.0749 C.ar    1  UNL1        0.0028
     30 C         -11.7048  -19.0077   20.2062 C.ar    1  UNL1        0.0369
     31 C         -11.9013  -17.6229   20.7483 C.ar    1  UNL1        0.1385
     32 C         -11.5019  -17.3060   22.1589 C.ar    1  UNL1        0.0340
     33 O         -12.4973  -16.5552   19.8796 O.3     1  UNL1       -0.4714
     34 C         -11.6033  -15.6151   19.1265 C.3     1  UNL1        0.2525
@<TRIPOS>BOND
     1     9    10    1
     2    10     7    1
     3     7     8    2
     4     7     1    1
     5     1    11    1
     6    11    12    1
     7    12    13   am
     8    13    14    2
     9    13    16    1
    10    16    17   ar
    11    17    18   ar
    12    18    22    1
    13    22    23    1
    14    18    19   ar
    15    19    20   ar
    16    20    24    1
    17    24    25    1
    18    20    21   ar
    19     1     2    1
    20     2     3    1
    21     3     4    1
    22     4    26    1
    23    26    27    1
    24    27    28   ar
    25    28    29   ar
    26    29    30   ar
    27    30    31   ar
    28    31    33    1
    29    33    34    1
    30    31    32   ar
    31     4     5    1
    32     5     6    1
    33     6     1    1
    34    21    16   ar
    35    32    27   ar
    36    12    15    1
@<TRIPOS>MOLECULE
*****
 34 36 0 0 0
SMALL
GASTEIGER

@<TRIPOS>ATOM
      1 C          -6.7098  -15.7231   25.1731 C.3     1  UNL1        0.1102
      2 C          -6.9460  -16.3033   23.8102 C.3     1  UNL1        0.0296
      3 C          -8.2158  -17.0478   23.5217 C.3     1  UNL1        0.0730
      4 N          -9.2495  -17.2121   24.5962 N.3     1  UNL1       -0.2689
      5 C          -9.0133  -16.6320   25.9592 C.3     1  UNL1        0.0730
      6 C          -7.7435  -15.8875   26.2476 C.3     1  UNL1        0.0296
      7 C          -6.0330  -14.9985   26.2987 C.2     1  UNL1        0.3177
      8 O          -4.7250  -14.3028   26.0638 O.2     1  UNL1       -0.2501
      9 C          -6.8376  -13.6646   28.3779 C.3     1  UNL1        0.2556
     10 O          -6.6641  -14.9696   27.6591 O.3     1  UNL1       -0.4444
     11 C          -5.4411  -15.3071   24.4895 C.3     1  UNL1        0.1002
     12 N          -4.9054  -16.1163   23.3457 N.am    1  UNL1       -0.3003
     13 C          -4.0850  -17.3431   23.6143 C.2     1  UNL1        0.2461
     14 O          -3.8004  -17.7607   25.0266 O.2     1  UNL1       -0.2701
     15 H          -5.0921  -15.8422   22.4188 H       1  UNL1        0.1498
     16 C          -3.5492  -18.1522   22.4705 C.ar    1  UNL1        0.0594
     17 C          -2.1530  -17.9178   21.9751 C.ar    1  UNL1        0.0416
     18 C          -1.6172  -18.7269   20.8313 C.ar    1  UNL1        0.1419
     19 C          -2.4777  -19.7705   20.1830 C.ar    1  UNL1        0.0738
     20 C          -3.8740  -20.0051   20.6784 C.ar    1  UNL1        0.1419
     21 C          -4.4098  -19.1959   21.8222 C.ar    1  UNL1        0.0416
     22 O          -0.2209  -18.4924   20.3359 O.3     1  UNL1       -0.4713
     23 C           0.2496  -17.0967   20.0518 C.3     1  UNL1        0.2525
     24 O          -4.7344  -21.0487   20.0301 O.3     1  UNL1       -0.4713
     25 C          -6.2275  -20.9712   20.1517 C.3     1  UNL1        0.2525
     26 C         -10.5193  -17.9566   24.3077 C.3     1  UNL1        0.0992
     27 C         -10.8912  -18.2849   22.8922 C.ar    1  UNL1       -0.0031
     28 C         -10.7020  -19.6788   22.3710 C.ar    1  UNL1       -0.0027
     29 C         -11.0739  -20.0072   20.9554 C.ar    1  UNL1        0.0028
     30 C         -11.6349  -18.9417   20.0609 C.ar    1  UNL1        0.0369
     31 C         -11.8240  -17.5479   20.5821 C.ar    1  UNL1        0.1385
     32 C         -11.4522  -17.2196   21.9976 C.ar    1  UNL1        0.0340
     33 O         -12.3850  -16.4825   19.6875 O.3     1  UNL1       -0.4714
     34 C         -11.4707  -15.4744   19.0570 C.3     1  UNL1        0.2525
@<TRIPOS>BOND
     1     9    10    1
     2    10     7    1
     3     7     8    2
     4     7     1    1
     5     1    11    1
     6    11    12    1
     7    12    13   am
     8    13    14    2
     9    13    16    1
    10    16    17   ar
    11    17    18   ar
    12    18    22    1
    13    22    23    1
    14    18    19   ar
    15    19    20   ar
    16    20    24    1
    17    24    25    1
    18    20    21   ar
    19     1     2    1
    20     2     3    1
    21     3     4    1
    22     4    26    1
    23    26    27    1
    24    27    28   ar
    25    28    29   ar
    26    29    30   ar
    27    30    31   ar
    28    31    33    1
    29    33    34    1
    30    31    32   ar
    31     4     5    1
    32     5     6    1
    33     6     1    1
    34    21    16   ar
    35    32    27   ar
    36    12    15    1
@<TRIPOS>MOLECULE
*****
 34 36 0 0 0
SMALL
GASTEIGER

@<TRIPOS>ATOM
      1 C          -6.1991  -15.9268   24.4258 C.3     1  UNL1        0.1102
      2 C          -6.8969  -16.4425   23.2023 C.3     1  UNL1        0.0296
      3 C          -6.2568  -17.5127   22.3687 C.3     1  UNL1        0.0730
      4 N          -4.9187  -18.0673   22.7588 N.3     1  UNL1       -0.2689
      5 C          -4.2209  -17.5517   23.9823 C.3     1  UNL1        0.0730
      6 C          -4.8610  -16.4814   24.8158 C.3     1  UNL1        0.0296
      7 C          -5.9339  -15.1214   25.6631 C.2     1  UNL1        0.3177
      8 O          -4.6694  -14.3233   25.7818 O.2     1  UNL1       -0.2501
      9 C          -6.9143  -16.2046   27.8114 C.3     1  UNL1        0.2556
     10 O          -6.9331  -15.1141   26.7817 O.3     1  UNL1       -0.4444
     11 C          -7.4450  -15.0926   24.4654 C.3     1  UNL1        0.1002
     12 N          -8.6406  -15.4910   23.6520 N.am    1  UNL1       -0.3003
     13 C          -9.5852  -16.5354   24.1690 C.2     1  UNL1        0.2461
     14 O          -9.3341  -17.1812   25.4993 O.2     1  UNL1       -0.2701
     15 H          -8.8055  -15.0671   22.7789 H       1  UNL1        0.1498
     16 C         -10.7809  -16.9338   23.3556 C.ar    1  UNL1        0.0594
     17 C         -10.7716  -16.7469   21.8674 C.ar    1  UNL1        0.0416
     18 C         -11.9673  -17.1454   21.0539 C.ar    1  UNL1        0.1419
     19 C         -13.1722  -17.7307   21.7288 C.ar    1  UNL1        0.0738
     20 C         -13.1815  -17.9176   23.2171 C.ar    1  UNL1        0.1419
     21 C         -11.9859  -17.5192   24.0305 C.ar    1  UNL1        0.0416
     22 O         -11.9580  -16.9584   19.5656 O.3     1  UNL1       -0.4713
     23 C         -11.6130  -15.6214   18.9798 C.3     1  UNL1        0.2525
     24 O         -14.3864  -18.5030   23.8920 O.3     1  UNL1       -0.4713
     25 C         -14.4948  -18.4772   25.3878 C.3     1  UNL1        0.2525
     26 C          -4.2786  -19.1376   21.9252 C.3     1  UNL1        0.0992
     27 C          -3.3976  -18.7626   20.7707 C.ar    1  UNL1       -0.0031
     28 C          -4.0068  -18.2727   19.4904 C.ar    1  UNL1       -0.0027
     29 C          -3.1258  -17.8977   18.3358 C.ar    1  UNL1        0.0028
     30 C          -1.6355  -18.0125   18.4614 C.ar    1  UNL1        0.0369
     31 C          -1.0262  -18.5024   19.7416 C.ar    1  UNL1        0.1385
     32 C          -1.9073  -18.8774   20.8961 C.ar    1  UNL1        0.0340
     33 O           0.4641  -18.6172   19.8670 O.3     1  UNL1       -0.4714
     34 C           1.2539  -17.4975   20.4771 C.3     1  UNL1        0.2525
@<TRIPOS>BOND
     1     9    10    1
     2    10     7    1
     3     7     8    2
     4     7     1    1
     5     1    11    1
     6    11    12    1
     7    12    13   am
     8    13    14    2
     9    13    16    1
    10    16    17   ar
    11    17    18   ar
    12    18    22    1
    13    22    23    1
    14    18    19   ar
    15    19    20   ar
    16    20    24    1
    17    24    25    1
    18    20    21   ar
    19     1     2    1
    20     2     3    1
    21     3     4    1
    22     4    26    1
    23    26    27    1
    24    27    28   ar
    25    28    29   ar
    26    29    30   ar
    27    30    31   ar
    28    31    33    1
    29    33    34    1
    30    31    32   ar
    31     4     5    1
    32     5     6    1
    33     6     1    1
    34    21    16   ar
    35    32    27   ar
    36    12    15    1
@<TRIPOS>MOLECULE
*****
 34 36 0 0 0
SMALL
GASTEIGER

@<TRIPOS>ATOM
      1 C          -6.0976  -16.1053   24.5685 C.3     1  UNL1        0.1102
      2 C          -6.7548  -16.4891   23.2760 C.3     1  UNL1        0.0296
      3 C          -6.1162  -17.5131   22.3851 C.3     1  UNL1        0.0730
      4 N          -4.8205  -18.1532   22.7868 N.3     1  UNL1       -0.2689
      5 C          -4.1634  -17.7694   24.0794 C.3     1  UNL1        0.0730
      6 C          -4.8019  -16.7454   24.9703 C.3     1  UNL1        0.0296
      7 C          -5.8621  -15.4159   25.8798 C.2     1  UNL1        0.3177
      8 O          -4.9195  -14.2516   25.9563 O.2     1  UNL1       -0.2501
      9 C          -7.7262  -15.1101   27.6634 C.3     1  UNL1        0.2556
     10 O          -6.5691  -15.8909   27.1145 O.3     1  UNL1       -0.4444
     11 C          -7.3115  -15.2257   24.6222 C.3     1  UNL1        0.1002
     12 N          -8.5198  -15.5641   23.8001 N.am    1  UNL1       -0.3003
     13 C          -9.4445  -16.6596   24.2416 C.2     1  UNL1        0.2461
     14 O          -9.1609  -17.4167   25.5051 O.2     1  UNL1       -0.2701
     15 H          -8.7058  -15.0671   22.9709 H       1  UNL1        0.1498
     16 C         -10.6527  -16.9979   23.4196 C.ar    1  UNL1        0.0594
     17 C         -11.8715  -17.5722   24.0788 C.ar    1  UNL1        0.0416
     18 C         -13.0797  -17.9105   23.2568 C.ar    1  UNL1        0.1419
     19 C         -13.0692  -17.6745   21.7755 C.ar    1  UNL1        0.0738
     20 C         -11.8503  -17.1001   21.1162 C.ar    1  UNL1        0.1419
     21 C         -10.6421  -16.7618   21.9383 C.ar    1  UNL1        0.0416
     22 O         -14.2986  -18.4849   23.9161 O.3     1  UNL1       -0.4713
     23 C         -14.4432  -18.4244   25.4078 C.3     1  UNL1        0.2525
     24 O         -11.8397  -16.8641   19.6350 O.3     1  UNL1       -0.4713
     25 C         -11.3565  -15.5538   19.0877 C.3     1  UNL1        0.2525
     26 C          -4.1819  -19.1772   21.8960 C.3     1  UNL1        0.0992
     27 C          -3.3240  -18.7402   20.7458 C.ar    1  UNL1       -0.0031
     28 C          -3.9586  -18.1838   19.5057 C.ar    1  UNL1       -0.0027
     29 C          -3.1007  -17.7468   18.3554 C.ar    1  UNL1        0.0028
     30 C          -1.6082  -17.8661   18.4453 C.ar    1  UNL1        0.0369
     31 C          -0.9736  -18.4225   19.6854 C.ar    1  UNL1        0.1385
     32 C          -1.8315  -18.8595   20.8355 C.ar    1  UNL1        0.0340
     33 O           0.5190  -18.5419   19.7751 O.3     1  UNL1       -0.4714
     34 C           1.3133  -17.4931   20.4955 C.3     1  UNL1        0.2525
@<TRIPOS>BOND
     1     9    10    1
     2    10     7    1
     3     7     8    2
     4     7     1    1
     5     1    11    1
     6    11    12    1
     7    12    13   am
     8    13    14    2
     9    13    16    1
    10    16    17   ar
    11    17    18   ar
    12    18    22    1
    13    22    23    1
    14    18    19   ar
    15    19    20   ar
    16    20    24    1
    17    24    25    1
    18    20    21   ar
    19     1     2    1
    20     2     3    1
    21     3     4    1
    22     4    26    1
    23    26    27    1
    24    27    28   ar
    25    28    29   ar
    26    29    30   ar
    27    30    31   ar
    28    31    33    1
    29    33    34    1
    30    31    32   ar
    31     4     5    1
    32     5     6    1
    33     6     1    1
    34    21    16   ar
    35    32    27   ar
    36    12    15    1
@<TRIPOS>MOLECULE
*****
 34 36 0 0 0
SMALL
GASTEIGER

@<TRIPOS>ATOM
      1 C          -3.0673  -18.3843   21.6282 C.3     1  UNL1        0.1102
      2 C          -4.2450  -18.8472   22.4336 C.3     1  UNL1        0.0296
      3 C          -5.1470  -19.9183   21.8959 C.3     1  UNL1        0.0730
      4 N          -4.8711  -20.5267   20.5528 N.3     1  UNL1       -0.2689
      5 C          -3.6934  -20.0638   19.7475 C.3     1  UNL1        0.0730
      6 C          -2.7915  -18.9926   20.2851 C.3     1  UNL1        0.0296
      7 C          -1.8370  -17.6177   21.2428 C.2     1  UNL1        0.3177
      8 O          -1.7321  -16.1565   21.5651 O.2     1  UNL1       -0.2501
      9 C           0.4736  -17.5260   20.0584 C.3     1  UNL1        0.2556
     10 O          -0.7115  -18.3122   20.5351 O.3     1  UNL1       -0.4444
     11 C          -2.9159  -17.5098   22.8375 C.3     1  UNL1        0.1002
     12 N          -4.0882  -17.2716   23.7424 N.am    1  UNL1       -0.3003
     13 C          -4.8000  -15.9515   23.7161 C.2     1  UNL1        0.2461
     14 O          -4.3394  -14.8695   22.7850 O.2     1  UNL1       -0.2701
     15 H          -4.3905  -17.9818   24.3536 H       1  UNL1        0.1498
     16 C          -5.9723  -15.7133   24.6211 C.ar    1  UNL1        0.0594
     17 C          -5.7506  -15.2379   26.0263 C.ar    1  UNL1        0.0416
     18 C          -6.9229  -14.9998   26.9313 C.ar    1  UNL1        0.1419
     19 C          -8.3169  -15.2370   26.4310 C.ar    1  UNL1        0.0738
     20 C          -8.5387  -15.7125   25.0257 C.ar    1  UNL1        0.1419
     21 C          -7.3664  -15.9506   24.1207 C.ar    1  UNL1        0.0416
     22 O          -6.7012  -14.5243   28.3366 O.3     1  UNL1       -0.4713
     23 C          -6.9949  -13.0993   28.7014 C.3     1  UNL1        0.2525
     24 O          -9.9327  -15.9498   24.5254 O.3     1  UNL1       -0.4713
     25 C         -10.1569  -16.7739   23.2923 C.3     1  UNL1        0.2525
     26 C          -5.7730  -21.5978   20.0152 C.3     1  UNL1        0.0992
     27 C          -7.0637  -21.2262   19.3474 C.ar    1  UNL1       -0.0031
     28 C          -7.6387  -22.1111   18.2814 C.ar    1  UNL1       -0.0027
     29 C          -8.9295  -21.7395   17.6136 C.ar    1  UNL1        0.0028
     30 C          -9.6452  -20.4829   18.0119 C.ar    1  UNL1        0.0369
     31 C          -9.0703  -19.5980   19.0779 C.ar    1  UNL1        0.1385
     32 C          -7.7796  -19.9696   19.7456 C.ar    1  UNL1        0.0340
     33 O          -9.7861  -18.3414   19.4760 O.3     1  UNL1       -0.4714
     34 C         -11.0870  -18.4223   20.2183 C.3     1  UNL1        0.2525
@<TRIPOS>BOND
     1     9    10    1
     2    10     7    1
     3     7     8    2
     4     7     1    1
     5     1    11    1
     6    11    12    1
     7    12    13   am
     8    13    14    2
     9    13    16    1
    10    16    17   ar
    11    17    18   ar
    12    18    22    1
    13    22    23    1
    14    18    19   ar
    15    19    20   ar
    16    20    24    1
    17    24    25    1
    18    20    21   ar
    19     1     2    1
    20     2     3    1
    21     3     4    1
    22     4    26    1
    23    26    27    1
    24    27    28   ar
    25    28    29   ar
    26    29    30   ar
    27    30    31   ar
    28    31    33    1
    29    33    34    1
    30    31    32   ar
    31     4     5    1
    32     5     6    1
    33     6     1    1
    34    21    16   ar
    35    32    27   ar
    36    12    15    1
@<TRIPOS>MOLECULE
*****
 34 36 0 0 0
SMALL
GASTEIGER

@<TRIPOS>ATOM
      1 C          -3.0263  -18.3882   21.6121 C.3     1  UNL1        0.1102
      2 C          -4.2090  -18.8627   22.4033 C.3     1  UNL1        0.0296
      3 C          -5.1020  -19.9328   21.8486 C.3     1  UNL1        0.0730
      4 N          -4.8122  -20.5283   20.5027 N.3     1  UNL1       -0.2689
      5 C          -3.6295  -20.0537   19.7115 C.3     1  UNL1        0.0730
      6 C          -2.7366  -18.9837   20.2661 C.3     1  UNL1        0.0296
      7 C          -1.7958  -17.6134   21.2439 C.2     1  UNL1        0.3177
      8 O          -1.7127  -16.1475   21.5509 O.2     1  UNL1       -0.2501
      9 C           0.5166  -17.5054   20.0645 C.3     1  UNL1        0.2556
     10 O          -0.6485  -18.3044   20.5686 O.3     1  UNL1       -0.4444
     11 C          -2.8888  -17.5237   22.8301 C.3     1  UNL1        0.1002
     12 N          -4.0736  -17.2859   23.7187 N.am    1  UNL1       -0.3003
     13 C          -4.7902  -15.9688   23.6768 C.2     1  UNL1        0.2461
     14 O          -4.3221  -14.8895   22.7463 O.2     1  UNL1       -0.2701
     15 H          -4.3808  -17.9943   24.3295 H       1  UNL1        0.1498
     16 C          -5.9750  -15.7310   24.5655 C.ar    1  UNL1        0.0594
     17 C          -7.3634  -15.9280   24.0331 C.ar    1  UNL1        0.0416
     18 C          -8.5482  -15.6902   24.9218 C.ar    1  UNL1        0.1419
     19 C          -8.3446  -15.2555   26.3429 C.ar    1  UNL1        0.0738
     20 C          -6.9561  -15.0585   26.8753 C.ar    1  UNL1        0.1419
     21 C          -5.7713  -15.2962   25.9867 C.ar    1  UNL1        0.0416
     22 O          -9.9367  -15.8872   24.3893 O.3     1  UNL1       -0.4713
     23 C         -10.3521  -17.2258   23.8550 C.3     1  UNL1        0.2525
     24 O          -6.7525  -14.6237   28.2964 O.3     1  UNL1       -0.4713
     25 C          -7.0309  -13.2044   28.6937 C.3     1  UNL1        0.2525
     26 C          -5.7051  -21.5983   19.9480 C.3     1  UNL1        0.0992
     27 C          -7.0146  -21.2294   19.3162 C.ar    1  UNL1       -0.0031
     28 C          -7.6192  -22.1181   18.2698 C.ar    1  UNL1       -0.0027
     29 C          -8.9287  -21.7492   17.6380 C.ar    1  UNL1        0.0028
     30 C          -9.6336  -20.4918   18.0525 C.ar    1  UNL1        0.0369
     31 C          -9.0290  -19.6032   19.0989 C.ar    1  UNL1        0.1385
     32 C          -7.7196  -19.9720   19.7307 C.ar    1  UNL1        0.0340
     33 O          -9.7340  -18.3457   19.5134 O.3     1  UNL1       -0.4714
     34 C         -10.9858  -18.4240   20.3360 C.3     1  UNL1        0.2525
@<TRIPOS>BOND
     1     9    10    1
     2    10     7    1
     3     7     8    2
     4     7     1    1
     5     1    11    1
     6    11    12    1
     7    12    13   am
     8    13    14    2
     9    13    16    1
    10    16    17   ar
    11    17    18   ar
    12    18    22    1
    13    22    23    1
    14    18    19   ar
    15    19    20   ar
    16    20    24    1
    17    24    25    1
    18    20    21   ar
    19     1     2    1
    20     2     3    1
    21     3     4    1
    22     4    26    1
    23    26    27    1
    24    27    28   ar
    25    28    29   ar
    26    29    30   ar
    27    30    31   ar
    28    31    33    1
    29    33    34    1
    30    31    32   ar
    31     4     5    1
    32     5     6    1
    33     6     1    1
    34    21    16   ar
    35    32    27   ar
    36    12    15    1
@<TRIPOS>MOLECULE
*****
 34 36 0 0 0
SMALL
GASTEIGER

@<TRIPOS>ATOM
      1 C          -3.3366  -18.6491   21.7488 C.3     1  UNL1        0.1102
      2 C          -4.6929  -18.6523   22.3895 C.3     1  UNL1        0.0296
      3 C          -5.1298  -17.4866   23.2263 C.3     1  UNL1        0.0730
      4 N          -4.2104  -16.3177   23.4224 N.3     1  UNL1       -0.2689
      5 C          -2.8541  -16.3145   22.7817 C.3     1  UNL1        0.0730
      6 C          -2.4172  -17.4802   21.9449 C.3     1  UNL1        0.0296
      7 C          -2.1574  -19.1072   20.9428 C.2     1  UNL1        0.3177
      8 O          -1.6848  -20.5271   21.0453 O.2     1  UNL1       -0.2501
      9 C          -1.8541  -18.0403   18.5933 C.3     1  UNL1        0.2556
     10 O          -1.4508  -18.1453   20.0342 O.3     1  UNL1       -0.4444
     11 C          -3.8465  -19.9771   21.2728 C.3     1  UNL1        0.1002
     12 N          -5.3204  -20.1971   21.1019 N.am    1  UNL1       -0.3003
     13 C          -6.1033  -19.3326   20.1586 C.2     1  UNL1        0.2461
     14 O          -5.4124  -18.2482   19.3863 O.2     1  UNL1       -0.2701
     15 H          -5.7739  -20.9088   21.6089 H       1  UNL1        0.1498
     16 C          -7.5772  -19.5526   19.9877 C.ar    1  UNL1        0.0594
     17 C          -8.1159  -20.0375   18.6744 C.ar    1  UNL1        0.0416
     18 C          -9.5898  -20.2575   18.5036 C.ar    1  UNL1        0.1419
     19 C         -10.5250  -19.9927   19.6459 C.ar    1  UNL1        0.0738
     20 C          -9.9864  -19.5078   20.9593 C.ar    1  UNL1        0.1419
     21 C          -8.5125  -19.2878   21.1302 C.ar    1  UNL1        0.0416
     22 O         -10.1284  -20.7424   17.1902 O.3     1  UNL1       -0.4713
     23 C          -9.2262  -21.4547   16.2265 C.3     1  UNL1        0.2525
     24 O         -10.9217  -19.2430   22.1017 O.3     1  UNL1       -0.4713
     25 C         -10.8194  -20.0555   23.3585 C.3     1  UNL1        0.2525
     26 C          -4.6473  -15.1520   24.2591 C.3     1  UNL1        0.0992
     27 C          -5.8923  -15.2499   25.0899 C.ar    1  UNL1       -0.0031
     28 C          -5.7933  -15.3101   26.5855 C.ar    1  UNL1       -0.0027
     29 C          -7.0384  -15.4080   27.4163 C.ar    1  UNL1        0.0028
     30 C          -8.3825  -15.4457   26.7516 C.ar    1  UNL1        0.0369
     31 C          -8.4815  -15.3856   25.2560 C.ar    1  UNL1        0.1385
     32 C          -7.2365  -15.2877   24.4253 C.ar    1  UNL1        0.0340
     33 O          -9.8257  -15.4234   24.5914 O.3     1  UNL1       -0.4714
     34 C         -10.0764  -16.3754   23.4597 C.3     1  UNL1        0.2525
@<TRIPOS>BOND
     1     9    10    1
     2    10     7    1
     3     7     8    2
     4     7     1    1
     5     1    11    1
     6    11    12    1
     7    12    13   am
     8    13    14    2
     9    13    16    1
    10    16    17   ar
    11    17    18   ar
    12    18    22    1
    13    22    23    1
    14    18    19   ar
    15    19    20   ar
    16    20    24    1
    17    24    25    1
    18    20    21   ar
    19     1     2    1
    20     2     3    1
    21     3     4    1
    22     4    26    1
    23    26    27    1
    24    27    28   ar
    25    28    29   ar
    26    29    30   ar
    27    30    31   ar
    28    31    33    1
    29    33    34    1
    30    31    32   ar
    31     4     5    1
    32     5     6    1
    33     6     1    1
    34    21    16   ar
    35    32    27   ar
    36    12    15    1
@<TRIPOS>MOLECULE
*****
 34 36 0 0 0
SMALL
GASTEIGER

@<TRIPOS>ATOM
      1 C          -6.1129  -15.7604   25.3676 C.3     1  UNL1        0.1102
      2 C          -5.9281  -15.7004   23.8803 C.3     1  UNL1        0.0296
      3 C          -4.7305  -16.3442   23.2468 C.3     1  UNL1        0.0730
      4 N          -3.7179  -17.0481   24.1007 N.3     1  UNL1       -0.2689
      5 C          -3.9027  -17.1082   25.5880 C.3     1  UNL1        0.0730
      6 C          -5.1003  -16.4644   26.2215 C.3     1  UNL1        0.0296
      7 C          -6.7231  -15.5507   26.7218 C.2     1  UNL1        0.3177
      8 O          -6.1927  -16.3006   27.9077 O.2     1  UNL1       -0.2501
      9 C          -8.7807  -14.7158   28.0705 C.3     1  UNL1        0.2556
     10 O          -7.8637  -14.5913   26.8901 O.3     1  UNL1       -0.4444
     11 C          -7.3375  -14.9837   24.9841 C.3     1  UNL1        0.1002
     12 N          -8.2813  -15.5315   23.9549 N.am    1  UNL1       -0.3003
     13 C          -9.1411  -16.7166   24.2811 C.2     1  UNL1        0.2461
     14 O          -9.0572  -17.3538   25.6364 O.2     1  UNL1       -0.2701
     15 H          -8.3364  -15.1133   23.0654 H       1  UNL1        0.1498
     16 C         -10.0849  -17.2644   23.2519 C.ar    1  UNL1        0.0594
     17 C          -9.5815  -17.6130   21.8827 C.ar    1  UNL1        0.0416
     18 C         -10.5253  -18.1608   20.8535 C.ar    1  UNL1        0.1419
     19 C         -11.9725  -18.3599   21.1936 C.ar    1  UNL1        0.0738
     20 C         -12.4761  -18.0113   22.5629 C.ar    1  UNL1        0.1419
     21 C         -11.5323  -17.4635   23.5921 C.ar    1  UNL1        0.0416
     22 O         -10.0217  -18.5094   19.4842 O.3     1  UNL1       -0.4713
     23 C          -8.8710  -19.4587   19.3274 C.3     1  UNL1        0.2525
     24 O         -13.9233  -18.2104   22.9030 O.3     1  UNL1       -0.4713
     25 C         -14.3613  -18.2269   24.3376 C.3     1  UNL1        0.2525
     26 C          -2.5203  -17.6920   23.4671 C.3     1  UNL1        0.0992
     27 C          -2.5758  -18.1327   22.0344 C.ar    1  UNL1       -0.0031
     28 C          -1.8355  -17.3602   20.9830 C.ar    1  UNL1       -0.0027
     29 C          -1.8909  -17.8009   19.5502 C.ar    1  UNL1        0.0028
     30 C          -2.6866  -19.0139   19.1689 C.ar    1  UNL1        0.0369
     31 C          -3.4268  -19.7864   20.2203 C.ar    1  UNL1        0.1385
     32 C          -3.3714  -19.3457   21.6530 C.ar    1  UNL1        0.0340
     33 O          -4.2224  -20.9994   19.8389 O.3     1  UNL1       -0.4714
     34 C          -5.6745  -21.0893   20.2039 C.3     1  UNL1        0.2525
@<TRIPOS>BOND
     1     9    10    1
     2    10     7    1
     3     7     8    2
     4     7     1    1
     5     1    11    1
     6    11    12    1
     7    12    13   am
     8    13    14    2
     9    13    16    1
    10    16    17   ar
    11    17    18   ar
    12    18    22    1
    13    22    23    1
    14    18    19   ar
    15    19    20   ar
    16    20    24    1
    17    24    25    1
    18    20    21   ar
    19     1     2    1
    20     2     3    1
    21     3     4    1
    22     4    26    1
    23    26    27    1
    24    27    28   ar
    25    28    29   ar
    26    29    30   ar
    27    30    31   ar
    28    31    33    1
    29    33    34    1
    30    31    32   ar
    31     4     5    1
    32     5     6    1
    33     6     1    1
    34    21    16   ar
    35    32    27   ar
    36    12    15    1
@<TRIPOS>MOLECULE
*****
 34 36 0 0 0
SMALL
GASTEIGER

@<TRIPOS>ATOM
      1 C          -3.3470  -18.6910   21.7772 C.3     1  UNL1        0.1102
      2 C          -4.7019  -18.7189   22.4201 C.3     1  UNL1        0.0296
      3 C          -5.1438  -17.5783   23.2883 C.3     1  UNL1        0.0730
      4 N          -4.2307  -16.4097   23.5134 N.3     1  UNL1       -0.2689
      5 C          -2.8758  -16.3817   22.8705 C.3     1  UNL1        0.0730
      6 C          -2.4339  -17.5223   22.0023 C.3     1  UNL1        0.0296
      7 C          -2.1668  -19.1207   20.9570 C.2     1  UNL1        0.3177
      8 O          -1.6908  -20.5420   21.0151 O.2     1  UNL1       -0.2501
      9 C          -1.7640  -18.0812   18.6103 C.3     1  UNL1        0.2556
     10 O          -1.4628  -18.1292   20.0789 O.3     1  UNL1       -0.4444
     11 C          -3.8502  -20.0088   21.2672 C.3     1  UNL1        0.1002
     12 N          -5.3230  -20.2317   21.0904 N.am    1  UNL1       -0.3003
     13 C          -6.1046  -19.3661   20.1469 C.2     1  UNL1        0.2461
     14 O          -5.4134  -18.2778   19.3803 O.2     1  UNL1       -0.2701
     15 H          -5.7767  -20.9460   21.5935 H       1  UNL1        0.1498
     16 C          -7.5773  -19.5890   19.9700 C.ar    1  UNL1        0.0594
     17 C          -8.5148  -19.3514   21.1166 C.ar    1  UNL1        0.0416
     18 C          -9.9876  -19.5743   20.9398 C.ar    1  UNL1        0.1419
     19 C         -10.5229  -20.0348   19.6164 C.ar    1  UNL1        0.0738
     20 C          -9.5854  -20.2725   18.4698 C.ar    1  UNL1        0.1419
     21 C          -8.1126  -20.0496   18.6466 C.ar    1  UNL1        0.0416
     22 O         -10.9251  -19.3366   22.0864 O.3     1  UNL1       -0.4713
     23 C         -10.6474  -19.9576   23.4233 C.3     1  UNL1        0.2525
     24 O         -10.1207  -20.7330   17.1464 O.3     1  UNL1       -0.4713
     25 C          -9.2410  -21.5069   16.2098 C.3     1  UNL1        0.2525
     26 C          -4.6726  -15.2690   24.3816 C.3     1  UNL1        0.0992
     27 C          -5.9718  -15.3530   25.1264 C.ar    1  UNL1       -0.0031
     28 C          -5.9873  -15.2425   26.6223 C.ar    1  UNL1       -0.0027
     29 C          -7.2866  -15.3265   27.3673 C.ar    1  UNL1        0.0028
     30 C          -8.5704  -15.5209   26.6163 C.ar    1  UNL1        0.0369
     31 C          -8.5550  -15.6313   25.1204 C.ar    1  UNL1        0.1385
     32 C          -7.2557  -15.5473   24.3756 C.ar    1  UNL1        0.0340
     33 O          -9.8388  -15.8256   24.3695 O.3     1  UNL1       -0.4714
     34 C          -9.8107  -16.2837   22.9415 C.3     1  UNL1        0.2525
@<TRIPOS>BOND
     1     9    10    1
     2    10     7    1
     3     7     8    2
     4     7     1    1
     5     1    11    1
     6    11    12    1
     7    12    13   am
     8    13    14    2
     9    13    16    1
    10    16    17   ar
    11    17    18   ar
    12    18    22    1
    13    22    23    1
    14    18    19   ar
    15    19    20   ar
    16    20    24    1
    17    24    25    1
    18    20    21   ar
    19     1     2    1
    20     2     3    1
    21     3     4    1
    22     4    26    1
    23    26    27    1
    24    27    28   ar
    25    28    29   ar
    26    29    30   ar
    27    30    31   ar
    28    31    33    1
    29    33    34    1
    30    31    32   ar
    31     4     5    1
    32     5     6    1
    33     6     1    1
    34    21    16   ar
    35    32    27   ar
    36    12    15    1
