@<TRIPOS>MOLECULE
*****
 41 44 0 0 0
SMALL
GASTEIGER

@<TRIPOS>ATOM
      1 C           7.2343   -6.2605   26.6226 C.3     1  UNL1        0.0889
      2 C           6.6596   -5.1544   27.4570 C.3     1  UNL1        0.0383
      3 C           7.0523   -3.8493   26.8306 C.3     1  UNL1        0.0739
      4 N           7.8698   -4.1487   25.6090 N.3     1  UNL1       -0.2700
      5 C           7.9822   -5.6390   25.4805 C.3     1  UNL1        0.0919
      6 O           9.3569   -7.7327   28.1483 O.2     1  UNL1       -0.2733
      7 C           8.1483   -8.4662   27.6471 C.2     1  UNL1        0.2425
      8 N           7.0870   -7.7302   26.8843 N.am    1  UNL1       -0.3032
      9 H           6.2938   -8.2117   26.5554 H       1  UNL1        0.1495
     10 C           8.0009   -9.9358   27.9088 C.3     1  UNL1        0.1759
     11 N           6.6744  -10.6051   27.7024 N.am    1  UNL1       -0.2931
     12 C           6.4783  -12.0293   28.1303 C.2     1  UNL1        0.2462
     13 O           7.6086  -12.7843   28.7646 O.2     1  UNL1       -0.2701
     14 H           5.9325  -10.1096   27.2861 H       1  UNL1        0.1502
     15 C           5.1518  -12.6986   27.9240 C.ar    1  UNL1        0.0533
     16 C           4.8705  -13.4271   26.6434 C.ar    1  UNL1        0.0045
     17 C           3.5440  -14.0964   26.4371 C.ar    1  UNL1        0.0001
     18 C           2.4989  -14.0371   27.5114 C.ar    1  UNL1        0.0039
     19 C           2.7802  -13.3085   28.7920 C.ar    1  UNL1        0.0716
     20 C           4.1067  -12.6393   28.9983 C.ar    1  UNL1        0.0084
     21 C           1.7351  -13.2492   29.8663 C.3     1  UNL1        0.4186
     22 F           0.6899  -13.1899   30.9407 F       1  UNL1       -0.1659
     23 F           0.9642  -14.3354   29.1764 F       1  UNL1       -0.1659
     24 F           2.5059  -12.1631   30.5563 F       1  UNL1       -0.1659
     25 C           8.4694   -3.1358   24.6793 C.3     1  UNL1        0.0897
     26 C           7.6815   -1.9226   24.2829 C.3     1  UNL1        0.0897
     27 N           6.6352   -2.0244   23.2130 N.3     1  UNL1       -0.2686
     28 C           5.8220   -0.8198   22.8421 C.3     1  UNL1        0.0939
     29 C           4.7756   -0.9217   21.7721 C.3     1  UNL1        0.1110
     30 N           4.5427   -2.2282   21.0730 N.am    1  UNL1       -0.2732
     31 C           3.4963   -2.3300   20.0029 C.2     1  UNL1        0.2513
     32 O           3.2633   -3.6365   19.3038 O.2     1  UNL1       -0.2698
     33 C           5.3559   -3.4328   21.4438 C.3     1  UNL1        0.1110
     34 C           6.4022   -3.3309   22.5138 C.3     1  UNL1        0.0939
     35 C           2.6831   -1.1254   19.6321 C.ar    1  UNL1        0.0810
     36 C           1.3690   -0.8703   20.3088 C.ar    1  UNL1        0.0068
     37 C           0.5558    0.3343   19.9380 C.ar    1  UNL1        0.0003
     38 C           1.0567    1.2838   18.8904 C.ar    1  UNL1        0.0023
     39 C           2.3709    1.0287   18.2136 C.ar    1  UNL1        0.0298
     40 C           3.1841   -0.1759   18.5845 C.ar    1  UNL1        0.1445
     41 F           4.4982   -0.4310   17.9077 F       1  UNL1       -0.2040
@<TRIPOS>BOND
     1     6     7    2
     2     7    10    1
     3    10    11    1
     4    11    12   am
     5    12    13    2
     6    12    15    1
     7    15    16   ar
     8    16    17   ar
     9    17    18   ar
    10    18    19   ar
    11    19    21    1
    12    21    22    1
    13    21    23    1
    14    21    24    1
    15    19    20   ar
    16     7     8   am
    17     1     8    1
    18     1     2    1
    19     2     3    1
    20     3     4    1
    21     4    25    1
    22    25    26    1
    23    26    27    1
    24    27    28    1
    25    28    29    1
    26    29    30    1
    27    30    31   am
    28    31    32    2
    29    31    35    1
    30    35    36   ar
    31    36    37   ar
    32    37    38   ar
    33    38    39   ar
    34    39    40   ar
    35    40    41    1
    36    30    33    1
    37    33    34    1
    38     4     5    1
    39    20    15   ar
    40     5     1    1
    41    34    27    1
    42    40    35   ar
    43    11    14    1
    44     8     9    1
@<TRIPOS>MOLECULE
*****
 41 44 0 0 0
SMALL
GASTEIGER

@<TRIPOS>ATOM
      1 C           7.5954   -6.0714   26.3623 C.3     1  UNL1        0.0889
      2 C           8.6728   -5.3062   25.6526 C.3     1  UNL1        0.0383
      3 C           8.3630   -3.8440   25.7791 C.3     1  UNL1        0.0739
      4 N           7.0941   -3.7055   26.5671 N.3     1  UNL1       -0.2700
      5 C           6.6197   -5.0821   26.9275 C.3     1  UNL1        0.0919
      6 O           8.6769   -7.4407   28.8027 O.2     1  UNL1       -0.2733
      7 C           8.0496   -8.2485   27.7055 C.2     1  UNL1        0.2425
      8 N           7.5088   -7.5639   26.4853 N.am    1  UNL1       -0.3032
      9 H           7.0971   -8.0941   25.7651 H       1  UNL1        0.1495
     10 C           7.9630   -9.7409   27.8284 C.3     1  UNL1        0.1759
     11 N           6.6426  -10.4321   27.6583 N.am    1  UNL1       -0.2931
     12 C           6.4896  -11.8677   28.0654 C.2     1  UNL1        0.2462
     13 O           7.6570  -12.6120   28.6426 O.2     1  UNL1       -0.2701
     14 H           5.8764   -9.9436   27.2795 H       1  UNL1        0.1502
     15 C           5.1692  -12.5589   27.8954 C.ar    1  UNL1        0.0533
     16 C           4.8604  -13.2823   26.6182 C.ar    1  UNL1        0.0045
     17 C           3.5401  -13.9735   26.4482 C.ar    1  UNL1        0.0001
     18 C           2.5286  -13.9413   27.5553 C.ar    1  UNL1        0.0039
     19 C           2.8374  -13.2178   28.8325 C.ar    1  UNL1        0.0716
     20 C           4.1577  -12.5267   29.0025 C.ar    1  UNL1        0.0084
     21 C           1.8259  -13.1856   29.9397 C.3     1  UNL1        0.4186
     22 F           0.8144  -13.1534   31.0468 F       1  UNL1       -0.1659
     23 F           1.0280  -14.2468   29.2417 F       1  UNL1       -0.1659
     24 F           2.6238  -12.1244   30.6377 F       1  UNL1       -0.1659
     25 C           6.4183   -2.4167   26.9307 C.3     1  UNL1        0.0897
     26 C           6.2730   -2.0266   28.3718 C.3     1  UNL1        0.0897
     27 N           5.0943   -1.2103   28.8126 N.3     1  UNL1       -0.2686
     28 C           4.2610   -0.4869   27.7966 C.3     1  UNL1        0.0939
     29 C           3.0822    0.3295   28.2374 C.3     1  UNL1        0.1110
     30 N           2.7370    0.4224   29.6942 N.am    1  UNL1       -0.2732
     31 C           1.5583    1.2388   30.1350 C.2     1  UNL1        0.2513
     32 O           1.2130    1.3317   31.5917 O.2     1  UNL1       -0.2698
     33 C           3.5703   -0.3010   30.7101 C.3     1  UNL1        0.1110
     34 C           4.7490   -1.1174   30.2694 C.3     1  UNL1        0.0939
     35 C           0.7249    1.9622   29.1190 C.ar    1  UNL1        0.0810
     36 C           1.0015    3.4039   28.8114 C.ar    1  UNL1        0.0068
     37 C           0.1682    4.1273   27.7954 C.ar    1  UNL1        0.0003
     38 C          -0.9418    3.4089   27.0871 C.ar    1  UNL1        0.0023
     39 C          -1.2184    1.9671   27.3947 C.ar    1  UNL1        0.0298
     40 C          -0.3851    1.2437   28.4107 C.ar    1  UNL1        0.1445
     41 F          -0.6617   -0.1981   28.7183 F       1  UNL1       -0.2040
@<TRIPOS>BOND
     1     6     7    2
     2     7    10    1
     3    10    11    1
     4    11    12   am
     5    12    13    2
     6    12    15    1
     7    15    16   ar
     8    16    17   ar
     9    17    18   ar
    10    18    19   ar
    11    19    21    1
    12    21    22    1
    13    21    23    1
    14    21    24    1
    15    19    20   ar
    16     7     8   am
    17     1     8    1
    18     1     2    1
    19     2     3    1
    20     3     4    1
    21     4    25    1
    22    25    26    1
    23    26    27    1
    24    27    28    1
    25    28    29    1
    26    29    30    1
    27    30    31   am
    28    31    32    2
    29    31    35    1
    30    35    36   ar
    31    36    37   ar
    32    37    38   ar
    33    38    39   ar
    34    39    40   ar
    35    40    41    1
    36    30    33    1
    37    33    34    1
    38     4     5    1
    39    20    15   ar
    40     5     1    1
    41    34    27    1
    42    40    35   ar
    43    11    14    1
    44     8     9    1
@<TRIPOS>MOLECULE
*****
 41 44 0 0 0
SMALL
GASTEIGER

@<TRIPOS>ATOM
      1 C           7.3442   -5.8494   28.6508 C.3     1  UNL1        0.0889
      2 C           7.6906   -4.5791   27.9321 C.3     1  UNL1        0.0383
      3 C           7.6462   -3.4570   28.9265 C.3     1  UNL1        0.0739
      4 N           7.2723   -4.0337   30.2598 N.3     1  UNL1       -0.2700
      5 C           7.0857   -5.5123   30.0894 C.3     1  UNL1        0.0919
      6 O           9.4242   -7.9065   29.3156 O.2     1  UNL1       -0.2733
      7 C           8.3094   -8.2452   28.3708 C.2     1  UNL1        0.2425
      8 N           7.2695   -7.2167   28.0384 N.am    1  UNL1       -0.3032
      9 H           6.5378   -7.4390   27.4183 H       1  UNL1        0.1495
     10 C           8.2347   -9.6124   27.7584 C.3     1  UNL1        0.1759
     11 N           6.9088  -10.2999   27.6181 N.am    1  UNL1       -0.2931
     12 C           6.7791  -11.7554   27.9566 C.2     1  UNL1        0.2462
     13 O           7.9753  -12.5236   28.4354 O.2     1  UNL1       -0.2701
     14 H           6.1238   -9.7958   27.3038 H       1  UNL1        0.1502
     15 C           5.4533  -12.4429   27.8162 C.ar    1  UNL1        0.0533
     16 C           5.1324  -13.2049   26.5647 C.ar    1  UNL1        0.0045
     17 C           3.8066  -13.8923   26.4244 C.ar    1  UNL1        0.0001
     18 C           2.8018  -13.8177   27.5356 C.ar    1  UNL1        0.0039
     19 C           3.1227  -13.0557   28.7871 C.ar    1  UNL1        0.0716
     20 C           4.4485  -12.3683   28.9274 C.ar    1  UNL1        0.0084
     21 C           2.1179  -12.9811   29.8983 C.3     1  UNL1        0.4186
     22 F           1.1130  -12.9065   31.0095 F       1  UNL1       -0.1659
     23 F           2.9170  -11.8904   30.5477 F       1  UNL1       -0.1659
     24 F           1.3187  -14.0717   29.2488 F       1  UNL1       -0.1659
     25 C           7.1130   -3.2666   31.5389 C.3     1  UNL1        0.0897
     26 C           5.9142   -2.3883   31.7423 C.3     1  UNL1        0.0897
     27 N           5.8685   -1.4385   32.9024 N.3     1  UNL1       -0.2686
     28 C           4.5514   -1.0692   33.5179 C.3     1  UNL1        0.0939
     29 C           4.5058   -0.1192   34.6780 C.3     1  UNL1        0.1110
     30 N           5.7772    0.4612   35.2224 N.am    1  UNL1       -0.2732
     31 C           5.7316    1.4111   36.3825 C.2     1  UNL1        0.2513
     32 O           7.0030    1.9917   36.9270 O.2     1  UNL1       -0.2698
     33 C           7.0943    0.0919   34.6069 C.3     1  UNL1        0.1110
     34 C           7.1400   -0.8579   33.4468 C.3     1  UNL1        0.0939
     35 C           4.4145    1.7805   36.9980 C.ar    1  UNL1        0.0810
     36 C           3.8600    0.9651   38.1283 C.ar    1  UNL1        0.0068
     37 C           2.5429    1.3344   38.7438 C.ar    1  UNL1        0.0003
     38 C           1.7804    2.5191   38.2290 C.ar    1  UNL1        0.0023
     39 C           2.3350    3.3345   37.0987 C.ar    1  UNL1        0.0298
     40 C           3.6520    2.9652   36.4832 C.ar    1  UNL1        0.1445
     41 F           4.2066    3.7806   35.3529 F       1  UNL1       -0.2040
@<TRIPOS>BOND
     1     6     7    2
     2     7    10    1
     3    10    11    1
     4    11    12   am
     5    12    13    2
     6    12    15    1
     7    15    16   ar
     8    16    17   ar
     9    17    18   ar
    10    18    19   ar
    11    19    21    1
    12    21    22    1
    13    21    23    1
    14    21    24    1
    15    19    20   ar
    16     7     8   am
    17     1     8    1
    18     1     2    1
    19     2     3    1
    20     3     4    1
    21     4    25    1
    22    25    26    1
    23    26    27    1
    24    27    28    1
    25    28    29    1
    26    29    30    1
    27    30    31   am
    28    31    32    2
    29    31    35    1
    30    35    36   ar
    31    36    37   ar
    32    37    38   ar
    33    38    39   ar
    34    39    40   ar
    35    40    41    1
    36    30    33    1
    37    33    34    1
    38     4     5    1
    39    20    15   ar
    40     5     1    1
    41    34    27    1
    42    40    35   ar
    43    11    14    1
    44     8     9    1
@<TRIPOS>MOLECULE
*****
 41 44 0 0 0
SMALL
GASTEIGER

@<TRIPOS>ATOM
      1 C           7.2619   -6.3624   26.4579 C.3     1  UNL1        0.0889
      2 C           8.1241   -5.7177   25.4133 C.3     1  UNL1        0.0383
      3 C           7.9622   -4.2312   25.5315 C.3     1  UNL1        0.0739
      4 N           6.9999   -3.9571   26.6491 N.3     1  UNL1       -0.2700
      5 C           6.5672   -5.2742   27.2216 C.3     1  UNL1        0.0919
      6 O           9.0464   -7.7406   28.4369 O.2     1  UNL1       -0.2733
      7 C           8.0117   -8.5255   27.6863 C.2     1  UNL1        0.2425
      8 N           7.1195   -7.8364   26.6968 N.am    1  UNL1       -0.3032
      9 H           6.4404   -8.3516   26.2042 H       1  UNL1        0.1495
     10 C           7.8692   -9.9994   27.9252 C.3     1  UNL1        0.1759
     11 N           6.5380  -10.6646   27.7366 N.am    1  UNL1       -0.2931
     12 C           6.3571  -12.1030   28.1215 C.2     1  UNL1        0.2462
     13 O           7.5073  -12.8763   28.6950 O.2     1  UNL1       -0.2701
     14 H           5.7831  -10.1570   27.3601 H       1  UNL1        0.1502
     15 C           5.0259  -12.7682   27.9329 C.ar    1  UNL1        0.0533
     16 C           4.7435  -13.5382   26.6770 C.ar    1  UNL1        0.0045
     17 C           3.4123  -14.2033   26.4885 C.ar    1  UNL1        0.0001
     18 C           2.3636  -14.0984   27.5558 C.ar    1  UNL1        0.0039
     19 C           2.6460  -13.3284   28.8117 C.ar    1  UNL1        0.0716
     20 C           3.9772  -12.6632   29.0002 C.ar    1  UNL1        0.0084
     21 C           1.5973  -13.2234   29.8790 C.3     1  UNL1        0.4186
     22 F           0.5485  -13.1185   30.9463 F       1  UNL1       -0.1659
     23 F           2.4932  -12.3173   30.6702 F       1  UNL1       -0.1659
     24 F           0.7013  -14.1296   29.0877 F       1  UNL1       -0.1659
     25 C           6.5496   -2.6035   27.1127 C.3     1  UNL1        0.0897
     26 C           6.7612   -1.4027   26.2390 C.3     1  UNL1        0.0897
     27 N           6.0630   -1.3062   24.9150 N.3     1  UNL1       -0.2686
     28 C           6.8431   -0.9710   23.6784 C.3     1  UNL1        0.0939
     29 C           6.1448   -0.8745   22.3543 C.3     1  UNL1        0.1110
     30 N           4.6665   -1.1131   22.2669 N.am    1  UNL1       -0.2732
     31 C           3.9682   -1.0165   20.9428 C.2     1  UNL1        0.2513
     32 O           2.4899   -1.2551   20.8553 O.2     1  UNL1       -0.2698
     33 C           3.8864   -1.4482   23.5035 C.3     1  UNL1        0.1110
     34 C           4.5847   -1.5448   24.8275 C.3     1  UNL1        0.0939
     35 C           4.7483   -0.6814   19.7062 C.ar    1  UNL1        0.0810
     36 C           5.5514   -1.7432   19.0153 C.ar    1  UNL1        0.0068
     37 C           6.3315   -1.4080   17.7787 C.ar    1  UNL1        0.0003
     38 C           6.3084   -0.0110   17.2331 C.ar    1  UNL1        0.0023
     39 C           5.5053    1.0509   17.9241 C.ar    1  UNL1        0.0298
     40 C           4.7252    0.7157   19.1606 C.ar    1  UNL1        0.1445
     41 F           3.9221    1.7776   19.8516 F       1  UNL1       -0.2040
@<TRIPOS>BOND
     1     6     7    2
     2     7    10    1
     3    10    11    1
     4    11    12   am
     5    12    13    2
     6    12    15    1
     7    15    16   ar
     8    16    17   ar
     9    17    18   ar
    10    18    19   ar
    11    19    21    1
    12    21    22    1
    13    21    23    1
    14    21    24    1
    15    19    20   ar
    16     7     8   am
    17     1     8    1
    18     1     2    1
    19     2     3    1
    20     3     4    1
    21     4    25    1
    22    25    26    1
    23    26    27    1
    24    27    28    1
    25    28    29    1
    26    29    30    1
    27    30    31   am
    28    31    32    2
    29    31    35    1
    30    35    36   ar
    31    36    37   ar
    32    37    38   ar
    33    38    39   ar
    34    39    40   ar
    35    40    41    1
    36    30    33    1
    37    33    34    1
    38     4     5    1
    39    20    15   ar
    40     5     1    1
    41    34    27    1
    42    40    35   ar
    43    11    14    1
    44     8     9    1
@<TRIPOS>MOLECULE
*****
 41 44 0 0 0
SMALL
GASTEIGER

@<TRIPOS>ATOM
      1 C           7.8942   -6.0845   27.8231 C.3     1  UNL1        0.0889
      2 C           8.4779   -5.0012   28.6809 C.3     1  UNL1        0.0383
      3 C           8.5526   -3.7487   27.8589 C.3     1  UNL1        0.0739
      4 N           8.0151   -4.0579   26.4930 N.3     1  UNL1       -0.2700
      5 C           7.6082   -5.5015   26.4709 C.3     1  UNL1        0.0919
      6 O           9.3349   -8.3342   26.4581 O.2     1  UNL1       -0.2733
      7 C           8.3614   -8.6268   27.5611 C.2     1  UNL1        0.2425
      8 N           7.6410   -7.5019   28.2436 N.am    1  UNL1       -0.3032
      9 H           7.0021   -7.6939   28.9676 H       1  UNL1        0.1495
     10 C           8.1081  -10.0441   27.9816 C.3     1  UNL1        0.1759
     11 N           6.7545  -10.6570   27.7761 N.am    1  UNL1       -0.2931
     12 C           6.5352  -12.1097   28.0785 C.2     1  UNL1        0.2462
     13 O           7.6695  -12.9496   28.5864 O.2     1  UNL1       -0.2701
     14 H           6.0100  -10.1058   27.4428 H       1  UNL1        0.1502
     15 C           5.1816  -12.7226   27.8730 C.ar    1  UNL1        0.0533
     16 C           4.8478  -13.3834   26.5684 C.ar    1  UNL1        0.0045
     17 C           3.4942  -13.9963   26.3630 C.ar    1  UNL1        0.0001
     18 C           2.4745  -13.9483   27.4620 C.ar    1  UNL1        0.0039
     19 C           2.8084  -13.2875   28.7665 C.ar    1  UNL1        0.0716
     20 C           4.1619  -12.6747   28.9720 C.ar    1  UNL1        0.0084
     21 C           1.7887  -13.2396   29.8656 C.3     1  UNL1        0.4186
     22 F           0.7690  -13.1916   30.9647 F       1  UNL1       -0.1659
     23 F           2.5574  -12.1365   30.5307 F       1  UNL1       -0.1659
     24 F           1.0199  -14.3426   29.2005 F       1  UNL1       -0.1659
     25 C           7.9040   -3.0929   25.3500 C.3     1  UNL1        0.0897
     26 C           8.6499   -3.3520   24.0746 C.3     1  UNL1        0.0897
     27 N           8.3183   -2.5682   22.8395 N.3     1  UNL1       -0.2686
     28 C           6.8890   -2.4100   22.4128 C.3     1  UNL1        0.0939
     29 C           6.5574   -1.6262   21.1775 C.3     1  UNL1        0.1110
     30 N           7.6551   -1.0006   20.3691 N.am    1  UNL1       -0.2732
     31 C           7.3235   -0.2168   19.1339 C.2     1  UNL1        0.2513
     32 O           8.4212    0.4089   18.3254 O.2     1  UNL1       -0.2698
     33 C           9.0844   -1.1588   20.7958 C.3     1  UNL1        0.1110
     34 C           9.4160   -1.9426   22.0310 C.3     1  UNL1        0.0939
     35 C           5.8942   -0.0586   18.7072 C.ar    1  UNL1        0.0810
     36 C           5.1208    1.1606   19.1134 C.ar    1  UNL1        0.0068
     37 C           3.6915    1.3188   18.6868 C.ar    1  UNL1        0.0003
     38 C           3.0357    0.2576   17.8538 C.ar    1  UNL1        0.0023
     39 C           3.8092   -0.9617   17.4475 C.ar    1  UNL1        0.0298
     40 C           5.2385   -1.1198   17.8742 C.ar    1  UNL1        0.1445
     41 F           6.0119   -2.3390   17.4679 F       1  UNL1       -0.2040
@<TRIPOS>BOND
     1     6     7    2
     2     7    10    1
     3    10    11    1
     4    11    12   am
     5    12    13    2
     6    12    15    1
     7    15    16   ar
     8    16    17   ar
     9    17    18   ar
    10    18    19   ar
    11    19    21    1
    12    21    22    1
    13    21    23    1
    14    21    24    1
    15    19    20   ar
    16     7     8   am
    17     1     8    1
    18     1     2    1
    19     2     3    1
    20     3     4    1
    21     4    25    1
    22    25    26    1
    23    26    27    1
    24    27    28    1
    25    28    29    1
    26    29    30    1
    27    30    31   am
    28    31    32    2
    29    31    35    1
    30    35    36   ar
    31    36    37   ar
    32    37    38   ar
    33    38    39   ar
    34    39    40   ar
    35    40    41    1
    36    30    33    1
    37    33    34    1
    38     4     5    1
    39    20    15   ar
    40     5     1    1
    41    34    27    1
    42    40    35   ar
    43    11    14    1
    44     8     9    1
@<TRIPOS>MOLECULE
*****
 41 44 0 0 0
SMALL
GASTEIGER

@<TRIPOS>ATOM
      1 C           7.4573   -5.8793   28.6659 C.3     1  UNL1        0.0889
      2 C           7.7028   -4.6281   27.8758 C.3     1  UNL1        0.0383
      3 C           7.7956   -3.4822   28.8392 C.3     1  UNL1        0.0739
      4 N           7.6074   -4.0251   30.2248 N.3     1  UNL1       -0.2700
      5 C           7.3983   -5.5066   30.1176 C.3     1  UNL1        0.0919
      6 O           9.5351   -7.9717   29.2176 O.2     1  UNL1       -0.2733
      7 C           8.3375   -8.3068   28.3789 C.2     1  UNL1        0.2425
      8 N           7.2986   -7.2606   28.1030 N.am    1  UNL1       -0.3032
      9 H           6.5126   -7.4806   27.5525 H       1  UNL1        0.1495
     10 C           8.1787   -9.6881   27.8161 C.3     1  UNL1        0.1759
     11 N           6.8126  -10.2952   27.6923 N.am    1  UNL1       -0.2931
     12 C           6.6094  -11.7516   27.9881 C.2     1  UNL1        0.2462
     13 O           7.7724  -12.6010   28.4076 O.2     1  UNL1       -0.2701
     14 H           6.0493   -9.7377   27.4169 H       1  UNL1        0.1502
     15 C           5.2433  -12.3586   27.8643 C.ar    1  UNL1        0.0533
     16 C           4.8238  -13.0054   26.5776 C.ar    1  UNL1        0.0045
     17 C           3.4577  -13.6124   26.4539 C.ar    1  UNL1        0.0001
     18 C           2.5112  -13.5726   27.6168 C.ar    1  UNL1        0.0039
     19 C           2.9307  -12.9258   28.9035 C.ar    1  UNL1        0.0716
     20 C           4.2968  -12.3188   29.0272 C.ar    1  UNL1        0.0084
     21 C           1.9841  -12.8861   30.0665 C.3     1  UNL1        0.4186
     22 F           1.0376  -12.8463   31.2294 F       1  UNL1       -0.1659
     23 F           1.1096  -13.8993   29.3893 F       1  UNL1       -0.1659
     24 F           2.8587  -11.8728   30.7436 F       1  UNL1       -0.1659
     25 C           7.6251   -3.2268   31.4946 C.3     1  UNL1        0.0897
     26 C           6.3995   -3.1620   32.3569 C.3     1  UNL1        0.0897
     27 N           5.3556   -2.1162   32.0993 N.3     1  UNL1       -0.2686
     28 C           5.0482   -1.6938   30.6932 C.3     1  UNL1        0.0939
     29 C           4.0042   -0.6479   30.4354 C.3     1  UNL1        0.1110
     30 N           3.2677   -0.0245   31.5839 N.am    1  UNL1       -0.2732
     31 C           2.2238    1.0214   31.3262 C.2     1  UNL1        0.2513
     32 O           1.4872    1.6448   32.4746 O.2     1  UNL1       -0.2698
     33 C           3.5751   -0.4469   32.9900 C.3     1  UNL1        0.1110
     34 C           4.6190   -1.4927   33.2477 C.3     1  UNL1        0.0939
     35 C           1.9164    1.4438   29.9201 C.ar    1  UNL1        0.0810
     36 C           0.7286    0.8689   29.2070 C.ar    1  UNL1        0.0068
     37 C           0.4213    1.2913   27.8009 C.ar    1  UNL1        0.0003
     38 C           1.3017    2.2885   27.1080 C.ar    1  UNL1        0.0023
     39 C           2.4895    2.8635   27.8211 C.ar    1  UNL1        0.0298
     40 C           2.7969    2.4411   29.2272 C.ar    1  UNL1        0.1445
     41 F           3.9847    3.0159   29.9403 F       1  UNL1       -0.2040
@<TRIPOS>BOND
     1     6     7    2
     2     7    10    1
     3    10    11    1
     4    11    12   am
     5    12    13    2
     6    12    15    1
     7    15    16   ar
     8    16    17   ar
     9    17    18   ar
    10    18    19   ar
    11    19    21    1
    12    21    22    1
    13    21    23    1
    14    21    24    1
    15    19    20   ar
    16     7     8   am
    17     1     8    1
    18     1     2    1
    19     2     3    1
    20     3     4    1
    21     4    25    1
    22    25    26    1
    23    26    27    1
    24    27    28    1
    25    28    29    1
    26    29    30    1
    27    30    31   am
    28    31    32    2
    29    31    35    1
    30    35    36   ar
    31    36    37   ar
    32    37    38   ar
    33    38    39   ar
    34    39    40   ar
    35    40    41    1
    36    30    33    1
    37    33    34    1
    38     4     5    1
    39    20    15   ar
    40     5     1    1
    41    34    27    1
    42    40    35   ar
    43    11    14    1
    44     8     9    1
@<TRIPOS>MOLECULE
*****
 41 44 0 0 0
SMALL
GASTEIGER

@<TRIPOS>ATOM
      1 C           7.4855   -6.1659   27.5973 C.3     1  UNL1        0.0889
      2 C           8.0237   -5.2325   26.5537 C.3     1  UNL1        0.0383
      3 C           7.9825   -3.8405   27.1112 C.3     1  UNL1        0.0739
      4 N           7.4188   -3.9136   28.4994 N.3     1  UNL1       -0.2700
      5 C           7.1116   -5.3508   28.7998 C.3     1  UNL1        0.0919
      6 O           9.5263   -7.9831   28.8354 O.2     1  UNL1       -0.2733
      7 C           8.3660   -8.5618   28.0813 C.2     1  UNL1        0.2425
      8 N           7.3456   -7.6533   27.4622 N.am    1  UNL1       -0.3032
      9 H           6.5840   -8.0331   26.9672 H       1  UNL1        0.1495
     10 C           8.2260  -10.0491   27.9461 C.3     1  UNL1        0.1759
     11 N           6.8776  -10.6557   27.6934 N.am    1  UNL1       -0.2931
     12 C           6.5776  -12.0442   28.1751 C.2     1  UNL1        0.2462
     13 O           7.6259  -12.8262   28.9096 O.2     1  UNL1       -0.2701
     14 H           6.1895  -10.1425   27.2113 H       1  UNL1        0.1502
     15 C           5.2291  -12.6508   27.9223 C.ar    1  UNL1        0.0533
     16 C           4.9252  -13.2760   26.5931 C.ar    1  UNL1        0.0045
     17 C           3.5769  -13.8826   26.3404 C.ar    1  UNL1        0.0001
     18 C           2.5324  -13.8639   27.4168 C.ar    1  UNL1        0.0039
     19 C           2.8363  -13.2387   28.7460 C.ar    1  UNL1        0.0716
     20 C           4.1847  -12.6321   28.9987 C.ar    1  UNL1        0.0084
     21 C           1.7918  -13.2200   29.8224 C.3     1  UNL1        0.4186
     22 F           0.7473  -13.2014   30.8988 F       1  UNL1       -0.1659
     23 F           1.0028  -14.2537   29.0748 F       1  UNL1       -0.1659
     24 F           2.5808  -12.1863   30.5701 F       1  UNL1       -0.1659
     25 C           7.2007   -2.7533   29.4246 C.3     1  UNL1        0.0897
     26 C           6.0181   -1.8512   29.2303 C.3     1  UNL1        0.0897
     27 N           5.4772   -1.0642   30.3870 N.3     1  UNL1       -0.2686
     28 C           6.3705   -0.7163   31.5406 C.3     1  UNL1        0.0939
     29 C           5.8296    0.0707   32.6974 C.3     1  UNL1        0.1110
     30 N           4.3953    0.5099   32.7003 N.am    1  UNL1       -0.2732
     31 C           3.8544    1.2970   33.8571 C.2     1  UNL1        0.2513
     32 O           2.4201    1.7362   33.8601 O.2     1  UNL1       -0.2698
     33 C           3.5020    0.1620   31.5467 C.3     1  UNL1        0.1110
     34 C           4.0429   -0.6250   30.3900 C.3     1  UNL1        0.0939
     35 C           4.7477    1.6448   35.0108 C.ar    1  UNL1        0.0810
     36 C           5.3739    3.0054   35.0908 C.ar    1  UNL1        0.0068
     37 C           6.2672    3.3533   36.2444 C.ar    1  UNL1        0.0003
     38 C           6.5343    2.3404   37.3181 C.ar    1  UNL1        0.0023
     39 C           5.9081    0.9797   37.2381 C.ar    1  UNL1        0.0298
     40 C           5.0148    0.6319   36.0844 C.ar    1  UNL1        0.1445
     41 F           4.3886   -0.7287   36.0044 F       1  UNL1       -0.2040
@<TRIPOS>BOND
     1     6     7    2
     2     7    10    1
     3    10    11    1
     4    11    12   am
     5    12    13    2
     6    12    15    1
     7    15    16   ar
     8    16    17   ar
     9    17    18   ar
    10    18    19   ar
    11    19    21    1
    12    21    22    1
    13    21    23    1
    14    21    24    1
    15    19    20   ar
    16     7     8   am
    17     1     8    1
    18     1     2    1
    19     2     3    1
    20     3     4    1
    21     4    25    1
    22    25    26    1
    23    26    27    1
    24    27    28    1
    25    28    29    1
    26    29    30    1
    27    30    31   am
    28    31    32    2
    29    31    35    1
    30    35    36   ar
    31    36    37   ar
    32    37    38   ar
    33    38    39   ar
    34    39    40   ar
    35    40    41    1
    36    30    33    1
    37    33    34    1
    38     4     5    1
    39    20    15   ar
    40     5     1    1
    41    34    27    1
    42    40    35   ar
    43    11    14    1
    44     8     9    1
@<TRIPOS>MOLECULE
*****
 41 44 0 0 0
SMALL
GASTEIGER

@<TRIPOS>ATOM
      1 C          -0.2332    1.7806   26.8719 C.3     1  UNL1        0.0889
      2 C          -0.5941    0.6207   27.7520 C.3     1  UNL1        0.0383
      3 C          -0.2389    0.9820   29.1638 C.3     1  UNL1        0.0739
      4 N           0.3416    2.3651   29.1563 N.3     1  UNL1       -0.2700
      5 C           0.3452    2.8586   27.7399 C.3     1  UNL1        0.0919
      6 O           1.9386    0.8113   25.0433 O.2     1  UNL1       -0.2733
      7 C           0.6679    1.3655   24.4707 C.2     1  UNL1        0.2425
      8 N          -0.4180    1.8501   25.3849 N.am    1  UNL1       -0.3032
      9 H          -1.2521    2.2139   25.0091 H       1  UNL1        0.1495
     10 C           0.4829    1.4351   22.9838 C.3     1  UNL1        0.1759
     11 N           1.5121    0.8366   22.0711 N.am    1  UNL1       -0.2931
     12 C           1.1102    0.3291   20.7181 C.2     1  UNL1        0.2462
     13 O          -0.3207    0.4200   20.2775 O.2     1  UNL1       -0.2701
     14 H           2.4513    0.7769   22.3603 H       1  UNL1        0.1502
     15 C           2.1394   -0.2694   19.8054 C.ar    1  UNL1        0.0533
     16 C           2.6809    0.5312   18.6584 C.ar    1  UNL1        0.0045
     17 C           3.7100   -0.0673   17.7459 C.ar    1  UNL1        0.0001
     18 C           4.1975   -1.4663   17.9803 C.ar    1  UNL1        0.0039
     19 C           3.6559   -2.2669   19.1274 C.ar    1  UNL1        0.0716
     20 C           2.6268   -1.6684   20.0399 C.ar    1  UNL1        0.0084
     21 C           4.1434   -3.6660   19.3619 C.3     1  UNL1        0.4186
     22 F           4.6309   -5.0650   19.5964 F       1  UNL1       -0.1659
     23 F           2.7795   -4.1964   19.0328 F       1  UNL1       -0.1659
     24 F           5.5074   -3.1355   19.6909 F       1  UNL1       -0.1659
     25 C           0.8324    3.1218   30.3549 C.3     1  UNL1        0.0897
     26 C           0.7054    2.5223   31.7240 C.3     1  UNL1        0.0897
     27 N           1.8658    1.7936   32.3342 N.3     1  UNL1       -0.2686
     28 C           2.6334    0.7925   31.5226 C.3     1  UNL1        0.0939
     29 C           3.7939    0.0638   32.1329 C.3     1  UNL1        0.1110
     30 N           4.1867    0.3362   33.5546 N.am    1  UNL1       -0.2732
     31 C           5.3472   -0.3925   34.1649 C.2     1  UNL1        0.2513
     32 O           5.7400   -0.1201   35.5867 O.2     1  UNL1       -0.2698
     33 C           3.4191    1.3373   34.3662 C.3     1  UNL1        0.1110
     34 C           2.2587    2.0660   33.7560 C.3     1  UNL1        0.0939
     35 C           6.1147   -1.3936   33.3533 C.ar    1  UNL1        0.0810
     36 C           7.4984   -1.0682   32.8743 C.ar    1  UNL1        0.0068
     37 C           8.2659   -2.0692   32.0627 C.ar    1  UNL1        0.0003
     38 C           7.6498   -3.3958   31.7302 C.ar    1  UNL1        0.0023
     39 C           6.2661   -3.7213   32.2092 C.ar    1  UNL1        0.0298
     40 C           5.4985   -2.7202   33.0208 C.ar    1  UNL1        0.1445
     41 F           4.1149   -3.0456   33.4998 F       1  UNL1       -0.2040
@<TRIPOS>BOND
     1     6     7    2
     2     7    10    1
     3    10    11    1
     4    11    12   am
     5    12    13    2
     6    12    15    1
     7    15    16   ar
     8    16    17   ar
     9    17    18   ar
    10    18    19   ar
    11    19    21    1
    12    21    22    1
    13    21    23    1
    14    21    24    1
    15    19    20   ar
    16     7     8   am
    17     1     8    1
    18     1     2    1
    19     2     3    1
    20     3     4    1
    21     4    25    1
    22    25    26    1
    23    26    27    1
    24    27    28    1
    25    28    29    1
    26    29    30    1
    27    30    31   am
    28    31    32    2
    29    31    35    1
    30    35    36   ar
    31    36    37   ar
    32    37    38   ar
    33    38    39   ar
    34    39    40   ar
    35    40    41    1
    36    30    33    1
    37    33    34    1
    38     4     5    1
    39    20    15   ar
    40     5     1    1
    41    34    27    1
    42    40    35   ar
    43    11    14    1
    44     8     9    1
@<TRIPOS>MOLECULE
*****
 41 44 0 0 0
SMALL
GASTEIGER

@<TRIPOS>ATOM
      1 C           7.1351   -4.7231   25.9993 C.3     1  UNL1        0.0889
      2 C           6.6133   -5.9347   26.7132 C.3     1  UNL1        0.0383
      3 C           6.3508   -5.5547   28.1403 C.3     1  UNL1        0.0739
      4 N           6.7103   -4.1081   28.3084 N.3     1  UNL1       -0.2700
      5 C           7.1950   -3.5942   26.9852 C.3     1  UNL1        0.0919
      6 O           5.3083   -3.4162   24.0105 O.2     1  UNL1       -0.2733
      7 C           6.6146   -3.9992   23.5590 C.2     1  UNL1        0.2425
      8 N           7.5279   -4.6526   24.5533 N.am    1  UNL1       -0.3032
      9 H           8.3852   -5.0352   24.2569 H       1  UNL1        0.1495
     10 C           7.0074   -3.9287   22.1131 C.3     1  UNL1        0.1759
     11 N           6.3544   -2.9280   21.2063 N.am    1  UNL1       -0.2931
     12 C           5.0941   -3.2874   20.4767 C.2     1  UNL1        0.2462
     13 O           4.4867   -4.6474   20.6538 O.2     1  UNL1       -0.2701
     14 H           6.7530   -2.0353   21.0901 H       1  UNL1        0.1502
     15 C           4.4410   -2.2866   19.5699 C.ar    1  UNL1        0.0533
     16 C           5.0704   -1.9463   18.2516 C.ar    1  UNL1        0.0045
     17 C           4.4173   -0.9456   17.3449 C.ar    1  UNL1        0.0001
     18 C           3.1349   -0.2853   17.7565 C.ar    1  UNL1        0.0039
     19 C           2.5056   -0.6256   19.0748 C.ar    1  UNL1        0.0716
     20 C           3.1586   -1.6263   19.9815 C.ar    1  UNL1        0.0084
     21 C           1.2232    0.0347   19.4865 C.3     1  UNL1        0.4186
     22 F          -0.0592    0.6950   19.8981 F       1  UNL1       -0.1659
     23 F           1.2904    0.9192   18.2769 F       1  UNL1       -0.1659
     24 F           1.1560   -0.8498   20.6961 F       1  UNL1       -0.1659
     25 C           6.6039   -3.3149   29.5771 C.3     1  UNL1        0.0897
     26 C           6.6128   -1.8157   29.5272 C.3     1  UNL1        0.0897
     27 N           5.3506   -1.0490   29.7897 N.3     1  UNL1       -0.2686
     28 C           4.5429   -0.5187   28.6425 C.3     1  UNL1        0.0939
     29 C           3.2806    0.2480   28.9050 C.3     1  UNL1        0.1110
     30 N           2.8262    0.4844   30.3149 N.am    1  UNL1       -0.2732
     31 C           1.5639    1.2511   30.5774 C.2     1  UNL1        0.2513
     32 O           1.1095    1.4875   31.9873 O.2     1  UNL1       -0.2698
     33 C           3.6340   -0.0459   31.4621 C.3     1  UNL1        0.1110
     34 C           4.8962   -0.8126   31.1996 C.3     1  UNL1        0.0939
     35 C           0.7562    1.7814   29.4302 C.ar    1  UNL1        0.0810
     36 C           0.9330    3.2018   28.9816 C.ar    1  UNL1        0.0068
     37 C           0.1252    3.7321   27.8344 C.ar    1  UNL1        0.0003
     38 C          -0.8594    2.8420   27.1356 C.ar    1  UNL1        0.0023
     39 C          -1.0362    1.4216   27.5842 C.ar    1  UNL1        0.0298
     40 C          -0.2285    0.8912   28.7315 C.ar    1  UNL1        0.1445
     41 F          -0.4053   -0.5291   29.1800 F       1  UNL1       -0.2040
@<TRIPOS>BOND
     1     6     7    2
     2     7    10    1
     3    10    11    1
     4    11    12   am
     5    12    13    2
     6    12    15    1
     7    15    16   ar
     8    16    17   ar
     9    17    18   ar
    10    18    19   ar
    11    19    21    1
    12    21    22    1
    13    21    23    1
    14    21    24    1
    15    19    20   ar
    16     7     8   am
    17     1     8    1
    18     1     2    1
    19     2     3    1
    20     3     4    1
    21     4    25    1
    22    25    26    1
    23    26    27    1
    24    27    28    1
    25    28    29    1
    26    29    30    1
    27    30    31   am
    28    31    32    2
    29    31    35    1
    30    35    36   ar
    31    36    37   ar
    32    37    38   ar
    33    38    39   ar
    34    39    40   ar
    35    40    41    1
    36    30    33    1
    37    33    34    1
    38     4     5    1
    39    20    15   ar
    40     5     1    1
    41    34    27    1
    42    40    35   ar
    43    11    14    1
    44     8     9    1
