@<TRIPOS>MOLECULE
*****
 26 28 0 0 0
SMALL
GASTEIGER

@<TRIPOS>ATOM
      1 C          -8.9622  -16.8976   22.2986 C.ar    1  UNL1        0.1377
      2 C          -8.6680  -16.0772   23.5195 C.ar    1  UNL1        0.0689
      3 C          -7.2768  -16.0372   24.0788 C.ar    1  UNL1        0.1401
      4 N          -6.1798  -16.8175   23.4173 N.ar    1  UNL1       -0.1947
      5 C          -6.4739  -17.6379   22.1965 C.ar    1  UNL1        0.2550
      6 N          -7.8651  -17.6779   21.6372 N.ar    1  UNL1       -0.1949
      7 N          -5.3768  -18.4182   21.5351 N.ar    1  UNL1       -0.2008
      8 N          -3.9222  -18.0526   21.5170 N.ar    1  UNL1       -0.1673
      9 C          -3.1881  -19.1096   20.7463 C.ar    1  UNL1        0.0806
     10 C          -1.7122  -19.1420   20.4806 C.3     1  UNL1        0.0540
     11 C          -4.1890  -20.1284   20.2880 C.ar    1  UNL1        0.0313
     12 C          -5.5417  -19.7011   20.7755 C.ar    1  UNL1        0.0651
     13 C          -6.8327  -20.4289   20.5440 C.3     1  UNL1        0.0523
     14 C         -11.4258  -17.9179   22.1123 C.3     1  UNL1        0.1037
     15 C         -12.6516  -17.5906   21.3122 C.3     1  UNL1        0.0241
     16 C         -12.3369  -16.4081   20.4446 C.3     1  UNL1        0.0232
     17 C         -10.9165  -16.0046   20.7085 C.3     1  UNL1        0.0922
     18 N         -10.3534  -16.9377   21.7392 N.pl3   1  UNL1       -0.2922
     19 C         -11.2953  -19.0301   23.1102 C.3     1  UNL1        0.1619
     20 C          -9.1790  -20.4043   23.7290 C.3     1  UNL1        0.1742
     21 O         -10.3650  -20.1752   22.8397 O.3     1  UNL1       -0.3493
     22 N          -6.9827  -15.2168   25.2997 N.am    1  UNL1       -0.2692
     23 C          -7.5646  -15.6094   26.6253 C.2     1  UNL1        0.2277
     24 C          -7.2705  -14.7891   27.8461 C.3     1  UNL1        0.0950
     25 O          -8.4408  -16.8225   26.7299 O.2     1  UNL1       -0.2747
     26 H          -6.4076  -14.4206   25.2310 H       1  UNL1        0.1563
@<TRIPOS>BOND
     1    20    21    1
     2    21    19    1
     3    14    19    1
     4    14    15    1
     5    15    16    1
     6    16    17    1
     7    17    18    1
     8    18     1    1
     9     1     2   ar
    10     2     3   ar
    11     3    22    1
    12    22    23   am
    13    23    24    1
    14    23    25    2
    15     3     4   ar
    16     4     5   ar
    17     5     7    1
    18     7     8   ar
    19     8     9   ar
    20     9    10    1
    21     9    11   ar
    22    11    12   ar
    23    12    13    1
    24     5     6   ar
    25    18    14    1
    26     6     1   ar
    27    12     7   ar
    28    22    26    1
@<TRIPOS>MOLECULE
*****
 26 28 0 0 0
SMALL
GASTEIGER

@<TRIPOS>ATOM
      1 C          -8.5247  -17.8516   22.4636 C.ar    1  UNL1        0.1377
      2 C          -8.3233  -16.8822   23.5903 C.ar    1  UNL1        0.0689
      3 C          -6.9359  -16.4799   23.9946 C.ar    1  UNL1        0.1401
      4 N          -5.7501  -17.0470   23.2720 N.ar    1  UNL1       -0.1947
      5 C          -5.9515  -18.0164   22.1452 C.ar    1  UNL1        0.2550
      6 N          -7.3388  -18.4187   21.7410 N.ar    1  UNL1       -0.1949
      7 N          -4.7656  -18.5834   21.4227 N.ar    1  UNL1       -0.2008
      8 N          -3.4226  -17.9299   21.2835 N.ar    1  UNL1       -0.1673
      9 C          -2.5415  -18.8462   20.4873 C.ar    1  UNL1        0.0806
     10 C          -1.1128  -18.5879   20.1102 C.3     1  UNL1        0.0540
     11 C          -3.3399  -20.0660   20.1342 C.ar    1  UNL1        0.0313
     12 C          -4.7144  -19.9036   20.7124 C.ar    1  UNL1        0.0651
     13 C          -5.8402  -20.8885   20.5999 C.3     1  UNL1        0.0523
     14 C         -10.9956  -17.3305   21.5869 C.3     1  UNL1        0.1037
     15 C         -12.2126  -18.1562   21.2922 C.3     1  UNL1        0.0241
     16 C         -11.8813  -19.5902   21.5823 C.3     1  UNL1        0.0232
     17 C         -10.4595  -19.6505   22.0565 C.3     1  UNL1        0.0922
     18 N          -9.9121  -18.2540   22.0593 N.pl3   1  UNL1       -0.2922
     19 C         -10.8820  -15.8424   21.4359 C.3     1  UNL1        0.1619
     20 C          -8.7687  -14.4565   20.8331 C.3     1  UNL1        0.1742
     21 O          -9.9601  -15.2613   20.4053 O.3     1  UNL1       -0.3493
     22 N          -6.7345  -15.5104   25.1214 N.am    1  UNL1       -0.2692
     23 C          -7.4359  -15.7250   26.4298 C.2     1  UNL1        0.2277
     24 C          -7.2344  -14.7557   27.5566 C.3     1  UNL1        0.0950
     25 O          -8.3388  -16.9091   26.6114 O.2     1  UNL1       -0.2747
     26 H          -6.1419  -14.7333   25.0022 H       1  UNL1        0.1563
@<TRIPOS>BOND
     1    20    21    1
     2    21    19    1
     3    14    19    1
     4    14    15    1
     5    15    16    1
     6    16    17    1
     7    17    18    1
     8    18     1    1
     9     1     2   ar
    10     2     3   ar
    11     3    22    1
    12    22    23   am
    13    23    24    1
    14    23    25    2
    15     3     4   ar
    16     4     5   ar
    17     5     7    1
    18     7     8   ar
    19     8     9   ar
    20     9    10    1
    21     9    11   ar
    22    11    12   ar
    23    12    13    1
    24     5     6   ar
    25    18    14    1
    26     6     1   ar
    27    12     7   ar
    28    22    26    1
@<TRIPOS>MOLECULE
*****
 26 28 0 0 0
SMALL
GASTEIGER

@<TRIPOS>ATOM
      1 C         -16.3156   -5.8109   18.2860 C.ar    1  UNL1        0.1377
      2 C         -16.8251   -4.5740   18.9645 C.ar    1  UNL1        0.0689
      3 C         -15.8629   -3.6257   19.6162 C.ar    1  UNL1        0.1401
      4 N         -14.3911   -3.9143   19.5893 N.ar    1  UNL1       -0.1947
      5 C         -13.8816   -5.1512   18.9108 C.ar    1  UNL1        0.2550
      6 N         -14.8439   -6.0995   18.2591 N.ar    1  UNL1       -0.1949
      7 N         -12.4099   -5.4397   18.8839 N.ar    1  UNL1       -0.2008
      8 N         -11.7769   -6.7989   18.9292 N.ar    1  UNL1       -0.1673
      9 C         -10.2886   -6.6190   18.8803 C.ar    1  UNL1        0.0806
     10 C          -9.2666   -7.7167   18.9030 C.3     1  UNL1        0.0540
     11 C         -10.0016   -5.1486   18.8048 C.ar    1  UNL1        0.0313
     12 C         -11.3127   -4.4198   18.8071 C.ar    1  UNL1        0.0651
     13 C         -11.4946   -2.9322   18.7436 C.3     1  UNL1        0.0523
     14 C         -17.6219   -8.1370   18.1177 C.3     1  UNL1        0.1037
     15 C         -18.6217   -8.7256   17.1669 C.3     1  UNL1        0.0241
     16 C         -18.8955   -7.7117   16.0958 C.3     1  UNL1        0.0232
     17 C         -18.0650   -6.4965   16.3847 C.3     1  UNL1        0.0922
     18 N         -17.2779   -6.7593   17.6343 N.pl3   1  UNL1       -0.2922
     19 C         -17.0642   -8.8082   19.3377 C.3     1  UNL1        0.1619
     20 C         -14.9849   -9.6413   18.0214 C.3     1  UNL1        0.1742
     21 O         -15.8898   -9.7331   19.2142 O.3     1  UNL1       -0.3493
     22 N         -16.3724   -2.3887   20.2948 N.am    1  UNL1       -0.2692
     23 C         -16.1424   -1.0433   19.6728 C.2     1  UNL1        0.2277
     24 C         -16.6518    0.1936   20.3513 C.3     1  UNL1        0.0950
     25 O         -15.4029   -0.9348   18.3722 O.2     1  UNL1       -0.2747
     26 H         -16.8577   -2.4600   21.1484 H       1  UNL1        0.1563
@<TRIPOS>BOND
     1    20    21    1
     2    21    19    1
     3    14    19    1
     4    14    15    1
     5    15    16    1
     6    16    17    1
     7    17    18    1
     8    18     1    1
     9     1     2   ar
    10     2     3   ar
    11     3    22    1
    12    22    23   am
    13    23    24    1
    14    23    25    2
    15     3     4   ar
    16     4     5   ar
    17     5     7    1
    18     7     8   ar
    19     8     9   ar
    20     9    10    1
    21     9    11   ar
    22    11    12   ar
    23    12    13    1
    24     5     6   ar
    25    18    14    1
    26     6     1   ar
    27    12     7   ar
    28    22    26    1
@<TRIPOS>MOLECULE
*****
 26 28 0 0 0
SMALL
GASTEIGER

@<TRIPOS>ATOM
      1 C         -12.8764   -5.3801   18.9762 C.ar    1  UNL1        0.1377
      2 C         -13.3785   -4.0811   19.5333 C.ar    1  UNL1        0.0689
      3 C         -14.7971   -3.9667   20.0072 C.ar    1  UNL1        0.1401
      4 N         -15.7134   -5.1514   19.9241 N.ar    1  UNL1       -0.1947
      5 C         -15.2113   -6.4504   19.3670 C.ar    1  UNL1        0.2550
      6 N         -13.7928   -6.5648   18.8931 N.ar    1  UNL1       -0.1949
      7 N         -16.1277   -7.6350   19.2839 N.ar    1  UNL1       -0.2008
      8 N         -15.7059   -9.0683   19.1507 N.ar    1  UNL1       -0.1673
      9 C         -16.9443   -9.9135   19.1038 C.ar    1  UNL1        0.0806
     10 C         -16.9879  -11.4073   18.9753 C.3     1  UNL1        0.0540
     11 C         -18.1314   -9.0025   19.2081 C.ar    1  UNL1        0.0313
     12 C         -17.6267   -7.5943   19.3194 C.ar    1  UNL1        0.0651
     13 C         -18.4726   -6.3619   19.4442 C.3     1  UNL1        0.0523
     14 C         -10.7302   -4.4983   17.6491 C.3     1  UNL1        0.1037
     15 C          -9.3405   -5.0134   17.4178 C.3     1  UNL1        0.0241
     16 C          -9.2092   -6.3281   18.1281 C.3     1  UNL1        0.0232
     17 C         -10.5178   -6.6255   18.7983 C.3     1  UNL1        0.0922
     18 N         -11.4578   -5.4946   18.5023 N.pl3   1  UNL1       -0.2922
     19 C         -11.2933   -3.2126   17.1200 C.3     1  UNL1        0.1619
     20 C         -10.6566   -0.6970   16.9920 C.3     1  UNL1        0.1742
     21 O         -10.9757   -1.9166   17.8050 O.3     1  UNL1       -0.3493
     22 N         -15.2993   -2.6677   20.5643 N.am    1  UNL1       -0.2692
     23 C         -15.7981   -1.5977   19.6389 C.2     1  UNL1        0.2277
     24 C         -16.3003   -0.2987   20.1959 C.3     1  UNL1        0.0950
     25 O         -15.7948   -1.8268   18.1565 O.2     1  UNL1       -0.2747
     26 H         -15.3015   -2.5173   21.5372 H       1  UNL1        0.1563
@<TRIPOS>BOND
     1    20    21    1
     2    21    19    1
     3    14    19    1
     4    14    15    1
     5    15    16    1
     6    16    17    1
     7    17    18    1
     8    18     1    1
     9     1     2   ar
    10     2     3   ar
    11     3    22    1
    12    22    23   am
    13    23    24    1
    14    23    25    2
    15     3     4   ar
    16     4     5   ar
    17     5     7    1
    18     7     8   ar
    19     8     9   ar
    20     9    10    1
    21     9    11   ar
    22    11    12   ar
    23    12    13    1
    24     5     6   ar
    25    18    14    1
    26     6     1   ar
    27    12     7   ar
    28    22    26    1
@<TRIPOS>MOLECULE
*****
 26 28 0 0 0
SMALL
GASTEIGER

@<TRIPOS>ATOM
      1 C         -13.4490   -5.9417   18.8439 C.ar    1  UNL1        0.1377
      2 C         -14.0594   -7.2435   18.4166 C.ar    1  UNL1        0.0689
      3 C         -15.5509   -7.3840   18.3425 C.ar    1  UNL1        0.1401
      4 N         -16.4321   -6.2226   18.6957 N.ar    1  UNL1       -0.1947
      5 C         -15.8217   -4.9208   19.1230 C.ar    1  UNL1        0.2550
      6 N         -14.3302   -4.7803   19.1971 N.ar    1  UNL1       -0.1949
      7 N         -16.7029   -3.7594   19.4762 N.ar    1  UNL1       -0.2008
      8 N         -18.0730   -3.8441   20.0808 N.ar    1  UNL1       -0.1673
      9 C         -18.5856   -2.4464   20.2651 C.ar    1  UNL1        0.0806
     10 C         -19.9176   -2.0644   20.8393 C.3     1  UNL1        0.0540
     11 C         -17.5322   -1.4980   19.7744 C.ar    1  UNL1        0.0313
     12 C         -16.3687   -2.3094   19.2868 C.ar    1  UNL1        0.0651
     13 C         -15.0946   -1.7663   18.7109 C.3     1  UNL1        0.0523
     14 C         -11.1941   -4.5105   18.9540 C.3     1  UNL1        0.1037
     15 C          -9.7322   -4.8384   19.0274 C.3     1  UNL1        0.0241
     16 C          -9.5920   -6.3318   19.0369 C.3     1  UNL1        0.0232
     17 C         -10.9673   -6.9269   18.9693 C.3     1  UNL1        0.0922
     18 N         -11.9574   -5.8012   18.9181 N.pl3   1  UNL1       -0.2922
     19 C         -11.7883   -3.1336   18.9221 C.3     1  UNL1        0.1619
     20 C         -10.9817   -1.0397   17.6124 C.3     1  UNL1        0.1742
     21 O         -11.7480   -2.3284   17.6572 O.3     1  UNL1       -0.3493
     22 N         -16.1614   -8.6859   17.9151 N.am    1  UNL1       -0.2692
     23 C         -16.5139   -9.7216   18.9413 C.2     1  UNL1        0.2277
     24 C         -17.1243  -11.0234   18.5141 C.3     1  UNL1        0.0950
     25 O         -16.2560   -9.4554   20.3949 O.2     1  UNL1       -0.2747
     26 H         -16.3307   -8.8605   16.9612 H       1  UNL1        0.1563
@<TRIPOS>BOND
     1    20    21    1
     2    21    19    1
     3    14    19    1
     4    14    15    1
     5    15    16    1
     6    16    17    1
     7    17    18    1
     8    18     1    1
     9     1     2   ar
    10     2     3   ar
    11     3    22    1
    12    22    23   am
    13    23    24    1
    14    23    25    2
    15     3     4   ar
    16     4     5   ar
    17     5     7    1
    18     7     8   ar
    19     8     9   ar
    20     9    10    1
    21     9    11   ar
    22    11    12   ar
    23    12    13    1
    24     5     6   ar
    25    18    14    1
    26     6     1   ar
    27    12     7   ar
    28    22    26    1
@<TRIPOS>MOLECULE
*****
 26 28 0 0 0
SMALL
GASTEIGER

@<TRIPOS>ATOM
      1 C         -13.3991   -6.0036   18.8468 C.ar    1  UNL1        0.1377
      2 C         -14.0833   -7.2692   18.4226 C.ar    1  UNL1        0.0689
      3 C         -15.5806   -7.3249   18.3518 C.ar    1  UNL1        0.1401
      4 N         -16.3937   -6.1150   18.7052 N.ar    1  UNL1       -0.1947
      5 C         -15.7095   -4.8493   19.1294 C.ar    1  UNL1        0.2550
      6 N         -14.2122   -4.7936   19.2002 N.ar    1  UNL1       -0.1949
      7 N         -16.5226   -3.6393   19.4828 N.ar    1  UNL1       -0.2008
      8 N         -15.9963   -2.2472   19.6698 N.ar    1  UNL1       -0.1673
      9 C         -17.1531   -1.3565   20.0138 C.ar    1  UNL1        0.0806
     10 C         -17.0813    0.1170   20.2846 C.3     1  UNL1        0.0540
     11 C         -18.3945   -2.1982   20.0394 C.ar    1  UNL1        0.0313
     12 C         -18.0048   -3.6090   19.7112 C.ar    1  UNL1        0.0651
     13 C         -18.9341   -4.7834   19.6264 C.3     1  UNL1        0.0523
     14 C         -11.0670   -4.7024   18.9617 C.3     1  UNL1        0.1037
     15 C          -9.6257   -5.1126   19.0281 C.3     1  UNL1        0.0241
     16 C          -9.5697   -6.6116   19.0251 C.3     1  UNL1        0.0232
     17 C         -10.9765   -7.1278   18.9568 C.3     1  UNL1        0.0922
     18 N         -11.9018   -5.9478   18.9176 N.pl3   1  UNL1       -0.2922
     19 C         -11.5828   -3.2940   18.9427 C.3     1  UNL1        0.1619
     20 C         -10.4824   -2.3576   16.7835 C.3     1  UNL1        0.1742
     21 O         -11.6960   -2.5542   17.6428 O.3     1  UNL1       -0.3493
     22 N         -16.2648   -8.5906   17.9275 N.am    1  UNL1       -0.2692
     23 C         -16.5680   -9.6549   18.9401 C.2     1  UNL1        0.2277
     24 C         -17.2522  -10.9206   18.5160 C.3     1  UNL1        0.0950
     25 O         -16.1869   -9.4536   20.3769 O.2     1  UNL1       -0.2747
     26 H         -16.5149   -8.7227   16.9846 H       1  UNL1        0.1563
@<TRIPOS>BOND
     1    20    21    1
     2    21    19    1
     3    14    19    1
     4    14    15    1
     5    15    16    1
     6    16    17    1
     7    17    18    1
     8    18     1    1
     9     1     2   ar
    10     2     3   ar
    11     3    22    1
    12    22    23   am
    13    23    24    1
    14    23    25    2
    15     3     4   ar
    16     4     5   ar
    17     5     7    1
    18     7     8   ar
    19     8     9   ar
    20     9    10    1
    21     9    11   ar
    22    11    12   ar
    23    12    13    1
    24     5     6   ar
    25    18    14    1
    26     6     1   ar
    27    12     7   ar
    28    22    26    1
@<TRIPOS>MOLECULE
*****
 26 28 0 0 0
SMALL
GASTEIGER

@<TRIPOS>ATOM
      1 C           4.6814    0.4359   35.0760 C.ar    1  UNL1        0.1377
      2 C           5.1350   -0.9452   34.7061 C.ar    1  UNL1        0.0689
      3 C           4.5979   -1.6053   33.4709 C.ar    1  UNL1        0.1401
      4 N           3.6072   -0.8843   32.6056 N.ar    1  UNL1       -0.1947
      5 C           3.1535    0.4967   32.9755 C.ar    1  UNL1        0.2550
      6 N           3.6906    1.1568   34.2107 N.ar    1  UNL1       -0.1949
      7 N           2.1628    1.2177   32.1103 N.ar    1  UNL1       -0.2008
      8 N           1.6694    0.7637   30.7685 N.ar    1  UNL1       -0.1673
      9 C           0.6931    1.7846   30.2638 C.ar    1  UNL1        0.0806
     10 C          -0.0437    1.7301   28.9584 C.3     1  UNL1        0.0540
     11 C           0.5832    2.8696   31.2937 C.ar    1  UNL1        0.0313
     12 C           1.4915    2.5192   32.4349 C.ar    1  UNL1        0.0651
     13 C           1.6931    3.3283   33.6818 C.3     1  UNL1        0.0523
     14 C           4.4559    1.3501   37.5777 C.3     1  UNL1        0.1037
     15 C           5.3786    2.0291   38.5460 C.3     1  UNL1        0.0241
     16 C           6.7114    2.1947   37.8780 C.3     1  UNL1        0.0232
     17 C           6.6124    1.6180   36.4969 C.3     1  UNL1        0.0922
     18 N           5.2185    1.0960   36.3113 N.pl3   1  UNL1       -0.2922
     19 C           3.0224    0.9887   37.8314 C.3     1  UNL1        0.1619
     20 C           1.2819    0.1953   39.5895 C.3     1  UNL1        0.1742
     21 O           2.4739    1.0304   39.2268 O.3     1  UNL1       -0.3493
     22 N           5.0516   -2.9864   33.1009 N.am    1  UNL1       -0.2692
     23 C           6.2896   -3.1730   32.2748 C.2     1  UNL1        0.2277
     24 C           6.7433   -4.5540   31.9047 C.3     1  UNL1        0.0950
     25 O           7.0740   -1.9784   31.8186 O.2     1  UNL1       -0.2747
     26 H           4.5368   -3.7703   33.4002 H       1  UNL1        0.1563
@<TRIPOS>BOND
     1    20    21    1
     2    21    19    1
     3    14    19    1
     4    14    15    1
     5    15    16    1
     6    16    17    1
     7    17    18    1
     8    18     1    1
     9     1     2   ar
    10     2     3   ar
    11     3    22    1
    12    22    23   am
    13    23    24    1
    14    23    25    2
    15     3     4   ar
    16     4     5   ar
    17     5     7    1
    18     7     8   ar
    19     8     9   ar
    20     9    10    1
    21     9    11   ar
    22    11    12   ar
    23    12    13    1
    24     5     6   ar
    25    18    14    1
    26     6     1   ar
    27    12     7   ar
    28    22    26    1
@<TRIPOS>MOLECULE
*****
 26 28 0 0 0
SMALL
GASTEIGER

@<TRIPOS>ATOM
      1 C           1.7035    0.8880   30.8152 C.ar    1  UNL1        0.1377
      2 C           2.8685   -0.0546   30.7492 C.ar    1  UNL1        0.0689
      3 C           3.8259   -0.1452   31.9003 C.ar    1  UNL1        0.1401
      4 N           3.6184    0.7066   33.1174 N.ar    1  UNL1       -0.1947
      5 C           2.4534    1.6491   33.1834 C.ar    1  UNL1        0.2550
      6 N           1.4960    1.7398   32.0323 N.ar    1  UNL1       -0.1949
      7 N           2.2458    2.5010   34.4004 N.ar    1  UNL1       -0.2008
      8 N           2.5384    2.1018   35.8164 N.ar    1  UNL1       -0.1673
      9 C           2.1827    3.2557   36.7063 C.ar    1  UNL1        0.0806
     10 C           2.3160    3.2910   38.2000 C.3     1  UNL1        0.0540
     11 C           1.6701    4.3681   35.8403 C.ar    1  UNL1        0.0313
     12 C           1.7092    3.9016   34.4152 C.ar    1  UNL1        0.0651
     13 C           1.2858    4.6963   33.2156 C.3     1  UNL1        0.0523
     14 C           0.4620    2.2048   28.8480 C.3     1  UNL1        0.1037
     15 C          -0.5551    1.8431   27.8065 C.3     1  UNL1        0.0241
     16 C          -0.8996    0.3933   27.9789 C.3     1  UNL1        0.0232
     17 C          -0.0955   -0.1409   29.1269 C.3     1  UNL1        0.0922
     18 N           0.7460    0.9787   29.6641 N.pl3   1  UNL1       -0.2922
     19 C           1.0855    3.5555   29.0398 C.3     1  UNL1        0.1619
     20 C          -0.2151    5.7626   28.6066 C.3     1  UNL1        0.1742
     21 O           0.2584    4.6977   29.5510 O.3     1  UNL1       -0.3493
     22 N           4.9910   -1.0878   31.8344 N.am    1  UNL1       -0.2692
     23 C           4.9514   -2.3831   32.5898 C.2     1  UNL1        0.2277
     24 C           6.1164   -3.3257   32.5239 C.3     1  UNL1        0.0950
     25 O           3.7468   -2.7358   33.4112 O.2     1  UNL1       -0.2747
     26 H           5.7816   -0.8563   31.2953 H       1  UNL1        0.1563
@<TRIPOS>BOND
     1    20    21    1
     2    21    19    1
     3    14    19    1
     4    14    15    1
     5    15    16    1
     6    16    17    1
     7    17    18    1
     8    18     1    1
     9     1     2   ar
    10     2     3   ar
    11     3    22    1
    12    22    23   am
    13    23    24    1
    14    23    25    2
    15     3     4   ar
    16     4     5   ar
    17     5     7    1
    18     7     8   ar
    19     8     9   ar
    20     9    10    1
    21     9    11   ar
    22    11    12   ar
    23    12    13    1
    24     5     6   ar
    25    18    14    1
    26     6     1   ar
    27    12     7   ar
    28    22    26    1
@<TRIPOS>MOLECULE
*****
 26 28 0 0 0
SMALL
GASTEIGER

@<TRIPOS>ATOM
      1 C           3.2879   -1.5977   20.9183 C.ar    1  UNL1        0.1377
      2 C           3.5175   -1.6119   22.4006 C.ar    1  UNL1        0.0689
      3 C           2.8495   -0.5907   23.2728 C.ar    1  UNL1        0.1401
      4 N           1.9518    0.4447   22.6628 N.ar    1  UNL1       -0.1947
      5 C           1.7222    0.4589   21.1806 C.ar    1  UNL1        0.2550
      6 N           2.3902   -0.5623   20.3083 N.ar    1  UNL1       -0.1949
      7 N           0.8245    1.4943   20.5705 N.ar    1  UNL1       -0.2008
      8 N          -0.5957    1.7727   20.9649 N.ar    1  UNL1       -0.1673
      9 C          -1.1086    2.8835   20.0972 C.ar    1  UNL1        0.0806
     10 C          -2.4833    3.4813   20.1508 C.3     1  UNL1        0.0540
     11 C          -0.0053    3.2917   19.1665 C.ar    1  UNL1        0.0313
     12 C           1.1893    2.4331   19.4590 C.ar    1  UNL1        0.0651
     13 C           2.5160    2.5013   18.7623 C.3     1  UNL1        0.0523
     14 C           5.0120   -2.3441   19.0169 C.3     1  UNL1        0.1037
     15 C           5.3940   -3.6496   18.3846 C.3     1  UNL1        0.0241
     16 C           4.5740   -4.7313   19.0230 C.3     1  UNL1        0.0232
     17 C           3.6853   -4.0943   20.0498 C.3     1  UNL1        0.0922
     18 N           3.9560   -2.6189   20.0460 N.pl3   1  UNL1       -0.2922
     19 C           5.5854   -0.9998   18.6792 C.3     1  UNL1        0.1619
     20 C           3.7998   -0.6212   16.8303 C.3     1  UNL1        0.1742
     21 O           4.8405   -0.0753   17.7625 O.3     1  UNL1       -0.3493
     22 N           3.0791   -0.6049   24.7551 N.am    1  UNL1       -0.2692
     23 C           4.0565    0.3513   25.3718 C.2     1  UNL1        0.2277
     24 C           4.2861    0.3372   26.8540 C.3     1  UNL1        0.0950
     25 O           4.8043    1.3217   24.5062 O.2     1  UNL1       -0.2747
     26 H           2.5882   -1.2418   25.3232 H       1  UNL1        0.1563
@<TRIPOS>BOND
     1    20    21    1
     2    21    19    1
     3    14    19    1
     4    14    15    1
     5    15    16    1
     6    16    17    1
     7    17    18    1
     8    18     1    1
     9     1     2   ar
    10     2     3   ar
    11     3    22    1
    12    22    23   am
    13    23    24    1
    14    23    25    2
    15     3     4   ar
    16     4     5   ar
    17     5     7    1
    18     7     8   ar
    19     8     9   ar
    20     9    10    1
    21     9    11   ar
    22    11    12   ar
    23    12    13    1
    24     5     6   ar
    25    18    14    1
    26     6     1   ar
    27    12     7   ar
    28    22    26    1
