@<TRIPOS>MOLECULE
*****
 29 31 0 0 0
SMALL
GASTEIGER

@<TRIPOS>ATOM
      1 C          -8.0064  -19.7063   21.2934 C.ar    1  UNL1        0.1344
      2 C          -8.3301  -20.0346   22.7207 C.ar    1  UNL1        0.0310
      3 C          -9.6582  -19.6431   23.2977 C.ar    1  UNL1       -0.0067
      4 C          -9.9820  -19.9713   24.7251 C.3     1  UNL1        0.0319
      5 C         -10.6625  -18.9233   22.4472 C.ar    1  UNL1        0.0959
      6 C         -10.3388  -18.5950   21.0199 C.ar    1  UNL1        0.1393
      7 N          -9.0107  -18.9866   20.4429 N.ar    1  UNL1       -0.2154
      8 N          -6.6783  -20.0978   20.7164 N.pl3   1  UNL1       -0.2819
      9 H          -6.6190  -20.8492   20.0830 H       1  UNL1        0.1551
     10 C          -1.6773  -18.4146   20.9089 C.3     1  UNL1        0.0515
     11 C          -3.1419  -18.5708   21.1928 C.ar    1  UNL1        0.0548
     12 C          -4.0755  -19.5255   20.5096 C.ar    1  UNL1        0.0502
     13 C          -5.4406  -19.3445   21.1043 C.ar    1  UNL1        0.1539
     14 N          -5.3506  -18.2780   22.1552 N.ar    1  UNL1       -0.1577
     15 N          -3.9299  -17.7998   22.2100 N.ar    1  UNL1       -0.2786
     16 H          -3.5768  -17.1023   22.8084 H       1  UNL1        0.1886
     17 C         -11.9907  -18.5318   23.0242 C.1     1  UNL1        0.1029
     18 N         -13.3187  -18.1403   23.6012 N.1     1  UNL1       -0.1907
     19 N         -11.3432  -17.8753   20.1695 N.pl3   1  UNL1       -0.3145
     20 H         -12.0485  -18.3818   19.7056 H       1  UNL1        0.1483
     21 C         -11.2728  -16.3839   20.0258 C.3     1  UNL1        0.1362
     22 C         -10.5699  -15.5625   21.0657 C.3     1  UNL1        0.2282
     23 O          -9.0806  -15.6587   21.2168 O.3     1  UNL1       -0.4584
     24 C          -8.4642  -15.6630   22.5843 C.ar    1  UNL1        0.2249
     25 C          -9.2859  -16.0561   23.7761 C.ar    1  UNL1        0.0577
     26 C          -8.6695  -16.0605   25.1436 C.ar    1  UNL1        0.0064
     27 C          -7.2314  -15.6717   25.3193 C.ar    1  UNL1        0.0209
     28 C          -6.4098  -15.2786   24.1275 C.ar    1  UNL1        0.1021
     29 N          -7.0262  -15.2742   22.7600 N.ar    1  UNL1       -0.2101
@<TRIPOS>BOND
     1    10    11    1
     2    11    12   ar
     3    12    13   ar
     4    13     8    1
     5     8     1    1
     6     1     2   ar
     7     2     3   ar
     8     3     4    1
     9     3     5   ar
    10     5    17    1
    11    17    18    3
    12     5     6   ar
    13     6    19    1
    14    19    21    1
    15    21    22    1
    16    22    23    1
    17    23    24    1
    18    24    25   ar
    19    25    26   ar
    20    26    27   ar
    21    27    28   ar
    22    28    29   ar
    23     6     7   ar
    24    13    14   ar
    25    14    15   ar
    26    15    11   ar
    27     7     1   ar
    28    29    24   ar
    29     8     9    1
    30    19    20    1
    31    15    16    1
@<TRIPOS>MOLECULE
*****
 29 31 0 0 0
SMALL
GASTEIGER

@<TRIPOS>ATOM
      1 C          -3.9363  -18.2604   22.5235 C.ar    1  UNL1        0.1344
      2 C          -4.0985  -17.0558   23.4025 C.ar    1  UNL1        0.0310
      3 C          -5.4706  -16.5478   23.7329 C.ar    1  UNL1       -0.0067
      4 C          -5.6329  -15.3432   24.6119 C.3     1  UNL1        0.0319
      5 C          -6.6805  -17.2445   23.1845 C.ar    1  UNL1        0.0959
      6 C          -6.5183  -18.4491   22.3055 C.ar    1  UNL1        0.1393
      7 N          -5.1461  -18.9570   21.9751 N.ar    1  UNL1       -0.2154
      8 N          -2.5641  -18.7683   22.1930 N.pl3   1  UNL1       -0.2819
      9 H          -2.0688  -19.3107   22.8486 H       1  UNL1        0.1551
     10 C          -1.9761  -17.3879   17.1305 C.3     1  UNL1        0.0515
     11 C          -1.6763  -17.8155   18.5367 C.ar    1  UNL1        0.0548
     12 C          -2.6839  -18.0289   19.6272 C.ar    1  UNL1        0.0502
     13 C          -1.9465  -18.4500   20.8637 C.ar    1  UNL1        0.1539
     14 N          -0.4832  -18.4968   20.5374 N.ar    1  UNL1       -0.1577
     15 N          -0.3161  -18.1046   19.0993 N.ar    1  UNL1       -0.2786
     16 H           0.5365  -18.0471   18.6104 H       1  UNL1        0.1886
     17 C          -8.0527  -16.7365   23.5150 C.1     1  UNL1        0.1029
     18 N          -9.4248  -16.2286   23.8455 N.1     1  UNL1       -0.1907
     19 N          -7.7281  -19.1458   21.7570 N.pl3   1  UNL1       -0.3145
     20 H          -8.4808  -19.3668   22.3519 H       1  UNL1        0.1483
     21 C          -7.7912  -19.5057   20.3022 C.3     1  UNL1        0.1362
     22 C          -9.1001  -19.4493   19.5718 C.3     1  UNL1        0.2282
     23 O          -9.9234  -18.1958   19.6035 O.3     1  UNL1       -0.4584
     24 C         -10.8636  -17.9447   20.7449 C.ar    1  UNL1        0.2249
     25 C         -11.7195  -16.7128   20.7546 C.ar    1  UNL1        0.0577
     26 C         -12.6598  -16.4617   21.8960 C.ar    1  UNL1        0.0064
     27 C         -12.7442  -17.4426   23.0278 C.ar    1  UNL1        0.0209
     28 C         -11.8883  -18.6744   23.0181 C.ar    1  UNL1        0.1021
     29 N         -10.9481  -18.9254   21.8767 N.ar    1  UNL1       -0.2101
@<TRIPOS>BOND
     1    10    11    1
     2    11    12   ar
     3    12    13   ar
     4    13     8    1
     5     8     1    1
     6     1     2   ar
     7     2     3   ar
     8     3     4    1
     9     3     5   ar
    10     5    17    1
    11    17    18    3
    12     5     6   ar
    13     6    19    1
    14    19    21    1
    15    21    22    1
    16    22    23    1
    17    23    24    1
    18    24    25   ar
    19    25    26   ar
    20    26    27   ar
    21    27    28   ar
    22    28    29   ar
    23     6     7   ar
    24    13    14   ar
    25    14    15   ar
    26    15    11   ar
    27     7     1   ar
    28    29    24   ar
    29     8     9    1
    30    19    20    1
    31    15    16    1
@<TRIPOS>MOLECULE
*****
 29 31 0 0 0
SMALL
GASTEIGER

@<TRIPOS>ATOM
      1 C          -8.5562  -17.8024   21.7881 C.ar    1  UNL1        0.1344
      2 C          -8.7937  -18.7897   20.6841 C.ar    1  UNL1        0.0310
      3 C          -7.6560  -19.6121   20.1559 C.ar    1  UNL1       -0.0067
      4 C          -7.8935  -20.5995   19.0518 C.3     1  UNL1        0.0319
      5 C          -6.2807  -19.4474   20.7317 C.ar    1  UNL1        0.0959
      6 C          -6.0432  -18.4601   21.8357 C.ar    1  UNL1        0.1393
      7 N          -7.1809  -17.6376   22.3639 N.ar    1  UNL1       -0.2154
      8 N          -9.6940  -16.9798   22.3163 N.pl3   1  UNL1       -0.2819
      9 H          -9.7647  -16.0272   22.0783 H       1  UNL1        0.1551
     10 C         -14.3251  -18.3441   24.4545 C.3     1  UNL1        0.0515
     11 C         -12.8526  -18.2359   24.1900 C.ar    1  UNL1        0.0548
     12 C         -12.2091  -17.4271   23.1029 C.ar    1  UNL1        0.0502
     13 C         -10.7239  -17.6088   23.2072 C.ar    1  UNL1        0.1539
     14 N         -10.4493  -18.5299   24.3588 N.ar    1  UNL1       -0.1577
     15 N         -11.7649  -18.9175   24.9662 N.ar    1  UNL1       -0.2786
     16 H         -11.8922  -19.5144   25.7387 H       1  UNL1        0.1886
     17 C          -5.1430  -20.2699   20.2034 C.1     1  UNL1        0.1029
     18 N          -4.0053  -21.0925   19.6753 N.1     1  UNL1       -0.1907
     19 N          -4.6680  -18.2953   22.4115 N.pl3   1  UNL1       -0.3145
     20 H          -3.9077  -18.7805   22.0167 H       1  UNL1        0.1483
     21 C          -4.4511  -17.3914   23.5887 C.3     1  UNL1        0.1362
     22 C          -4.2158  -15.9254   23.3753 C.3     1  UNL1        0.2282
     23 O          -5.3273  -14.9455   23.6092 O.3     1  UNL1       -0.4584
     24 C          -6.2827  -15.1528   24.7468 C.ar    1  UNL1        0.2249
     25 C          -5.7691  -15.2214   26.1546 C.ar    1  UNL1        0.0577
     26 C          -6.7246  -15.4287   27.2922 C.ar    1  UNL1        0.0064
     27 C          -8.1936  -15.5673   27.0221 C.ar    1  UNL1        0.0209
     28 C          -8.7071  -15.4987   25.6144 C.ar    1  UNL1        0.1021
     29 N          -7.7516  -15.2914   24.4768 N.ar    1  UNL1       -0.2101
@<TRIPOS>BOND
     1    10    11    1
     2    11    12   ar
     3    12    13   ar
     4    13     8    1
     5     8     1    1
     6     1     2   ar
     7     2     3   ar
     8     3     4    1
     9     3     5   ar
    10     5    17    1
    11    17    18    3
    12     5     6   ar
    13     6    19    1
    14    19    21    1
    15    21    22    1
    16    22    23    1
    17    23    24    1
    18    24    25   ar
    19    25    26   ar
    20    26    27   ar
    21    27    28   ar
    22    28    29   ar
    23     6     7   ar
    24    13    14   ar
    25    14    15   ar
    26    15    11   ar
    27     7     1   ar
    28    29    24   ar
    29     8     9    1
    30    19    20    1
    31    15    16    1
@<TRIPOS>MOLECULE
*****
 29 31 0 0 0
SMALL
GASTEIGER

@<TRIPOS>ATOM
      1 C          -9.1134  -16.7587   22.1818 C.ar    1  UNL1        0.1344
      2 C         -10.3359  -17.5225   21.7671 C.ar    1  UNL1        0.0310
      3 C         -10.2201  -18.6421   20.7756 C.ar    1  UNL1       -0.0067
      4 C         -11.4426  -19.4061   20.3608 C.3     1  UNL1        0.0319
      5 C          -8.8818  -18.9979   20.1989 C.ar    1  UNL1        0.0959
      6 C          -7.6594  -18.2340   20.6137 C.ar    1  UNL1        0.1393
      7 N          -7.7752  -17.1144   21.6051 N.ar    1  UNL1       -0.2154
      8 N          -9.2292  -15.6390   23.1733 N.pl3   1  UNL1       -0.2819
      9 H          -9.9690  -14.9933   23.1025 H       1  UNL1        0.1551
     10 C          -6.8330  -15.9970   27.8648 C.3     1  UNL1        0.0515
     11 C          -7.1164  -15.6677   26.4291 C.ar    1  UNL1        0.0548
     12 C          -8.3594  -16.0278   25.6707 C.ar    1  UNL1        0.0502
     13 C          -8.2178  -15.5031   24.2727 C.ar    1  UNL1        0.1539
     14 N          -6.8872  -14.8188   24.1670 N.ar    1  UNL1       -0.1577
     15 N          -6.2064  -14.9205   25.4997 N.ar    1  UNL1       -0.2786
     16 H          -5.3184  -14.5601   25.7249 H       1  UNL1        0.1886
     17 C          -8.7661  -20.1176   19.2074 C.1     1  UNL1        0.1029
     18 N          -8.6503  -21.2372   18.2160 N.1     1  UNL1       -0.1907
     19 N          -6.3212  -18.5898   20.0370 N.pl3   1  UNL1       -0.3145
     20 H          -5.9882  -18.1192   19.2390 H       1  UNL1        0.1483
     21 C          -5.4902  -19.6626   20.6763 C.3     1  UNL1        0.1362
     22 C          -5.2145  -19.6195   22.1501 C.3     1  UNL1        0.2282
     23 O          -3.8061  -19.4748   22.6457 O.3     1  UNL1       -0.4584
     24 C          -2.8189  -18.6534   21.8706 C.ar    1  UNL1        0.2249
     25 C          -2.6995  -17.1811   22.1317 C.ar    1  UNL1        0.0577
     26 C          -1.7124  -16.3596   21.3566 C.ar    1  UNL1        0.0064
     27 C          -0.8446  -17.0104   20.3205 C.ar    1  UNL1        0.0209
     28 C          -0.9641  -18.4827   20.0595 C.ar    1  UNL1        0.1021
     29 N          -1.9512  -19.3042   20.8345 N.ar    1  UNL1       -0.2101
@<TRIPOS>BOND
     1    10    11    1
     2    11    12   ar
     3    12    13   ar
     4    13     8    1
     5     8     1    1
     6     1     2   ar
     7     2     3   ar
     8     3     4    1
     9     3     5   ar
    10     5    17    1
    11    17    18    3
    12     5     6   ar
    13     6    19    1
    14    19    21    1
    15    21    22    1
    16    22    23    1
    17    23    24    1
    18    24    25   ar
    19    25    26   ar
    20    26    27   ar
    21    27    28   ar
    22    28    29   ar
    23     6     7   ar
    24    13    14   ar
    25    14    15   ar
    26    15    11   ar
    27     7     1   ar
    28    29    24   ar
    29     8     9    1
    30    19    20    1
    31    15    16    1
@<TRIPOS>MOLECULE
*****
 29 31 0 0 0
SMALL
GASTEIGER

@<TRIPOS>ATOM
      1 C          -5.5643  -16.2505   23.3630 C.ar    1  UNL1        0.1344
      2 C          -6.4452  -15.5400   24.3475 C.ar    1  UNL1        0.0310
      3 C          -7.8210  -16.0629   24.6364 C.ar    1  UNL1       -0.0067
      4 C          -8.7020  -15.3524   25.6209 C.3     1  UNL1        0.0319
      5 C          -8.3160  -17.2962   23.9408 C.ar    1  UNL1        0.0959
      6 C          -7.4352  -18.0067   22.9564 C.ar    1  UNL1        0.1393
      7 N          -6.0593  -17.4838   22.6675 N.ar    1  UNL1       -0.2154
      8 N          -4.1883  -15.7276   23.0741 N.pl3   1  UNL1       -0.2819
      9 H          -3.9757  -14.7814   23.2435 H       1  UNL1        0.1551
     10 C          -0.3886  -17.7580   20.0212 C.3     1  UNL1        0.0515
     11 C          -1.3899  -17.5796   21.1238 C.ar    1  UNL1        0.0548
     12 C          -2.3113  -16.4088   21.2972 C.ar    1  UNL1        0.0502
     13 C          -3.1364  -16.6464   22.5271 C.ar    1  UNL1        0.1539
     14 N          -2.7249  -17.9641   23.1139 N.ar    1  UNL1       -0.1577
     15 N          -1.6455  -18.5409   22.2467 N.ar    1  UNL1       -0.2786
     16 H          -1.1856  -19.3996   22.3893 H       1  UNL1        0.1886
     17 C          -9.6920  -17.8191   24.2298 C.1     1  UNL1        0.1029
     18 N         -11.0679  -18.3419   24.5187 N.1     1  UNL1       -0.1907
     19 N          -7.9302  -19.2400   22.2608 N.pl3   1  UNL1       -0.3145
     20 H          -8.6117  -19.8068   22.6892 H       1  UNL1        0.1483
     21 C          -7.3867  -19.6099   20.9125 C.3     1  UNL1        0.1362
     22 C          -8.2250  -19.4086   19.6850 C.3     1  UNL1        0.2282
     23 O          -9.7168  -19.5429   19.7653 O.3     1  UNL1       -0.4584
     24 C         -10.5335  -18.4627   20.4105 C.ar    1  UNL1        0.2249
     25 C         -11.9261  -18.7569   20.8841 C.ar    1  UNL1        0.0577
     26 C         -12.7427  -17.6768   21.5294 C.ar    1  UNL1        0.0064
     27 C         -12.1667  -16.3024   21.7010 C.ar    1  UNL1        0.0209
     28 C         -10.7742  -16.0082   21.2274 C.ar    1  UNL1        0.1021
     29 N          -9.9576  -17.0884   20.5822 N.ar    1  UNL1       -0.2101
@<TRIPOS>BOND
     1    10    11    1
     2    11    12   ar
     3    12    13   ar
     4    13     8    1
     5     8     1    1
     6     1     2   ar
     7     2     3   ar
     8     3     4    1
     9     3     5   ar
    10     5    17    1
    11    17    18    3
    12     5     6   ar
    13     6    19    1
    14    19    21    1
    15    21    22    1
    16    22    23    1
    17    23    24    1
    18    24    25   ar
    19    25    26   ar
    20    26    27   ar
    21    27    28   ar
    22    28    29   ar
    23     6     7   ar
    24    13    14   ar
    25    14    15   ar
    26    15    11   ar
    27     7     1   ar
    28    29    24   ar
    29     8     9    1
    30    19    20    1
    31    15    16    1
@<TRIPOS>MOLECULE
*****
 29 31 0 0 0
SMALL
GASTEIGER

@<TRIPOS>ATOM
      1 C          -5.2296  -16.8786   23.0537 C.ar    1  UNL1        0.1344
      2 C          -3.9712  -16.0834   22.8693 C.ar    1  UNL1        0.0310
      3 C          -2.8244  -16.6630   22.0955 C.ar    1  UNL1       -0.0067
      4 C          -1.5659  -15.8678   21.9111 C.3     1  UNL1        0.0319
      5 C          -2.9360  -18.0378   21.5060 C.ar    1  UNL1        0.0959
      6 C          -4.1944  -18.8330   21.6904 C.ar    1  UNL1        0.1393
      7 N          -5.3412  -18.2534   22.4642 N.ar    1  UNL1       -0.2154
      8 N          -6.3765  -16.2990   23.8276 N.pl3   1  UNL1       -0.2819
      9 H          -6.2424  -15.9987   24.7555 H       1  UNL1        0.1551
     10 C         -11.5928  -16.4946   23.0330 C.3     1  UNL1        0.0515
     11 C         -10.1252  -16.2668   22.8224 C.ar    1  UNL1        0.0548
     12 C          -9.0371  -16.5546   23.8139 C.ar    1  UNL1        0.0502
     13 C          -7.7275  -16.1770   23.1876 C.ar    1  UNL1        0.1539
     14 N          -8.0063  -15.6559   21.8089 N.ar    1  UNL1       -0.1577
     15 N          -9.4881  -15.7114   21.5831 N.ar    1  UNL1       -0.2786
     16 H          -9.9597  -15.4323   20.7652 H       1  UNL1        0.1886
     17 C          -1.7891  -18.6174   20.7322 C.1     1  UNL1        0.1029
     18 N          -0.6422  -19.1969   19.9583 N.1     1  UNL1       -0.1907
     19 N          -4.3060  -20.2078   21.1010 N.pl3   1  UNL1       -0.3145
     20 H          -3.5252  -20.8076   21.0994 H       1  UNL1        0.1483
     21 C          -5.6070  -20.6688   20.5139 C.3     1  UNL1        0.1362
     22 C          -6.3742  -19.7689   19.5911 C.3     1  UNL1        0.2282
     23 O          -7.3260  -18.7545   20.1526 O.3     1  UNL1       -0.4584
     24 C          -8.5445  -19.2041   20.9029 C.ar    1  UNL1        0.2249
     25 C          -9.8838  -19.2039   20.2273 C.ar    1  UNL1        0.0577
     26 C         -11.1024  -19.6535   20.9776 C.ar    1  UNL1        0.0064
     27 C         -10.9816  -20.1034   22.4035 C.ar    1  UNL1        0.0209
     28 C          -9.6424  -20.1036   23.0790 C.ar    1  UNL1        0.1021
     29 N          -8.4238  -19.6539   22.3287 N.ar    1  UNL1       -0.2101
@<TRIPOS>BOND
     1    10    11    1
     2    11    12   ar
     3    12    13   ar
     4    13     8    1
     5     8     1    1
     6     1     2   ar
     7     2     3   ar
     8     3     4    1
     9     3     5   ar
    10     5    17    1
    11    17    18    3
    12     5     6   ar
    13     6    19    1
    14    19    21    1
    15    21    22    1
    16    22    23    1
    17    23    24    1
    18    24    25   ar
    19    25    26   ar
    20    26    27   ar
    21    27    28   ar
    22    28    29   ar
    23     6     7   ar
    24    13    14   ar
    25    14    15   ar
    26    15    11   ar
    27     7     1   ar
    28    29    24   ar
    29     8     9    1
    30    19    20    1
    31    15    16    1
@<TRIPOS>MOLECULE
*****
 29 31 0 0 0
SMALL
GASTEIGER

@<TRIPOS>ATOM
      1 C          -4.5112  -16.7942   23.2990 C.ar    1  UNL1        0.1344
      2 C          -3.1469  -17.0868   22.7487 C.ar    1  UNL1        0.0310
      3 C          -2.9523  -18.2261   21.7926 C.ar    1  UNL1       -0.0067
      4 C          -1.5879  -18.5187   21.2423 C.3     1  UNL1        0.0319
      5 C          -4.1221  -19.0727   21.3869 C.ar    1  UNL1        0.0959
      6 C          -5.4865  -18.7801   21.9372 C.ar    1  UNL1        0.1393
      7 N          -5.6810  -17.6408   22.8932 N.ar    1  UNL1       -0.2154
      8 N          -4.7058  -15.6548   24.2551 N.pl3   1  UNL1       -0.2819
      9 H          -3.9474  -15.0711   24.4862 H       1  UNL1        0.1551
     10 C          -8.6462  -15.2346   27.7447 C.3     1  UNL1        0.0515
     11 C          -7.8670  -15.2117   26.4631 C.ar    1  UNL1        0.0548
     12 C          -6.4185  -15.5678   26.3055 C.ar    1  UNL1        0.0502
     13 C          -6.0558  -15.4048   24.8591 C.ar    1  UNL1        0.1539
     14 N          -7.2803  -14.9480   24.1229 N.ar    1  UNL1       -0.1577
     15 N          -8.3997  -14.8286   25.1141 N.ar    1  UNL1       -0.2786
     16 H          -9.3220  -14.5481   24.9145 H       1  UNL1        0.1886
     17 C          -3.9275  -20.2121   20.4307 C.1     1  UNL1        0.1029
     18 N          -3.7329  -21.3513   19.4746 N.1     1  UNL1       -0.1907
     19 N          -6.6563  -19.6268   21.5314 N.pl3   1  UNL1       -0.3145
     20 H          -6.6548  -20.5926   21.7225 H       1  UNL1        0.1483
     21 C          -7.8284  -19.0021   20.8345 C.3     1  UNL1        0.1362
     22 C          -8.4016  -19.6459   19.6069 C.3     1  UNL1        0.2282
     23 O          -9.8629  -19.5051   19.2989 O.3     1  UNL1       -0.4584
     24 C         -10.7006  -18.5271   20.0680 C.ar    1  UNL1        0.2249
     25 C         -11.4993  -18.9906   21.2501 C.ar    1  UNL1        0.0577
     26 C         -12.3371  -18.0126   22.0193 C.ar    1  UNL1        0.0064
     27 C         -12.3762  -16.5710   21.6063 C.ar    1  UNL1        0.0209
     28 C         -11.5775  -16.1076   20.4243 C.ar    1  UNL1        0.1021
     29 N         -10.7397  -17.0856   19.6551 N.ar    1  UNL1       -0.2101
@<TRIPOS>BOND
     1    10    11    1
     2    11    12   ar
     3    12    13   ar
     4    13     8    1
     5     8     1    1
     6     1     2   ar
     7     2     3   ar
     8     3     4    1
     9     3     5   ar
    10     5    17    1
    11    17    18    3
    12     5     6   ar
    13     6    19    1
    14    19    21    1
    15    21    22    1
    16    22    23    1
    17    23    24    1
    18    24    25   ar
    19    25    26   ar
    20    26    27   ar
    21    27    28   ar
    22    28    29   ar
    23     6     7   ar
    24    13    14   ar
    25    14    15   ar
    26    15    11   ar
    27     7     1   ar
    28    29    24   ar
    29     8     9    1
    30    19    20    1
    31    15    16    1
@<TRIPOS>MOLECULE
*****
 29 31 0 0 0
SMALL
GASTEIGER

@<TRIPOS>ATOM
      1 C          -4.3599  -16.6611   23.2174 C.ar    1  UNL1        0.1344
      2 C          -3.0373  -16.7701   22.5182 C.ar    1  UNL1        0.0310
      3 C          -2.7549  -17.9427   21.6265 C.ar    1  UNL1       -0.0067
      4 C          -1.4322  -18.0518   20.9273 C.3     1  UNL1        0.0319
      5 C          -3.7950  -19.0062   21.4339 C.ar    1  UNL1        0.0959
      6 C          -5.1176  -18.8971   22.1331 C.ar    1  UNL1        0.1393
      7 N          -5.4000  -17.7246   23.0248 N.ar    1  UNL1       -0.2154
      8 N          -4.6424  -15.4884   24.1092 N.pl3   1  UNL1       -0.2819
      9 H          -3.9376  -14.8244   24.2873 H       1  UNL1        0.1551
     10 C          -8.5578  -15.3184   27.6477 C.3     1  UNL1        0.0515
     11 C          -7.7982  -15.2494   26.3560 C.ar    1  UNL1        0.0548
     12 C          -6.3309  -15.5071   26.1812 C.ar    1  UNL1        0.0502
     13 C          -5.9985  -15.3275   24.7296 C.ar    1  UNL1        0.1539
     14 N          -7.2604  -14.9588   24.0073 N.ar    1  UNL1       -0.1577
     15 N          -8.3727  -14.9105   25.0124 N.ar    1  UNL1       -0.2786
     16 H          -9.3144  -14.6943   24.8235 H       1  UNL1        0.1886
     17 C          -3.5125  -20.1788   20.5421 C.1     1  UNL1        0.1029
     18 N          -3.2300  -21.3514   19.6504 N.1     1  UNL1       -0.1907
     19 N          -6.1577  -19.9606   21.9405 N.pl3   1  UNL1       -0.3145
     20 H          -5.9037  -20.9109   21.9820 H       1  UNL1        0.1483
     21 C          -7.5849  -19.5763   21.6847 C.3     1  UNL1        0.1362
     22 C          -8.5988  -19.6820   22.7850 C.3     1  UNL1        0.2282
     23 O          -9.1344  -18.4398   23.4332 O.3     1  UNL1       -0.4584
     24 C         -10.6154  -18.2187   23.5214 C.ar    1  UNL1        0.2249
     25 C         -11.2987  -17.3151   22.5381 C.ar    1  UNL1        0.0577
     26 C         -12.7797  -17.0940   22.6263 C.ar    1  UNL1        0.0064
     27 C         -13.5774  -17.7765   23.6977 C.ar    1  UNL1        0.0209
     28 C         -12.8941  -18.6800   24.6809 C.ar    1  UNL1        0.1021
     29 N         -11.4131  -18.9011   24.5927 N.ar    1  UNL1       -0.2101
@<TRIPOS>BOND
     1    10    11    1
     2    11    12   ar
     3    12    13   ar
     4    13     8    1
     5     8     1    1
     6     1     2   ar
     7     2     3   ar
     8     3     4    1
     9     3     5   ar
    10     5    17    1
    11    17    18    3
    12     5     6   ar
    13     6    19    1
    14    19    21    1
    15    21    22    1
    16    22    23    1
    17    23    24    1
    18    24    25   ar
    19    25    26   ar
    20    26    27   ar
    21    27    28   ar
    22    28    29   ar
    23     6     7   ar
    24    13    14   ar
    25    14    15   ar
    26    15    11   ar
    27     7     1   ar
    28    29    24   ar
    29     8     9    1
    30    19    20    1
    31    15    16    1
@<TRIPOS>MOLECULE
*****
 29 31 0 0 0
SMALL
GASTEIGER

@<TRIPOS>ATOM
      1 C          -4.4761  -16.0728   23.0081 C.ar    1  UNL1        0.1344
      2 C          -3.1062  -15.9183   22.4169 C.ar    1  UNL1        0.0310
      3 C          -2.4343  -17.0901   21.7648 C.ar    1  UNL1       -0.0067
      4 C          -1.0644  -16.9356   21.1735 C.3     1  UNL1        0.0319
      5 C          -3.1323  -18.4165   21.7039 C.ar    1  UNL1        0.0959
      6 C          -4.5021  -18.5710   22.2951 C.ar    1  UNL1        0.1393
      7 N          -5.1740  -17.3991   22.9472 N.ar    1  UNL1       -0.2154
      8 N          -5.1481  -14.9009   23.6602 N.pl3   1  UNL1       -0.2819
      9 H          -4.7649  -13.9989   23.5665 H       1  UNL1        0.1551
     10 C          -8.4603  -15.9331   27.6407 C.3     1  UNL1        0.0515
     11 C          -7.9264  -15.5778   26.2847 C.ar    1  UNL1        0.0548
     12 C          -6.4785  -15.4859   25.9035 C.ar    1  UNL1        0.0502
     13 C          -6.4039  -15.1034   24.4551 C.ar    1  UNL1        0.1539
     14 N          -7.8057  -14.9588   23.9410 N.ar    1  UNL1       -0.1577
     15 N          -8.7466  -15.2520   25.0718 N.ar    1  UNL1       -0.2786
     16 H          -9.7299  -15.2339   25.0259 H       1  UNL1        0.1886
     17 C          -2.4603  -19.5883   21.0517 C.1     1  UNL1        0.1029
     18 N          -1.7883  -20.7601   20.3996 N.1     1  UNL1       -0.1907
     19 N          -5.2001  -19.8973   22.2342 N.pl3   1  UNL1       -0.3145
     20 H          -5.1153  -20.5329   22.9812 H       1  UNL1        0.1483
     21 C          -6.0271  -20.2553   21.0351 C.3     1  UNL1        0.1362
     22 C          -6.4482  -19.1881   20.0687 C.3     1  UNL1        0.2282
     23 O          -7.8614  -18.6850   20.0760 O.3     1  UNL1       -0.4584
     24 C          -8.7932  -19.0824   21.1822 C.ar    1  UNL1        0.2249
     25 C         -10.1501  -19.6339   20.8581 C.ar    1  UNL1        0.0577
     26 C         -11.0819  -20.0312   21.9644 C.ar    1  UNL1        0.0064
     27 C         -10.6570  -19.8771   23.3947 C.ar    1  UNL1        0.0209
     28 C          -9.3002  -19.3256   23.7187 C.ar    1  UNL1        0.1021
     29 N          -8.3683  -18.9283   22.6125 N.ar    1  UNL1       -0.2101
@<TRIPOS>BOND
     1    10    11    1
     2    11    12   ar
     3    12    13   ar
     4    13     8    1
     5     8     1    1
     6     1     2   ar
     7     2     3   ar
     8     3     4    1
     9     3     5   ar
    10     5    17    1
    11    17    18    3
    12     5     6   ar
    13     6    19    1
    14    19    21    1
    15    21    22    1
    16    22    23    1
    17    23    24    1
    18    24    25   ar
    19    25    26   ar
    20    26    27   ar
    21    27    28   ar
    22    28    29   ar
    23     6     7   ar
    24    13    14   ar
    25    14    15   ar
    26    15    11   ar
    27     7     1   ar
    28    29    24   ar
    29     8     9    1
    30    19    20    1
    31    15    16    1
