@<TRIPOS>MOLECULE
*****
 37 40 0 0 0
SMALL
GASTEIGER

@<TRIPOS>ATOM
      1 O          -9.1971  -19.4392   22.8147 O.3     1  UNL1       -0.4741
      2 C          -7.8846  -19.4299   22.0887 C.ar    1  UNL1        0.1513
      3 C          -6.6031  -19.2999   22.8574 C.ar    1  UNL1        0.0688
      4 C          -5.2906  -19.2906   22.1313 C.ar    1  UNL1        0.1620
      5 F          -4.0091  -19.1607   22.9000 F       1  UNL1       -0.2026
      6 C          -5.2595  -19.4113   20.6365 C.ar    1  UNL1        0.1535
      7 C          -6.5410  -19.5412   19.8677 C.ar    1  UNL1        0.0369
      8 C          -7.8535  -19.5505   20.5938 C.ar    1  UNL1        0.0930
      9 CL         -9.1350  -19.6805   19.8250 Cl      1  UNL1       -0.0790
     10 S          -3.9470  -19.4020   19.9104 S.O2    1  UNL1        0.0772
     11 O          -4.3687  -18.1712   19.1639 O.2     1  UNL1       -0.1498
     12 O          -3.5253  -20.6327   20.6570 O.2     1  UNL1       -0.1498
     13 N          -2.6344  -19.3926   19.1843 N.pl3   1  UNL1       -0.1936
     14 H          -2.4904  -19.9962   18.4200 H       1  UNL1        0.1758
     15 C          -1.5414  -18.4637   19.6228 C.ar    1  UNL1        0.1786
     16 N          -0.0729  -18.7697   19.6267 N.ar    1  UNL1       -0.2214
     17 C           0.6512  -17.5607   20.1407 C.ar    1  UNL1        0.1079
     18 C          -0.3698  -16.5076   20.4545 C.ar    1  UNL1        0.0588
     19 S          -1.7249  -17.0655   20.1344 S.2     1  UNL1       -0.0497
     20 C          -9.8541  -18.1449   23.1930 C.3     1  UNL1        0.2110
     21 C         -11.0555  -17.1326   21.1237 C.3     1  UNL1        0.0620
     22 C         -11.1933  -16.0367   20.1089 C.3     1  UNL1        0.0208
     23 C         -10.2675  -14.8572   20.1484 C.3     1  UNL1        0.0271
     24 C          -9.2039  -14.7735   21.2027 C.2     1  UNL1       -0.0302
     25 C          -9.0661  -15.8694   22.2176 C.2     1  UNL1       -0.0218
     26 C          -9.9919  -17.0490   22.1781 C.3     1  UNL1        0.0801
     27 C          -8.0025  -15.7858   23.2720 C.ar    1  UNL1       -0.0040
     28 C          -6.5563  -15.8920   22.8885 C.ar    1  UNL1        0.0020
     29 C          -5.4926  -15.8084   23.9429 C.ar    1  UNL1        0.0296
     30 C          -5.8753  -15.6186   25.3808 C.ar    1  UNL1        0.1401
     31 F          -4.8117  -15.5350   26.4352 F       1  UNL1       -0.2042
     32 C          -7.3216  -15.5124   25.7643 C.ar    1  UNL1        0.0296
     33 C          -8.3851  -15.5960   24.7099 C.ar    1  UNL1        0.0020
     34 N         -11.9814  -18.3121   21.0843 N.3     1  UNL1       -0.2982
     35 H         -12.1966  -18.4848   20.1023 H       1  UNL1        0.1232
     36 C         -13.3323  -17.8581   23.2565 C.3     1  UNL1        0.0185
     37 C         -13.2918  -18.2618   21.8124 C.3     1  UNL1        0.0686
@<TRIPOS>BOND
     1    36    37    1
     2    37    34    1
     3    21    34    1
     4    21    22    1
     5    22    23    1
     6    23    24    1
     7    24    25    2
     8    25    27    1
     9    27    28   ar
    10    28    29   ar
    11    29    30   ar
    12    30    31    1
    13    30    32   ar
    14    32    33   ar
    15    25    26    1
    16    26    20    1
    17    20     1    1
    18     1     2    1
    19     2     3   ar
    20     3     4   ar
    21     4     5    1
    22     4     6   ar
    23     6    10    1
    24    10    11    2
    25    10    12    2
    26    10    13    1
    27    13    15    1
    28    15    16   ar
    29    16    17   ar
    30    17    18   ar
    31    18    19   ar
    32     6     7   ar
    33     7     8   ar
    34     8     9    1
    35    26    21    1
    36     8     2   ar
    37    33    27   ar
    38    19    15   ar
    39    34    35    1
    40    13    14    1
@<TRIPOS>MOLECULE
*****
 37 40 0 0 0
SMALL
GASTEIGER

@<TRIPOS>ATOM
      1 O           6.1618   -0.7868   22.0641 O.3     1  UNL1       -0.4741
      2 C           5.4437   -0.5196   23.3536 C.ar    1  UNL1        0.1513
      3 C           3.9652   -0.2665   23.3502 C.ar    1  UNL1        0.0688
      4 C           3.2470    0.0007   24.6398 C.ar    1  UNL1        0.1620
      5 F           1.7686    0.2538   24.6364 F       1  UNL1       -0.2026
      6 C           4.0074    0.0149   25.9327 C.ar    1  UNL1        0.1535
      7 C           5.4859   -0.2382   25.9361 C.ar    1  UNL1        0.0369
      8 C           6.2040   -0.5054   24.6466 C.ar    1  UNL1        0.0930
      9 CL          7.6825   -0.7585   24.6500 Cl      1  UNL1       -0.0790
     10 S           3.2893    0.2821   27.2222 S.O2    1  UNL1        0.0772
     11 O           3.0581   -1.1894   27.3984 O.2     1  UNL1       -0.1498
     12 O           3.5205    1.7536   27.0460 O.2     1  UNL1       -0.1498
     13 N           2.5711    0.5493   28.5117 N.pl3   1  UNL1       -0.1936
     14 H           3.0839    0.7212   29.3343 H       1  UNL1        0.1758
     15 C           1.0715    0.5545   28.5479 C.ar    1  UNL1        0.1786
     16 N           0.2081   -0.2875   29.4398 N.ar    1  UNL1       -0.2214
     17 C          -1.2249    0.0402   29.1417 C.ar    1  UNL1        0.1079
     18 C          -1.2473    1.0848   28.0654 C.ar    1  UNL1        0.0588
     19 S           0.1720    1.4027   27.6984 S.2     1  UNL1       -0.0497
     20 C           5.3964   -0.8329   20.7750 C.3     1  UNL1        0.2110
     21 C           5.8798   -3.3349   20.2682 C.3     1  UNL1        0.0620
     22 C           5.4433   -4.6535   19.7020 C.3     1  UNL1        0.0208
     23 C           4.0868   -4.7888   19.0762 C.3     1  UNL1        0.0271
     24 C           3.1668   -3.6056   19.0166 C.2     1  UNL1       -0.0302
     25 C           3.6034   -2.2870   19.5829 C.2     1  UNL1       -0.0218
     26 C           4.9599   -2.1516   20.2087 C.3     1  UNL1        0.0801
     27 C           2.6834   -1.1037   19.5234 C.ar    1  UNL1       -0.0040
     28 C           2.8212   -0.1015   18.4159 C.ar    1  UNL1        0.0020
     29 C           1.9013    1.0819   18.3564 C.ar    1  UNL1        0.0296
     30 C           0.8435    1.2629   19.4044 C.ar    1  UNL1        0.1401
     31 F          -0.0765    2.4461   19.3449 F       1  UNL1       -0.2042
     32 C           0.7056    0.2606   20.5119 C.ar    1  UNL1        0.0296
     33 C           1.6256   -0.9226   20.5714 C.ar    1  UNL1        0.0020
     34 N           7.2363   -3.1995   20.8940 N.3     1  UNL1       -0.2982
     35 H           7.9139   -3.2024   20.1316 H       1  UNL1        0.1232
     36 C           7.2135   -4.1547   23.3100 C.3     1  UNL1        0.0185
     37 C           7.7055   -4.2141   21.8942 C.3     1  UNL1        0.0686
@<TRIPOS>BOND
     1    36    37    1
     2    37    34    1
     3    21    34    1
     4    21    22    1
     5    22    23    1
     6    23    24    1
     7    24    25    2
     8    25    27    1
     9    27    28   ar
    10    28    29   ar
    11    29    30   ar
    12    30    31    1
    13    30    32   ar
    14    32    33   ar
    15    25    26    1
    16    26    20    1
    17    20     1    1
    18     1     2    1
    19     2     3   ar
    20     3     4   ar
    21     4     5    1
    22     4     6   ar
    23     6    10    1
    24    10    11    2
    25    10    12    2
    26    10    13    1
    27    13    15    1
    28    15    16   ar
    29    16    17   ar
    30    17    18   ar
    31    18    19   ar
    32     6     7   ar
    33     7     8   ar
    34     8     9    1
    35    26    21    1
    36     8     2   ar
    37    33    27   ar
    38    19    15   ar
    39    34    35    1
    40    13    14    1
@<TRIPOS>MOLECULE
*****
 37 40 0 0 0
SMALL
GASTEIGER

@<TRIPOS>ATOM
      1 O           4.9117   -1.9489   23.5943 O.3     1  UNL1       -0.4741
      2 C           3.8881   -1.0801   22.9255 C.ar    1  UNL1        0.1513
      3 C           3.3820   -1.4338   21.5585 C.ar    1  UNL1        0.0688
      4 C           2.3583   -0.5650   20.8897 C.ar    1  UNL1        0.1620
      5 F           1.8522   -0.9187   19.5227 F       1  UNL1       -0.2026
      6 C           1.8408    0.6576   21.5879 C.ar    1  UNL1        0.1535
      7 C           2.3469    1.0113   22.9549 C.ar    1  UNL1        0.0369
      8 C           3.3705    0.1425   23.6237 C.ar    1  UNL1        0.0930
      9 CL          3.8767    0.4963   24.9907 Cl      1  UNL1       -0.0790
     10 S           0.8171    1.5264   20.9191 S.O2    1  UNL1        0.0772
     11 O          -0.2018    0.4348   21.0608 O.2     1  UNL1       -0.1498
     12 O           1.8361    2.6179   20.7774 O.2     1  UNL1       -0.1498
     13 N          -0.2066    2.3952   20.2503 N.pl3   1  UNL1       -0.1936
     14 H          -0.1165    2.6158   19.2950 H       1  UNL1        0.1758
     15 C          -1.3675    2.9277   21.0369 C.ar    1  UNL1        0.1786
     16 N          -2.8135    2.8302   20.6501 N.ar    1  UNL1       -0.2214
     17 C          -3.6259    3.4935   21.7225 C.ar    1  UNL1        0.1079
     18 C          -2.6820    4.0009   22.7721 C.ar    1  UNL1        0.0588
     19 S          -1.2862    3.6512   22.3484 S.2     1  UNL1       -0.0497
     20 C           5.0344   -3.3940   23.2113 C.3     1  UNL1        0.2110
     21 C           7.1125   -4.6211   24.1736 C.3     1  UNL1        0.0620
     22 C           8.4680   -5.2318   23.9747 C.3     1  UNL1        0.0208
     23 C           9.1011   -5.2260   22.6149 C.3     1  UNL1        0.0271
     24 C           8.3786   -4.6096   21.4539 C.2     1  UNL1       -0.0302
     25 C           7.0231   -3.9990   21.6527 C.2     1  UNL1       -0.0218
     26 C           6.3900   -4.0047   23.0126 C.3     1  UNL1        0.0801
     27 C           6.3005   -3.3825   20.4916 C.ar    1  UNL1       -0.0040
     28 C           5.2634   -4.1717   19.7491 C.ar    1  UNL1        0.0020
     29 C           4.5408   -3.5552   18.5880 C.ar    1  UNL1        0.0296
     30 C           4.8555   -2.1496   18.1696 C.ar    1  UNL1        0.1401
     31 F           4.1330   -1.5331   17.0086 F       1  UNL1       -0.2042
     32 C           5.8927   -1.3604   18.9122 C.ar    1  UNL1        0.0296
     33 C           6.6152   -1.9769   20.0732 C.ar    1  UNL1        0.0020
     34 N           6.4795   -4.6268   25.5334 N.3     1  UNL1       -0.2982
     35 H           6.7571   -3.7586   25.9911 H       1  UNL1        0.1232
     36 C           7.7770   -5.5298   27.5952 C.3     1  UNL1        0.0185
     37 C           6.7786   -5.7382   26.4953 C.3     1  UNL1        0.0686
@<TRIPOS>BOND
     1    36    37    1
     2    37    34    1
     3    21    34    1
     4    21    22    1
     5    22    23    1
     6    23    24    1
     7    24    25    2
     8    25    27    1
     9    27    28   ar
    10    28    29   ar
    11    29    30   ar
    12    30    31    1
    13    30    32   ar
    14    32    33   ar
    15    25    26    1
    16    26    20    1
    17    20     1    1
    18     1     2    1
    19     2     3   ar
    20     3     4   ar
    21     4     5    1
    22     4     6   ar
    23     6    10    1
    24    10    11    2
    25    10    12    2
    26    10    13    1
    27    13    15    1
    28    15    16   ar
    29    16    17   ar
    30    17    18   ar
    31    18    19   ar
    32     6     7   ar
    33     7     8   ar
    34     8     9    1
    35    26    21    1
    36     8     2   ar
    37    33    27   ar
    38    19    15   ar
    39    34    35    1
    40    13    14    1
@<TRIPOS>MOLECULE
*****
 37 40 0 0 0
SMALL
GASTEIGER

@<TRIPOS>ATOM
      1 O           2.4859   -1.5554   19.6408 O.3     1  UNL1       -0.4741
      2 C           2.2551   -0.7899   20.9099 C.ar    1  UNL1        0.1513
      3 C           1.2230    0.2978   20.9526 C.ar    1  UNL1        0.0688
      4 C           0.9923    1.0633   22.2218 C.ar    1  UNL1        0.1620
      5 F          -0.0398    2.1510   22.2645 F       1  UNL1       -0.2026
      6 C           1.7936    0.7412   23.4481 C.ar    1  UNL1        0.1535
      7 C           2.8257   -0.3464   23.4054 C.ar    1  UNL1        0.0369
      8 C           3.0565   -1.1119   22.1363 C.ar    1  UNL1        0.0930
      9 CL          4.0886   -2.1996   22.0936 Cl      1  UNL1       -0.0790
     10 S           1.5628    1.5068   24.7172 S.O2    1  UNL1        0.0772
     11 O           0.2123    0.8690   24.8563 O.2     1  UNL1       -0.1498
     12 O           2.9133    2.1445   24.5781 O.2     1  UNL1       -0.1498
     13 N           1.3320    2.2723   25.9864 N.pl3   1  UNL1       -0.1936
     14 H           1.3113    3.2565   25.9708 H       1  UNL1        0.1758
     15 C           1.1327    1.5383   27.2793 C.ar    1  UNL1        0.1786
     16 N           1.9234    0.3546   27.7521 N.ar    1  UNL1       -0.2214
     17 C           1.3871   -0.0561   29.0914 C.ar    1  UNL1        0.1079
     18 C           0.2649    0.8738   29.4463 C.ar    1  UNL1        0.0588
     19 S           0.1076    1.8592   28.3264 S.2     1  UNL1       -0.0497
     20 C           3.3094   -0.9535   18.5410 C.3     1  UNL1        0.2110
     21 C           5.6341   -2.0943   18.3301 C.3     1  UNL1        0.0620
     22 C           7.1273   -2.0336   18.4585 C.3     1  UNL1        0.0208
     23 C           7.7892   -0.7714   18.9262 C.3     1  UNL1        0.0271
     24 C           6.9578    0.4301   19.2655 C.2     1  UNL1       -0.0302
     25 C           5.4646    0.3694   19.1371 C.2     1  UNL1       -0.0218
     26 C           4.8027   -0.8928   18.6694 C.3     1  UNL1        0.0801
     27 C           4.6331    1.5710   19.4764 C.ar    1  UNL1       -0.0040
     28 C           4.5530    2.0512   20.8951 C.ar    1  UNL1        0.0020
     29 C           3.7215    3.2528   21.2344 C.ar    1  UNL1        0.0296
     30 C           2.9702    3.9740   20.1549 C.ar    1  UNL1        0.1401
     31 F           2.1388    5.1755   20.4941 F       1  UNL1       -0.2042
     32 C           3.0504    3.4937   18.7361 C.ar    1  UNL1        0.0296
     33 C           3.8818    2.2922   18.3968 C.ar    1  UNL1        0.0020
     34 N           4.9722   -3.3565   17.8624 N.3     1  UNL1       -0.2982
     35 H           4.0456   -3.0956   17.5252 H       1  UNL1        0.1232
     36 C           3.4078   -4.8344   19.3180 C.3     1  UNL1        0.0185
     37 C           4.7805   -4.5000   18.8141 C.3     1  UNL1        0.0686
@<TRIPOS>BOND
     1    36    37    1
     2    37    34    1
     3    21    34    1
     4    21    22    1
     5    22    23    1
     6    23    24    1
     7    24    25    2
     8    25    27    1
     9    27    28   ar
    10    28    29   ar
    11    29    30   ar
    12    30    31    1
    13    30    32   ar
    14    32    33   ar
    15    25    26    1
    16    26    20    1
    17    20     1    1
    18     1     2    1
    19     2     3   ar
    20     3     4   ar
    21     4     5    1
    22     4     6   ar
    23     6    10    1
    24    10    11    2
    25    10    12    2
    26    10    13    1
    27    13    15    1
    28    15    16   ar
    29    16    17   ar
    30    17    18   ar
    31    18    19   ar
    32     6     7   ar
    33     7     8   ar
    34     8     9    1
    35    26    21    1
    36     8     2   ar
    37    33    27   ar
    38    19    15   ar
    39    34    35    1
    40    13    14    1
@<TRIPOS>MOLECULE
*****
 37 40 0 0 0
SMALL
GASTEIGER

@<TRIPOS>ATOM
      1 O           5.4179    1.3309   19.8291 O.3     1  UNL1       -0.4741
      2 C           3.9716    1.7230   19.8939 C.ar    1  UNL1        0.1513
      3 C           3.0188    1.2527   18.8351 C.ar    1  UNL1        0.0688
      4 C           1.5724    1.6449   18.8999 C.ar    1  UNL1        0.1620
      5 F           0.6196    1.1745   17.8411 F       1  UNL1       -0.2026
      6 C           1.0788    2.5073   20.0235 C.ar    1  UNL1        0.1535
      7 C           2.0315    2.9776   21.0823 C.ar    1  UNL1        0.0369
      8 C           3.4779    2.5855   21.0175 C.ar    1  UNL1        0.0930
      9 CL          4.4306    3.0558   22.0763 Cl      1  UNL1       -0.0790
     10 S          -0.3676    2.8994   20.0883 S.O2    1  UNL1        0.0772
     11 O          -0.0364    4.2237   19.4668 O.2     1  UNL1       -0.1498
     12 O          -0.6988    1.5751   20.7099 O.2     1  UNL1       -0.1498
     13 N          -1.8140    3.2916   20.1531 N.pl3   1  UNL1       -0.1936
     14 H          -2.3334    3.3958   19.3233 H       1  UNL1        0.1758
     15 C          -2.4690    3.5249   21.4822 C.ar    1  UNL1        0.1786
     16 N          -1.7721    3.9123   22.7527 N.ar    1  UNL1       -0.2214
     17 C          -2.8083    4.0386   23.8299 C.ar    1  UNL1        0.1079
     18 C          -4.1457    3.7293   23.2251 C.ar    1  UNL1        0.0588
     19 S          -3.9361    3.4118   21.7742 S.2     1  UNL1       -0.0497
     20 C           5.8810    0.0623   20.4819 C.3     1  UNL1        0.2110
     21 C           5.8037   -1.7482   18.6201 C.3     1  UNL1        0.0620
     22 C           5.3134   -3.0732   18.1163 C.3     1  UNL1        0.0208
     23 C           4.4101   -3.9128   18.9702 C.3     1  UNL1        0.0271
     24 C           3.9971   -3.4273   20.3280 C.2     1  UNL1       -0.0302
     25 C           4.4874   -2.1023   20.8319 C.2     1  UNL1       -0.0218
     26 C           5.3907   -1.2628   19.9779 C.3     1  UNL1        0.0801
     27 C           4.0744   -1.6167   22.1898 C.ar    1  UNL1       -0.0040
     28 C           2.9135   -0.6772   22.3293 C.ar    1  UNL1        0.0020
     29 C           2.5005   -0.1917   23.6871 C.ar    1  UNL1        0.0296
     30 C           3.2485   -0.6457   24.9055 C.ar    1  UNL1        0.1401
     31 F           2.8356   -0.1602   26.2633 F       1  UNL1       -0.2042
     32 C           4.4095   -1.5853   24.7659 C.ar    1  UNL1        0.0296
     33 C           4.8224   -2.0708   23.4081 C.ar    1  UNL1        0.0020
     34 N           6.7070   -0.9087   17.7662 N.3     1  UNL1       -0.2982
     35 H           7.3127   -0.3885   18.4010 H       1  UNL1        0.1232
     36 C           6.9471    1.2503   16.3410 C.3     1  UNL1        0.0185
     37 C           6.1222    0.0890   16.8109 C.3     1  UNL1        0.0686
@<TRIPOS>BOND
     1    36    37    1
     2    37    34    1
     3    21    34    1
     4    21    22    1
     5    22    23    1
     6    23    24    1
     7    24    25    2
     8    25    27    1
     9    27    28   ar
    10    28    29   ar
    11    29    30   ar
    12    30    31    1
    13    30    32   ar
    14    32    33   ar
    15    25    26    1
    16    26    20    1
    17    20     1    1
    18     1     2    1
    19     2     3   ar
    20     3     4   ar
    21     4     5    1
    22     4     6   ar
    23     6    10    1
    24    10    11    2
    25    10    12    2
    26    10    13    1
    27    13    15    1
    28    15    16   ar
    29    16    17   ar
    30    17    18   ar
    31    18    19   ar
    32     6     7   ar
    33     7     8   ar
    34     8     9    1
    35    26    21    1
    36     8     2   ar
    37    33    27   ar
    38    19    15   ar
    39    34    35    1
    40    13    14    1
@<TRIPOS>MOLECULE
*****
 37 40 0 0 0
SMALL
GASTEIGER

@<TRIPOS>ATOM
      1 O           3.9935   -0.7139   24.0618 O.3     1  UNL1       -0.4741
      2 C           3.2016   -0.2174   25.2350 C.ar    1  UNL1        0.1513
      3 C           2.0124    0.6702   25.0156 C.ar    1  UNL1        0.0688
      4 C           1.2205    1.1667   26.1888 C.ar    1  UNL1        0.1620
      5 F           0.0313    2.0542   25.9694 F       1  UNL1       -0.2026
      6 C           1.6178    0.7757   27.5814 C.ar    1  UNL1        0.1535
      7 C           2.8070   -0.1118   27.8008 C.ar    1  UNL1        0.0369
      8 C           3.5989   -0.6083   26.6276 C.ar    1  UNL1        0.0930
      9 CL          4.7881   -1.4959   26.8470 Cl      1  UNL1       -0.0790
     10 S           0.8259    1.2723   28.7545 S.O2    1  UNL1        0.0772
     11 O           1.5134    2.6017   28.6559 O.2     1  UNL1       -0.1498
     12 O           0.1384   -0.0572   28.8531 O.2     1  UNL1       -0.1498
     13 N           0.0340    1.7689   29.9277 N.pl3   1  UNL1       -0.1936
     14 H          -0.9443    1.8564   29.8598 H       1  UNL1        0.1758
     15 C           0.7326    2.1322   31.2044 C.ar    1  UNL1        0.1786
     16 N           1.7033    1.2692   31.9548 N.ar    1  UNL1       -0.2214
     17 C           2.1538    2.0259   33.1690 C.ar    1  UNL1        0.1079
     18 C           1.4616    3.3566   33.1691 C.ar    1  UNL1        0.0588
     19 S           0.5832    3.4224   31.9549 S.2     1  UNL1       -0.0497
     20 C           3.3586   -0.7857   22.7047 C.3     1  UNL1        0.2110
     21 C           4.4339   -3.1172   22.3077 C.3     1  UNL1        0.0620
     22 C           4.7424   -4.2671   21.3952 C.3     1  UNL1        0.0208
     23 C           4.2842   -4.2353   19.9673 C.3     1  UNL1        0.0271
     24 C           3.5174   -3.0536   19.4518 C.2     1  UNL1       -0.0302
     25 C           3.2089   -1.9038   20.3643 C.2     1  UNL1       -0.0218
     26 C           3.6672   -1.9356   21.7922 C.3     1  UNL1        0.0801
     27 C           2.4421   -0.7221   19.8488 C.ar    1  UNL1       -0.0040
     28 C           3.0810    0.2173   18.8694 C.ar    1  UNL1        0.0020
     29 C           2.3142    1.3991   18.3540 C.ar    1  UNL1        0.0296
     30 C           0.9085    1.6413   18.8180 C.ar    1  UNL1        0.1401
     31 F           0.1417    2.8230   18.3026 F       1  UNL1       -0.2042
     32 C           0.2696    0.7018   19.7975 C.ar    1  UNL1        0.0296
     33 C           1.0364   -0.4798   20.3129 C.ar    1  UNL1        0.0020
     34 N           4.8922   -3.1490   23.7356 N.3     1  UNL1       -0.2982
     35 H           4.5815   -2.2771   24.1640 H       1  UNL1        0.1232
     36 C           6.9000   -4.6192   24.4821 C.3     1  UNL1        0.0185
     37 C           6.3515   -3.2910   24.0520 C.3     1  UNL1        0.0686
@<TRIPOS>BOND
     1    36    37    1
     2    37    34    1
     3    21    34    1
     4    21    22    1
     5    22    23    1
     6    23    24    1
     7    24    25    2
     8    25    27    1
     9    27    28   ar
    10    28    29   ar
    11    29    30   ar
    12    30    31    1
    13    30    32   ar
    14    32    33   ar
    15    25    26    1
    16    26    20    1
    17    20     1    1
    18     1     2    1
    19     2     3   ar
    20     3     4   ar
    21     4     5    1
    22     4     6   ar
    23     6    10    1
    24    10    11    2
    25    10    12    2
    26    10    13    1
    27    13    15    1
    28    15    16   ar
    29    16    17   ar
    30    17    18   ar
    31    18    19   ar
    32     6     7   ar
    33     7     8   ar
    34     8     9    1
    35    26    21    1
    36     8     2   ar
    37    33    27   ar
    38    19    15   ar
    39    34    35    1
    40    13    14    1
@<TRIPOS>MOLECULE
*****
 37 40 0 0 0
SMALL
GASTEIGER

@<TRIPOS>ATOM
      1 O           4.1044   -0.7434   23.2667 O.3     1  UNL1       -0.4741
      2 C           3.6512   -0.4430   24.6646 C.ar    1  UNL1        0.1513
      3 C           4.2117   -1.2207   25.8183 C.ar    1  UNL1        0.0688
      4 C           3.7584   -0.9202   27.2163 C.ar    1  UNL1        0.1620
      5 F           4.3189   -1.6980   28.3699 F       1  UNL1       -0.2026
      6 C           2.7446    0.1580   27.4605 C.ar    1  UNL1        0.1535
      7 C           2.1841    0.9358   26.3069 C.ar    1  UNL1        0.0369
      8 C           2.6374    0.6353   24.9090 C.ar    1  UNL1        0.0930
      9 CL          2.0769    1.4130   23.7553 Cl      1  UNL1       -0.0790
     10 S           2.2914    0.4585   28.8585 S.O2    1  UNL1        0.0772
     11 O           3.3538    1.5107   28.9767 O.2     1  UNL1       -0.1498
     12 O           1.2290   -0.5938   28.7402 O.2     1  UNL1       -0.1498
     13 N           1.8382    0.7590   30.2565 N.pl3   1  UNL1       -0.1936
     14 H           0.9953    1.2450   30.4069 H       1  UNL1        0.1758
     15 C           2.6692    0.3190   31.4252 C.ar    1  UNL1        0.1786
     16 N           3.2608   -1.0452   31.6226 N.ar    1  UNL1       -0.2214
     17 C           4.0117   -1.0414   32.9211 C.ar    1  UNL1        0.1079
     18 C           3.8842    0.3252   33.5262 C.ar    1  UNL1        0.0588
     19 S           3.0545    1.1660   32.6017 S.2     1  UNL1       -0.0497
     20 C           3.1992   -1.4844   22.3277 C.3     1  UNL1        0.2110
     21 C           4.6949   -3.3527   21.3164 C.3     1  UNL1        0.0620
     22 C           5.2669   -4.0536   20.1200 C.3     1  UNL1        0.0208
     23 C           4.9154   -3.5871   18.7384 C.3     1  UNL1        0.0271
     24 C           3.9919   -2.4198   18.5532 C.2     1  UNL1       -0.0302
     25 C           3.4198   -1.7189   19.7496 C.2     1  UNL1       -0.0218
     26 C           3.7713   -2.1853   21.1312 C.3     1  UNL1        0.0801
     27 C           2.4963   -0.5515   19.5645 C.ar    1  UNL1       -0.0040
     28 C           1.1354   -0.5644   20.1951 C.ar    1  UNL1        0.0020
     29 C           0.2118    0.6030   20.0099 C.ar    1  UNL1        0.0296
     30 C           0.6492    1.7833   19.1941 C.ar    1  UNL1        0.1401
     31 F          -0.2743    2.9507   19.0090 F       1  UNL1       -0.2042
     32 C           2.0102    1.7962   18.5635 C.ar    1  UNL1        0.0296
     33 C           2.9337    0.6289   18.7487 C.ar    1  UNL1        0.0020
     34 N           5.0463   -3.8192   22.6981 N.3     1  UNL1       -0.2982
     35 H           4.3445   -3.4301   23.3277 H       1  UNL1        0.1232
     36 C           6.6962   -3.8540   24.7047 C.3     1  UNL1        0.0185
     37 C           6.3862   -3.4856   23.2841 C.3     1  UNL1        0.0686
@<TRIPOS>BOND
     1    36    37    1
     2    37    34    1
     3    21    34    1
     4    21    22    1
     5    22    23    1
     6    23    24    1
     7    24    25    2
     8    25    27    1
     9    27    28   ar
    10    28    29   ar
    11    29    30   ar
    12    30    31    1
    13    30    32   ar
    14    32    33   ar
    15    25    26    1
    16    26    20    1
    17    20     1    1
    18     1     2    1
    19     2     3   ar
    20     3     4   ar
    21     4     5    1
    22     4     6   ar
    23     6    10    1
    24    10    11    2
    25    10    12    2
    26    10    13    1
    27    13    15    1
    28    15    16   ar
    29    16    17   ar
    30    17    18   ar
    31    18    19   ar
    32     6     7   ar
    33     7     8   ar
    34     8     9    1
    35    26    21    1
    36     8     2   ar
    37    33    27   ar
    38    19    15   ar
    39    34    35    1
    40    13    14    1
@<TRIPOS>MOLECULE
*****
 37 40 0 0 0
SMALL
GASTEIGER

@<TRIPOS>ATOM
      1 O          -9.1952  -15.7753   23.5582 O.3     1  UNL1       -0.4741
      2 C          -7.8299  -16.3517   23.3269 C.ar    1  UNL1        0.1513
      3 C          -7.6563  -17.5226   22.4056 C.ar    1  UNL1        0.0688
      4 C          -6.2909  -18.0991   22.1744 C.ar    1  UNL1        0.1620
      5 F          -6.1173  -19.2700   21.2530 F       1  UNL1       -0.2026
      6 C          -5.0991  -17.5046   22.8645 C.ar    1  UNL1        0.1535
      7 C          -5.2727  -16.3338   23.7858 C.ar    1  UNL1        0.0369
      8 C          -6.6380  -15.7573   24.0171 C.ar    1  UNL1        0.0930
      9 CL         -6.8116  -14.5864   24.9384 Cl      1  UNL1       -0.0790
     10 S          -3.7338  -18.0811   22.6332 S.O2    1  UNL1        0.0772
     11 O          -3.2135  -16.7146   22.2987 O.2     1  UNL1       -0.1498
     12 O          -4.2541  -19.4476   22.9678 O.2     1  UNL1       -0.1498
     13 N          -2.3684  -18.6576   22.4020 N.pl3   1  UNL1       -0.1936
     14 H          -1.9358  -19.1956   23.1039 H       1  UNL1        0.1758
     15 C          -1.6620  -18.4142   21.1013 C.ar    1  UNL1        0.1786
     16 N          -0.2027  -18.1102   20.9338 N.ar    1  UNL1       -0.2214
     17 C           0.0703  -17.9402   19.4687 C.ar    1  UNL1        0.1079
     18 C          -1.2203  -18.1391   18.7306 C.ar    1  UNL1        0.0588
     19 S          -2.2910  -18.4320   19.7395 S.2     1  UNL1       -0.0497
     20 C         -10.2049  -16.5382   24.3635 C.3     1  UNL1        0.2110
     21 C          -9.9016  -18.9111   25.3771 C.3     1  UNL1        0.0620
     22 C          -9.9952  -20.4022   25.2440 C.3     1  UNL1        0.0208
     23 C         -10.4858  -21.0116   23.9642 C.3     1  UNL1        0.0271
     24 C         -10.8827  -20.1299   22.8175 C.2     1  UNL1       -0.0302
     25 C         -10.7891  -18.6388   22.9506 C.2     1  UNL1       -0.0218
     26 C         -10.2985  -18.0294   24.2304 C.3     1  UNL1        0.0801
     27 C         -11.1860  -17.7570   21.8038 C.ar    1  UNL1       -0.0040
     28 C         -10.4389  -17.8335   20.5054 C.ar    1  UNL1        0.0020
     29 C         -10.8359  -16.9517   19.3586 C.ar    1  UNL1        0.0296
     30 C         -11.9799  -15.9935   19.5104 C.ar    1  UNL1        0.1401
     31 F         -12.3769  -15.1117   18.3637 F       1  UNL1       -0.2042
     32 C         -12.7270  -15.9170   20.8089 C.ar    1  UNL1        0.0296
     33 C         -12.3300  -16.7988   21.9556 C.ar    1  UNL1        0.0020
     34 N          -9.4110  -18.3016   26.6569 N.3     1  UNL1       -0.2982
     35 H         -10.2171  -17.8629   27.1021 H       1  UNL1        0.1232
     36 C          -8.3464  -16.1234   27.5906 C.3     1  UNL1        0.0185
     37 C          -8.3194  -17.2733   26.6279 C.3     1  UNL1        0.0686
@<TRIPOS>BOND
     1    36    37    1
     2    37    34    1
     3    21    34    1
     4    21    22    1
     5    22    23    1
     6    23    24    1
     7    24    25    2
     8    25    27    1
     9    27    28   ar
    10    28    29   ar
    11    29    30   ar
    12    30    31    1
    13    30    32   ar
    14    32    33   ar
    15    25    26    1
    16    26    20    1
    17    20     1    1
    18     1     2    1
    19     2     3   ar
    20     3     4   ar
    21     4     5    1
    22     4     6   ar
    23     6    10    1
    24    10    11    2
    25    10    12    2
    26    10    13    1
    27    13    15    1
    28    15    16   ar
    29    16    17   ar
    30    17    18   ar
    31    18    19   ar
    32     6     7   ar
    33     7     8   ar
    34     8     9    1
    35    26    21    1
    36     8     2   ar
    37    33    27   ar
    38    19    15   ar
    39    34    35    1
    40    13    14    1
@<TRIPOS>MOLECULE
*****
 37 40 0 0 0
SMALL
GASTEIGER

@<TRIPOS>ATOM
      1 O           1.9385    1.8976   33.1257 O.3     1  UNL1       -0.4741
      2 C           1.6181    1.7016   31.6735 C.ar    1  UNL1        0.1513
      3 C           2.1191    0.4854   30.9525 C.ar    1  UNL1        0.0688
      4 C           1.7987    0.2894   29.5002 C.ar    1  UNL1        0.1620
      5 F           2.2996   -0.9268   28.7791 F       1  UNL1       -0.2026
      6 C           0.9773    1.3096   28.7691 C.ar    1  UNL1        0.1535
      7 C           0.4763    2.5257   29.4901 C.ar    1  UNL1        0.0369
      8 C           0.7967    2.7218   30.9423 C.ar    1  UNL1        0.0930
      9 CL          0.2957    3.9380   31.6633 Cl      1  UNL1       -0.0790
     10 S           0.6569    1.1135   27.3169 S.O2    1  UNL1        0.0772
     11 O          -0.6029    0.3912   27.6923 O.2     1  UNL1       -0.1498
     12 O           1.9168    1.8358   26.9414 O.2     1  UNL1       -0.1498
     13 N           0.3365    0.9175   25.8646 N.pl3   1  UNL1       -0.1936
     14 H           0.5618    0.0679   25.4211 H       1  UNL1        0.1758
     15 C          -0.3272    2.0159   25.0881 C.ar    1  UNL1        0.1786
     16 N          -1.5378    2.7911   25.5164 N.ar    1  UNL1       -0.2214
     17 C          -1.8557    3.7863   24.4399 C.ar    1  UNL1        0.1079
     18 C          -0.8416    3.6261   23.3464 C.ar    1  UNL1        0.0588
     19 S           0.1031    2.5319   23.7469 S.2     1  UNL1       -0.0497
     20 C           3.3353    1.6703   33.6229 C.3     1  UNL1        0.2110
     21 C           2.9267    2.3505   36.0969 C.3     1  UNL1        0.0620
     22 C           3.1765    2.1385   37.5606 C.3     1  UNL1        0.0208
     23 C           4.0848    1.0343   38.0142 C.3     1  UNL1        0.0271
     24 C           4.7432    0.1420   37.0041 C.2     1  UNL1       -0.0302
     25 C           4.4934    0.3541   35.5403 C.2     1  UNL1       -0.0218
     26 C           3.5851    1.4583   35.0867 C.3     1  UNL1        0.0801
     27 C           5.1518   -0.5382   34.5301 C.ar    1  UNL1       -0.0040
     28 C           4.4102   -1.7180   33.9752 C.ar    1  UNL1        0.0020
     29 C           5.0687   -2.6102   32.9650 C.ar    1  UNL1        0.0296
     30 C           6.4687   -2.3225   32.5097 C.ar    1  UNL1        0.1401
     31 F           7.1271   -3.2147   31.4996 F       1  UNL1       -0.2042
     32 C           7.2102   -1.1426   33.0647 C.ar    1  UNL1        0.0296
     33 C           6.5518   -0.2504   34.0749 C.ar    1  UNL1        0.0020
     34 N           2.0184    3.4547   35.6433 N.3     1  UNL1       -0.2982
     35 H           2.5204    3.9707   34.9206 H       1  UNL1        0.1232
     36 C           1.0204    5.7990   36.1513 C.3     1  UNL1        0.0185
     37 C           1.5182    4.4675   36.6302 C.3     1  UNL1        0.0686
@<TRIPOS>BOND
     1    36    37    1
     2    37    34    1
     3    21    34    1
     4    21    22    1
     5    22    23    1
     6    23    24    1
     7    24    25    2
     8    25    27    1
     9    27    28   ar
    10    28    29   ar
    11    29    30   ar
    12    30    31    1
    13    30    32   ar
    14    32    33   ar
    15    25    26    1
    16    26    20    1
    17    20     1    1
    18     1     2    1
    19     2     3   ar
    20     3     4   ar
    21     4     5    1
    22     4     6   ar
    23     6    10    1
    24    10    11    2
    25    10    12    2
    26    10    13    1
    27    13    15    1
    28    15    16   ar
    29    16    17   ar
    30    17    18   ar
    31    18    19   ar
    32     6     7   ar
    33     7     8   ar
    34     8     9    1
    35    26    21    1
    36     8     2   ar
    37    33    27   ar
    38    19    15   ar
    39    34    35    1
    40    13    14    1
