@<TRIPOS>MOLECULE
*****
 27 30 0 0 0
SMALL
GASTEIGER

@<TRIPOS>ATOM
      1 C           6.2057   -2.7168   32.1296 C.ar    1  UNL1       -0.0225
      2 C           4.8067   -2.8231   32.6599 C.ar    1  UNL1       -0.0043
      3 C           4.3365   -1.8823   33.7294 C.ar    1  UNL1       -0.0003
      4 C           5.2653   -0.8351   34.2685 C.ar    1  UNL1        0.0021
      5 C           6.6643   -0.7288   33.7382 C.ar    1  UNL1       -0.0003
      6 C           7.1345   -1.6696   32.6687 C.ar    1  UNL1       -0.0043
      7 C           7.7715   -5.5991   27.4304 C.3     1  UNL1        0.0000
      8 C           7.6164   -5.5392   28.9212 C.3     1  UNL1        0.0000
      9 C           8.1818   -6.9207   28.7734 C.3     1  UNL1        0.0000
     10 C           7.6577   -5.9590   30.3606 C.3     1  UNL1        0.0003
     11 C           7.1875   -5.0182   31.4301 C.3     1  UNL1        0.0044
     12 C           6.6760   -3.6576   31.0601 C.3     1  UNL1        0.0223
     13 C           6.6347   -3.2377   29.6207 C.3     1  UNL1        0.0044
     14 C           7.1049   -4.1785   28.5512 C.3     1  UNL1        0.0003
     15 C           4.7951    0.1057   35.3380 C.ar    1  UNL1        0.0275
     16 C           5.3243   -0.0228   36.7356 C.ar    1  UNL1        0.0019
     17 C           4.8540    0.9180   37.8051 C.ar    1  UNL1       -0.0038
     18 C           3.8546    1.9873   37.4770 C.ar    1  UNL1       -0.0157
     19 C           3.3254    2.1158   36.0793 C.ar    1  UNL1        0.0257
     20 C           3.7957    1.1750   35.0099 C.ar    1  UNL1        0.1398
     21 F           3.2664    1.3035   33.6122 F       1  UNL1       -0.2042
     22 C           3.3844    2.9281   38.5464 C.3     1  UNL1        0.0509
     23 C           3.3797    4.0774   39.5103 C.3     1  UNL1        0.0100
     24 C           4.5616    3.8552   38.6138 C.3     1  UNL1        0.0100
     25 C           2.0439    2.3277   38.8505 C.2     1  UNL1        0.0534
     26 O           0.7993    2.9480   38.2881 O.co2   1  UNL1       -0.5489
     27 O           1.9479    1.1071   39.7170 O.co2   1  UNL1       -0.5489
@<TRIPOS>UNITY_ATOM_ATTR
26 1
charge -1
@<TRIPOS>BOND
     1     7     8    1
     2     8     9    1
     3     8    10    1
     4    10    11    1
     5    11    12    1
     6    12     1    1
     7     1     2   ar
     8     2     3   ar
     9     3     4   ar
    10     4    15    1
    11    15    16   ar
    12    16    17   ar
    13    17    18   ar
    14    18    22    1
    15    22    25    1
    16    25    26   ar
    17    25    27   ar
    18    22    23    1
    19    23    24    1
    20    18    19   ar
    21    19    20   ar
    22    20    21    1
    23     4     5   ar
    24     5     6   ar
    25    12    13    1
    26    13    14    1
    27    14     8    1
    28     6     1   ar
    29    20    15   ar
    30    24    22    1
@<TRIPOS>MOLECULE
*****
 27 30 0 0 0
SMALL
GASTEIGER

@<TRIPOS>ATOM
      1 C           6.2039   -2.6202   32.1742 C.ar    1  UNL1       -0.0225
      2 C           7.1149   -1.5256   32.6452 C.ar    1  UNL1       -0.0043
      3 C           6.6526   -0.5687   33.7039 C.ar    1  UNL1       -0.0003
      4 C           5.2795   -0.7065   34.2916 C.ar    1  UNL1        0.0021
      5 C           4.3686   -1.8012   33.8206 C.ar    1  UNL1       -0.0003
      6 C           4.8308   -2.7580   32.7619 C.ar    1  UNL1       -0.0043
      7 C           8.1784   -6.8647   28.8685 C.3     1  UNL1        0.0000
      8 C           7.5906   -5.4907   28.9982 C.3     1  UNL1        0.0000
      9 C           7.7111   -5.5828   27.5058 C.3     1  UNL1        0.0000
     10 C           7.0447   -4.1488   28.6096 C.3     1  UNL1        0.0003
     11 C           6.5825   -3.1919   29.6683 C.3     1  UNL1        0.0044
     12 C           6.6662   -3.5771   31.1155 C.3     1  UNL1        0.0223
     13 C           7.2121   -4.9190   31.5041 C.3     1  UNL1        0.0044
     14 C           7.6743   -5.8759   30.4454 C.3     1  UNL1        0.0003
     15 C           4.8172    0.2503   35.3502 C.ar    1  UNL1        0.0275
     16 C           3.7305    1.2382   35.0455 C.ar    1  UNL1        0.0019
     17 C           3.2683    2.1951   36.1042 C.ar    1  UNL1       -0.0038
     18 C           3.8928    2.1640   37.4676 C.ar    1  UNL1       -0.0157
     19 C           4.9795    1.1760   37.7723 C.ar    1  UNL1        0.0257
     20 C           5.4418    0.2192   36.7137 C.ar    1  UNL1        0.1398
     21 F           6.5286   -0.7688   37.0185 F       1  UNL1       -0.2042
     22 C           3.4306    3.1208   38.5263 C.3     1  UNL1        0.0509
     23 C           3.4353    4.2814   39.4765 C.3     1  UNL1        0.0100
     24 C           4.6147    4.0399   38.5817 C.3     1  UNL1        0.0100
     25 C           2.0859    2.5340   38.8386 C.2     1  UNL1        0.0534
     26 O           0.8485    3.1332   38.2387 O.co2   1  UNL1       -0.5489
     27 O           1.9786    1.3482   39.7508 O.co2   1  UNL1       -0.5489
@<TRIPOS>UNITY_ATOM_ATTR
26 1
charge -1
@<TRIPOS>BOND
     1     7     8    1
     2     8     9    1
     3     8    10    1
     4    10    11    1
     5    11    12    1
     6    12     1    1
     7     1     2   ar
     8     2     3   ar
     9     3     4   ar
    10     4    15    1
    11    15    16   ar
    12    16    17   ar
    13    17    18   ar
    14    18    22    1
    15    22    25    1
    16    25    26   ar
    17    25    27   ar
    18    22    23    1
    19    23    24    1
    20    18    19   ar
    21    19    20   ar
    22    20    21    1
    23     4     5   ar
    24     5     6   ar
    25    12    13    1
    26    13    14    1
    27    14     8    1
    28     6     1   ar
    29    20    15   ar
    30    24    22    1
@<TRIPOS>MOLECULE
*****
 27 30 0 0 0
SMALL
GASTEIGER

@<TRIPOS>ATOM
      1 C          -0.7474    2.8357   24.4628 C.ar    1  UNL1       -0.0225
      2 C          -0.5894    3.0994   22.9946 C.ar    1  UNL1       -0.0043
      3 C           0.2887    2.2116   22.1635 C.ar    1  UNL1       -0.0003
      4 C           1.0088    1.0602   22.8005 C.ar    1  UNL1        0.0021
      5 C           0.8507    0.7966   24.2686 C.ar    1  UNL1       -0.0003
      6 C          -0.0274    1.6843   25.0997 C.ar    1  UNL1       -0.0043
      7 C          -3.2738    6.5550   28.0161 C.3     1  UNL1        0.0000
      8 C          -3.3817    5.4990   26.9562 C.3     1  UNL1        0.0000
      9 C          -4.8350    5.8032   27.1698 C.3     1  UNL1        0.0000
     10 C          -3.9943    4.5487   25.9706 C.3     1  UNL1        0.0003
     11 C          -3.1162    3.6609   25.1394 C.3     1  UNL1        0.0044
     12 C          -1.6255    3.7235   25.2939 C.3     1  UNL1        0.0223
     13 C          -1.0130    4.6738   26.2796 C.3     1  UNL1        0.0044
     14 C          -1.8911    5.5616   27.1108 C.3     1  UNL1        0.0003
     15 C           1.8869    0.1725   21.9693 C.ar    1  UNL1        0.0275
     16 C           3.2802   -0.1439   22.4258 C.ar    1  UNL1        0.0019
     17 C           4.1583   -1.0317   21.5946 C.ar    1  UNL1       -0.0038
     18 C           3.6431   -1.6031   20.3070 C.ar    1  UNL1       -0.0157
     19 C           2.2497   -1.2867   19.8505 C.ar    1  UNL1        0.0257
     20 C           1.3716   -0.3989   20.6817 C.ar    1  UNL1        0.1398
     21 F          -0.0218   -0.0825   20.2252 F       1  UNL1       -0.2042
     22 C           4.5212   -2.4908   19.4758 C.3     1  UNL1        0.0509
     23 C           5.5755   -2.9116   18.4954 C.3     1  UNL1        0.0100
     24 C           5.3336   -1.4547   18.7573 C.3     1  UNL1        0.0100
     25 C           4.0137   -3.8353   19.9057 C.2     1  UNL1        0.0534
     26 O           4.5023   -4.4475   21.1850 O.co2   1  UNL1       -0.5489
     27 O           3.0177   -4.5677   19.0562 O.co2   1  UNL1       -0.5489
@<TRIPOS>UNITY_ATOM_ATTR
26 1
charge -1
@<TRIPOS>BOND
     1     7     8    1
     2     8     9    1
     3     8    10    1
     4    10    11    1
     5    11    12    1
     6    12     1    1
     7     1     2   ar
     8     2     3   ar
     9     3     4   ar
    10     4    15    1
    11    15    16   ar
    12    16    17   ar
    13    17    18   ar
    14    18    22    1
    15    22    25    1
    16    25    26   ar
    17    25    27   ar
    18    22    23    1
    19    23    24    1
    20    18    19   ar
    21    19    20   ar
    22    20    21    1
    23     4     5   ar
    24     5     6   ar
    25    12    13    1
    26    13    14    1
    27    14     8    1
    28     6     1   ar
    29    20    15   ar
    30    24    22    1
@<TRIPOS>MOLECULE
*****
 27 30 0 0 0
SMALL
GASTEIGER

@<TRIPOS>ATOM
      1 C          -0.7779    2.8671   24.0907 C.ar    1  UNL1       -0.0225
      2 C          -0.7819    3.1245   22.6130 C.ar    1  UNL1       -0.0043
      3 C           0.1201    2.3346   21.7116 C.ar    1  UNL1       -0.0003
      4 C           1.0261    1.2873   22.2879 C.ar    1  UNL1        0.0021
      5 C           1.0301    1.0299   23.7656 C.ar    1  UNL1       -0.0003
      6 C           0.1282    1.8198   24.6670 C.ar    1  UNL1       -0.0043
      7 C          -4.9410    5.3866   27.1176 C.3     1  UNL1        0.0000
      8 C          -3.4838    5.2368   26.7949 C.3     1  UNL1        0.0000
      9 C          -3.4085    6.2972   27.8532 C.3     1  UNL1        0.0000
     10 C          -2.0005    5.4552   26.8396 C.3     1  UNL1        0.0003
     11 C          -1.0985    4.6653   25.9382 C.3     1  UNL1        0.0044
     12 C          -1.6798    3.6570   24.9921 C.3     1  UNL1        0.0223
     13 C          -3.1631    3.4385   24.9473 C.3     1  UNL1        0.0044
     14 C          -4.0651    4.2284   25.8487 C.3     1  UNL1        0.0003
     15 C           1.9281    0.4974   21.3865 C.ar    1  UNL1        0.0275
     16 C           1.3507   -0.5399   20.4697 C.ar    1  UNL1        0.0019
     17 C           2.2527   -1.3298   19.5683 C.ar    1  UNL1       -0.0038
     18 C           3.7320   -1.0824   19.5837 C.ar    1  UNL1       -0.0157
     19 C           4.3094   -0.0451   20.5006 C.ar    1  UNL1        0.0257
     20 C           3.4074    0.7448   21.4019 C.ar    1  UNL1        0.1398
     21 F           3.9848    1.7822   22.3188 F       1  UNL1       -0.2042
     22 C           4.6340   -1.8722   18.6823 C.3     1  UNL1        0.0509
     23 C           5.5064   -2.9873   18.1869 C.3     1  UNL1        0.0100
     24 C           4.8622   -3.0829   19.5381 C.3     1  UNL1        0.0100
     25 C           4.7191   -0.9360   17.5135 C.2     1  UNL1        0.0534
     26 O           3.7928   -1.1075   16.3462 O.co2   1  UNL1       -0.5489
     27 O           5.7304    0.1718   17.5120 O.co2   1  UNL1       -0.5489
@<TRIPOS>UNITY_ATOM_ATTR
26 1
charge -1
@<TRIPOS>BOND
     1     7     8    1
     2     8     9    1
     3     8    10    1
     4    10    11    1
     5    11    12    1
     6    12     1    1
     7     1     2   ar
     8     2     3   ar
     9     3     4   ar
    10     4    15    1
    11    15    16   ar
    12    16    17   ar
    13    17    18   ar
    14    18    22    1
    15    22    25    1
    16    25    26   ar
    17    25    27   ar
    18    22    23    1
    19    23    24    1
    20    18    19   ar
    21    19    20   ar
    22    20    21    1
    23     4     5   ar
    24     5     6   ar
    25    12    13    1
    26    13    14    1
    27    14     8    1
    28     6     1   ar
    29    20    15   ar
    30    24    22    1
@<TRIPOS>MOLECULE
*****
 27 30 0 0 0
SMALL
GASTEIGER

@<TRIPOS>ATOM
      1 C          -0.8516    2.5267   27.3447 C.ar    1  UNL1       -0.0225
      2 C           0.1870    3.4475   27.9133 C.ar    1  UNL1       -0.0043
      3 C           1.2161    2.9189   28.8680 C.ar    1  UNL1       -0.0003
      4 C           1.2066    1.4695   29.2541 C.ar    1  UNL1        0.0021
      5 C           0.1680    0.5487   28.6855 C.ar    1  UNL1       -0.0003
      6 C          -0.8611    1.0773   27.7308 C.ar    1  UNL1       -0.0043
      7 C          -4.1216    4.3688   23.0139 C.3     1  UNL1        0.0000
      8 C          -3.9390    4.1124   24.4806 C.3     1  UNL1        0.0000
      9 C          -5.3332    4.6659   24.4845 C.3     1  UNL1        0.0000
     10 C          -4.2406    4.0482   25.9485 C.3     1  UNL1        0.0003
     11 C          -3.2115    3.5197   26.9032 C.3     1  UNL1        0.0044
     12 C          -1.8808    3.0553   26.3900 C.3     1  UNL1        0.0223
     13 C          -1.5792    3.1194   24.9221 C.3     1  UNL1        0.0044
     14 C          -2.6083    3.6480   23.9674 C.3     1  UNL1        0.0003
     15 C           2.2358    0.9409   30.2089 C.ar    1  UNL1        0.0275
     16 C           3.4084    0.1616   29.6917 C.ar    1  UNL1        0.0019
     17 C           4.4376   -0.3669   30.6464 C.ar    1  UNL1       -0.0038
     18 C           4.2941   -0.1162   32.1183 C.ar    1  UNL1       -0.0157
     19 C           3.1214    0.6631   32.6355 C.ar    1  UNL1        0.0257
     20 C           2.0923    1.1916   31.6807 C.ar    1  UNL1        0.1398
     21 F           0.9195    1.9710   32.1980 F       1  UNL1       -0.2042
     22 C           5.3232   -0.6448   33.0730 C.3     1  UNL1        0.0509
     23 C           6.4890   -0.6709   34.0164 C.3     1  UNL1        0.0100
     24 C           6.0743    0.6186   33.3721 C.3     1  UNL1        0.0100
     25 C           4.9295   -2.0919   33.1055 C.2     1  UNL1        0.0534
     26 O           5.7248   -3.1030   32.3339 O.co2   1  UNL1       -0.5489
     27 O           3.7407   -2.5278   33.9094 O.co2   1  UNL1       -0.5489
@<TRIPOS>UNITY_ATOM_ATTR
26 1
charge -1
@<TRIPOS>BOND
     1     7     8    1
     2     8     9    1
     3     8    10    1
     4    10    11    1
     5    11    12    1
     6    12     1    1
     7     1     2   ar
     8     2     3   ar
     9     3     4   ar
    10     4    15    1
    11    15    16   ar
    12    16    17   ar
    13    17    18   ar
    14    18    22    1
    15    22    25    1
    16    25    26   ar
    17    25    27   ar
    18    22    23    1
    19    23    24    1
    20    18    19   ar
    21    19    20   ar
    22    20    21    1
    23     4     5   ar
    24     5     6   ar
    25    12    13    1
    26    13    14    1
    27    14     8    1
    28     6     1   ar
    29    20    15   ar
    30    24    22    1
@<TRIPOS>MOLECULE
*****
 27 30 0 0 0
SMALL
GASTEIGER

@<TRIPOS>ATOM
      1 C           2.3804   -0.2726   22.2826 C.ar    1  UNL1       -0.0225
      2 C           2.5604   -0.1523   23.7668 C.ar    1  UNL1       -0.0043
      3 C           1.7110    0.8041   24.5503 C.ar    1  UNL1       -0.0003
      4 C           0.6817    1.6403   23.8495 C.ar    1  UNL1        0.0021
      5 C           0.5016    1.5200   22.3652 C.ar    1  UNL1       -0.0003
      6 C           1.3510    0.5635   21.5818 C.ar    1  UNL1       -0.0043
      7 C           6.1871   -3.9451   20.0771 C.3     1  UNL1        0.0000
      8 C           4.9284   -3.1421   19.9323 C.3     1  UNL1        0.0000
      9 C           4.9710   -3.8045   18.5871 C.3     1  UNL1        0.0000
     10 C           3.6845   -2.5691   19.3203 C.3     1  UNL1        0.0003
     11 C           2.8352   -1.6126   20.1037 C.3     1  UNL1        0.0044
     12 C           3.2297   -1.2291   21.4991 C.3     1  UNL1        0.0223
     13 C           4.4735   -1.8020   22.1111 C.3     1  UNL1        0.0044
     14 C           5.3229   -2.7585   21.3277 C.3     1  UNL1        0.0003
     15 C          -0.1677    2.5968   24.6329 C.ar    1  UNL1        0.0275
     16 C          -0.3618    4.0013   24.1436 C.ar    1  UNL1        0.0019
     17 C          -1.2112    4.9578   24.9270 C.ar    1  UNL1       -0.0038
     18 C          -1.8664    4.5097   26.1998 C.ar    1  UNL1       -0.0157
     19 C          -1.6722    3.1051   26.6891 C.ar    1  UNL1        0.0257
     20 C          -0.8229    2.1487   25.9056 C.ar    1  UNL1        0.1398
     21 F          -0.6287    0.7440   26.3950 F       1  UNL1       -0.2042
     22 C          -2.7157    5.4662   26.9832 C.3     1  UNL1        0.0509
     23 C          -3.0911    6.5802   27.9148 C.3     1  UNL1        0.0100
     24 C          -1.6461    6.2522   27.6820 C.3     1  UNL1        0.0100
     25 C          -4.0803    5.0124   26.5566 C.2     1  UNL1        0.0534
     26 O          -5.0355    4.4538   27.5693 O.co2   1  UNL1       -0.5489
     27 O          -4.4896    5.1173   25.1174 O.co2   1  UNL1       -0.5489
@<TRIPOS>UNITY_ATOM_ATTR
26 1
charge -1
@<TRIPOS>BOND
     1     7     8    1
     2     8     9    1
     3     8    10    1
     4    10    11    1
     5    11    12    1
     6    12     1    1
     7     1     2   ar
     8     2     3   ar
     9     3     4   ar
    10     4    15    1
    11    15    16   ar
    12    16    17   ar
    13    17    18   ar
    14    18    22    1
    15    22    25    1
    16    25    26   ar
    17    25    27   ar
    18    22    23    1
    19    23    24    1
    20    18    19   ar
    21    19    20   ar
    22    20    21    1
    23     4     5   ar
    24     5     6   ar
    25    12    13    1
    26    13    14    1
    27    14     8    1
    28     6     1   ar
    29    20    15   ar
    30    24    22    1
@<TRIPOS>MOLECULE
*****
 27 30 0 0 0
SMALL
GASTEIGER

@<TRIPOS>ATOM
      1 C           3.2030   -0.8245   24.1189 C.ar    1  UNL1       -0.0225
      2 C           3.9013   -1.2291   25.3833 C.ar    1  UNL1       -0.0043
      3 C           3.6017   -0.5140   26.6674 C.ar    1  UNL1       -0.0003
      4 C           2.6039    0.6058   26.6871 C.ar    1  UNL1        0.0021
      5 C           1.9056    1.0104   25.4227 C.ar    1  UNL1       -0.0003
      6 C           2.2051    0.2952   24.1387 C.ar    1  UNL1       -0.0043
      7 C           4.8499   -4.1703   19.7675 C.3     1  UNL1        0.0000
      8 C           4.1017   -2.9699   20.2667 C.3     1  UNL1        0.0000
      9 C           3.8123   -2.8652   18.7986 C.3     1  UNL1        0.0000
     10 C           3.2529   -1.7332   20.2561 C.3     1  UNL1        0.0003
     11 C           2.9534   -1.0180   21.5402 C.3     1  UNL1        0.0044
     12 C           3.5025   -1.5396   22.8349 C.3     1  UNL1        0.0223
     13 C           4.3513   -2.7763   22.8455 C.3     1  UNL1        0.0044
     14 C           4.6508   -3.4914   21.5614 C.3     1  UNL1        0.0003
     15 C           2.3043    1.3209   27.9712 C.ar    1  UNL1        0.0275
     16 C           2.8483    2.6987   28.2068 C.ar    1  UNL1        0.0019
     17 C           2.5488    3.4139   29.4909 C.ar    1  UNL1       -0.0038
     18 C           1.7052    2.7511   30.5393 C.ar    1  UNL1       -0.0157
     19 C           1.1612    1.3733   30.3037 C.ar    1  UNL1        0.0257
     20 C           1.4608    0.6582   29.0196 C.ar    1  UNL1        0.1398
     21 F           0.9168   -0.7197   28.7839 F       1  UNL1       -0.2042
     22 C           1.4057    3.4663   31.8234 C.3     1  UNL1        0.0509
     23 C           0.7972    4.4462   32.7822 C.3     1  UNL1        0.0100
     24 C           0.4120    4.4772   31.3329 C.3     1  UNL1        0.0100
     25 C           2.2953    2.7037   32.7599 C.2     1  UNL1        0.0534
     26 O           1.7367    2.1400   34.0328 O.co2   1  UNL1       -0.5489
     27 O           3.7435    2.5049   32.4236 O.co2   1  UNL1       -0.5489
@<TRIPOS>UNITY_ATOM_ATTR
26 1
charge -1
@<TRIPOS>BOND
     1     7     8    1
     2     8     9    1
     3     8    10    1
     4    10    11    1
     5    11    12    1
     6    12     1    1
     7     1     2   ar
     8     2     3   ar
     9     3     4   ar
    10     4    15    1
    11    15    16   ar
    12    16    17   ar
    13    17    18   ar
    14    18    22    1
    15    22    25    1
    16    25    26   ar
    17    25    27   ar
    18    22    23    1
    19    23    24    1
    20    18    19   ar
    21    19    20   ar
    22    20    21    1
    23     4     5   ar
    24     5     6   ar
    25    12    13    1
    26    13    14    1
    27    14     8    1
    28     6     1   ar
    29    20    15   ar
    30    24    22    1
@<TRIPOS>MOLECULE
*****
 27 30 0 0 0
SMALL
GASTEIGER

@<TRIPOS>ATOM
      1 C           0.8989    1.5177   29.3726 C.ar    1  UNL1       -0.0225
      2 C          -0.0168    0.6161   28.5988 C.ar    1  UNL1       -0.0043
      3 C          -0.8869    1.1816   27.5157 C.ar    1  UNL1       -0.0003
      4 C          -0.8414    2.6486   27.2063 C.ar    1  UNL1        0.0021
      5 C           0.0742    3.5501   27.9801 C.ar    1  UNL1       -0.0003
      6 C           0.9444    2.9847   29.0632 C.ar    1  UNL1       -0.0043
      7 C           4.3317   -1.3982   32.9159 C.3     1  UNL1        0.0000
      8 C           3.5092   -0.1787   32.6219 C.3     1  UNL1        0.0000
      9 C           4.0200    0.1745   33.9874 C.3     1  UNL1        0.0000
     10 C           2.8642    1.1635   32.8021 C.3     1  UNL1        0.0003
     11 C           1.9941    1.7289   31.7190 C.3     1  UNL1        0.0044
     12 C           1.7690    0.9522   30.4557 C.3     1  UNL1        0.0223
     13 C           2.4140   -0.3899   30.2755 C.3     1  UNL1        0.0044
     14 C           3.2841   -0.9554   31.3586 C.3     1  UNL1        0.0003
     15 C          -1.7115    3.2140   26.1232 C.ar    1  UNL1        0.0275
     16 C          -3.0696    3.7557   26.4583 C.ar    1  UNL1        0.0019
     17 C          -3.9397    4.3211   25.3752 C.ar    1  UNL1       -0.0038
     18 C          -3.4518    4.3449   23.9570 C.ar    1  UNL1       -0.0157
     19 C          -2.0938    3.8033   23.6219 C.ar    1  UNL1        0.0257
     20 C          -1.2236    3.2378   24.7050 C.ar    1  UNL1        0.1398
     21 F           0.1345    2.6962   24.3699 F       1  UNL1       -0.2042
     22 C          -4.3219    4.9104   22.8739 C.3     1  UNL1        0.0509
     23 C          -4.8791    5.8832   21.8773 C.3     1  UNL1        0.0100
     24 C          -3.7230    6.2797   22.7468 C.3     1  UNL1        0.0100
     25 C          -5.2231    3.7374   22.6247 C.2     1  UNL1        0.0534
     26 O          -6.6486    3.7747   23.0902 O.co2   1  UNL1       -0.5489
     27 O          -4.6988    2.5274   21.9101 O.co2   1  UNL1       -0.5489
@<TRIPOS>UNITY_ATOM_ATTR
26 1
charge -1
@<TRIPOS>BOND
     1     7     8    1
     2     8     9    1
     3     8    10    1
     4    10    11    1
     5    11    12    1
     6    12     1    1
     7     1     2   ar
     8     2     3   ar
     9     3     4   ar
    10     4    15    1
    11    15    16   ar
    12    16    17   ar
    13    17    18   ar
    14    18    22    1
    15    22    25    1
    16    25    26   ar
    17    25    27   ar
    18    22    23    1
    19    23    24    1
    20    18    19   ar
    21    19    20   ar
    22    20    21    1
    23     4     5   ar
    24     5     6   ar
    25    12    13    1
    26    13    14    1
    27    14     8    1
    28     6     1   ar
    29    20    15   ar
    30    24    22    1
@<TRIPOS>MOLECULE
*****
 27 30 0 0 0
SMALL
GASTEIGER

@<TRIPOS>ATOM
      1 C          -3.5903    3.6563   23.9269 C.ar    1  UNL1       -0.0225
      2 C          -4.1437    3.7376   25.3187 C.ar    1  UNL1       -0.0043
      3 C          -3.2784    3.3836   26.4918 C.ar    1  UNL1       -0.0003
      4 C          -1.8598    2.9482   26.2730 C.ar    1  UNL1        0.0021
      5 C          -1.3064    2.8669   24.8812 C.ar    1  UNL1       -0.0003
      6 C          -2.1717    3.2209   23.7082 C.ar    1  UNL1       -0.0043
      7 C          -7.2889    5.6653   20.0377 C.3     1  UNL1        0.0000
      8 C          -6.1860    4.7183   20.4078 C.3     1  UNL1        0.0000
      9 C          -6.4089    4.3136   18.9807 C.3     1  UNL1        0.0000
     10 C          -5.1606    3.6308   20.2823 C.3     1  UNL1        0.0003
     11 C          -4.2954    3.2768   21.4554 C.3     1  UNL1        0.0044
     12 C          -4.4555    4.0103   22.7539 C.3     1  UNL1        0.0223
     13 C          -5.4810    5.0978   22.8794 C.3     1  UNL1        0.0044
     14 C          -6.3462    5.4518   21.7064 C.3     1  UNL1        0.0003
     15 C          -0.9945    2.5942   27.4461 C.ar    1  UNL1        0.0275
     16 C          -1.1202    1.2458   28.0908 C.ar    1  UNL1        0.0019
     17 C          -0.2550    0.8917   29.2639 C.ar    1  UNL1       -0.0038
     18 C           0.7360    1.8862   29.7921 C.ar    1  UNL1       -0.0157
     19 C           0.8616    3.2347   29.1473 C.ar    1  UNL1        0.0257
     20 C          -0.0036    3.5887   27.9743 C.ar    1  UNL1        0.1398
     21 F           0.1221    4.9372   27.3295 F       1  UNL1       -0.2042
     22 C           1.6012    1.5322   30.9652 C.3     1  UNL1        0.0509
     23 C           2.1750    1.5539   32.3509 C.3     1  UNL1        0.0100
     24 C           1.0625    2.4911   31.9851 C.3     1  UNL1        0.0100
     25 C           2.4405    0.4503   30.3527 C.2     1  UNL1        0.0534
     26 O           2.3790   -0.9458   30.8978 O.co2   1  UNL1       -0.5489
     27 O           3.3413    0.7645   29.1952 O.co2   1  UNL1       -0.5489
@<TRIPOS>UNITY_ATOM_ATTR
26 1
charge -1
@<TRIPOS>BOND
     1     7     8    1
     2     8     9    1
     3     8    10    1
     4    10    11    1
     5    11    12    1
     6    12     1    1
     7     1     2   ar
     8     2     3   ar
     9     3     4   ar
    10     4    15    1
    11    15    16   ar
    12    16    17   ar
    13    17    18   ar
    14    18    22    1
    15    22    25    1
    16    25    26   ar
    17    25    27   ar
    18    22    23    1
    19    23    24    1
    20    18    19   ar
    21    19    20   ar
    22    20    21    1
    23     4     5   ar
    24     5     6   ar
    25    12    13    1
    26    13    14    1
    27    14     8    1
    28     6     1   ar
    29    20    15   ar
    30    24    22    1
