@<TRIPOS>MOLECULE
*****
 27 29 0 0 0
SMALL
GASTEIGER

@<TRIPOS>ATOM
      1 C          -6.6325  -16.7420   23.6213 C.ar    1  UNL1        0.0182
      2 C          -6.6327  -15.8690   24.8411 C.ar    1  UNL1        0.0015
      3 C          -7.9182  -15.2797   25.3413 C.ar    1  UNL1        0.0001
      4 C          -9.2034  -15.5633   24.6218 C.ar    1  UNL1        0.0001
      5 C          -9.2032  -16.4363   23.4020 C.ar    1  UNL1        0.0030
      6 C          -7.9178  -17.0256   22.9018 C.ar    1  UNL1        0.0016
      7 C         -10.4885  -16.7199   22.6825 C.ar    1  UNL1        0.0343
      8 C         -10.7782  -16.0495   21.3723 C.ar    1  UNL1        0.0030
      9 C         -12.0635  -16.3332   20.6528 C.ar    1  UNL1        0.0002
     10 C         -13.0589  -17.2872   21.2434 C.ar    1  UNL1        0.0031
     11 C         -12.7692  -17.9575   22.5536 C.ar    1  UNL1        0.0372
     12 C         -11.4839  -17.6739   23.2731 C.ar    1  UNL1        0.1467
     13 O         -11.1942  -18.3443   24.5834 O.3     1  UNL1       -0.4045
     14 C         -10.2377  -19.4984   24.6400 C.3     1  UNL1        0.5753
     15 F          -9.2811  -20.6524   24.6966 F       1  UNL1       -0.1328
     16 F          -9.5229  -18.8496   25.7881 F       1  UNL1       -0.1328
     17 F         -10.9524  -20.1471   23.4918 F       1  UNL1       -0.1328
     18 C          -3.7552  -18.7474   21.9584 C.ar    1  UNL1        0.1638
     19 N          -5.2164  -18.5015   22.1916 N.ar    1  UNL1       -0.2337
     20 C          -5.3471  -17.3314   23.1210 C.ar    1  UNL1        0.0885
     21 C          -3.9666  -16.8540   23.4621 C.ar    1  UNL1        0.0561
     22 S          -2.9828  -17.7292   22.7437 S.2     1  UNL1       -0.0615
     23 N          -3.9750  -20.4014   19.9669 N.am    1  UNL1       -0.3236
     24 C          -3.1694  -19.8227   21.0922 C.2     1  UNL1        0.2667
     25 O          -1.7779  -20.3194   21.3511 O.2     1  UNL1       -0.2682
     26 H          -3.5904  -21.1072   19.3983 H       1  UNL1        0.1453
     27 H          -4.8883  -20.0754   19.7970 H       1  UNL1        0.1453
@<TRIPOS>BOND
     1    23    24   am
     2    24    25    2
     3    24    18    1
     4    18    19   ar
     5    19    20   ar
     6    20     1    1
     7     1     2   ar
     8     2     3   ar
     9     3     4   ar
    10     4     5   ar
    11     5     7    1
    12     7     8   ar
    13     8     9   ar
    14     9    10   ar
    15    10    11   ar
    16    11    12   ar
    17    12    13    1
    18    13    14    1
    19    14    15    1
    20    14    16    1
    21    14    17    1
    22     5     6   ar
    23    20    21   ar
    24    21    22   ar
    25    22    18   ar
    26     6     1   ar
    27    12     7   ar
    28    23    26    1
    29    23    27    1
@<TRIPOS>MOLECULE
*****
 27 29 0 0 0
SMALL
GASTEIGER

@<TRIPOS>ATOM
      1 C         -14.6671   -5.4736   19.5133 C.ar    1  UNL1        0.0182
      2 C         -14.9386   -4.4882   20.6111 C.ar    1  UNL1        0.0015
      3 C         -14.0261   -3.3140   20.8075 C.ar    1  UNL1        0.0001
      4 C         -12.8421   -3.1252   19.9061 C.ar    1  UNL1        0.0001
      5 C         -12.5706   -4.1106   18.8082 C.ar    1  UNL1        0.0030
      6 C         -13.4832   -5.2848   18.6118 C.ar    1  UNL1        0.0016
      7 C         -11.3867   -3.9218   17.9068 C.ar    1  UNL1        0.0343
      8 C         -11.3399   -2.7558   16.9644 C.ar    1  UNL1        0.0030
      9 C         -10.1559   -2.5670   16.0630 C.ar    1  UNL1        0.0002
     10 C          -9.0187   -3.5443   16.1039 C.ar    1  UNL1        0.0031
     11 C          -9.0655   -4.7103   17.0463 C.ar    1  UNL1        0.0372
     12 C         -10.2495   -4.8991   17.9478 C.ar    1  UNL1        0.1467
     13 O         -10.2962   -6.0652   18.8902 O.3     1  UNL1       -0.4045
     14 C         -10.0235   -7.4504   18.3835 C.3     1  UNL1        0.5753
     15 F          -9.7508   -8.8356   17.8768 F       1  UNL1       -0.1328
     16 F         -11.1464   -7.3113   17.3988 F       1  UNL1       -0.1328
     17 F          -8.9005   -7.5895   19.3682 F       1  UNL1       -0.1328
     18 C         -16.3947   -8.8822   18.8335 C.ar    1  UNL1        0.1638
     19 N         -15.1629   -8.0297   18.9085 N.ar    1  UNL1       -0.2337
     20 C         -15.5797   -6.6478   19.3168 C.ar    1  UNL1        0.0885
     21 C         -17.0691   -6.6463   19.4942 C.ar    1  UNL1        0.0561
     22 S         -17.5729   -8.0272   19.1955 S.2     1  UNL1       -0.0615
     23 N         -17.7494  -11.0673   18.4587 N.am    1  UNL1       -0.3236
     24 C         -16.4404  -10.3347   18.4618 C.2     1  UNL1        0.2667
     25 O         -15.1772  -11.0546   18.0931 O.2     1  UNL1       -0.2682
     26 H         -17.7794  -12.0206   18.2147 H       1  UNL1        0.1453
     27 H         -18.5785  -10.5947   18.7006 H       1  UNL1        0.1453
@<TRIPOS>BOND
     1    23    24   am
     2    24    25    2
     3    24    18    1
     4    18    19   ar
     5    19    20   ar
     6    20     1    1
     7     1     2   ar
     8     2     3   ar
     9     3     4   ar
    10     4     5   ar
    11     5     7    1
    12     7     8   ar
    13     8     9   ar
    14     9    10   ar
    15    10    11   ar
    16    11    12   ar
    17    12    13    1
    18    13    14    1
    19    14    15    1
    20    14    16    1
    21    14    17    1
    22     5     6   ar
    23    20    21   ar
    24    21    22   ar
    25    22    18   ar
    26     6     1   ar
    27    12     7   ar
    28    23    26    1
    29    23    27    1
@<TRIPOS>MOLECULE
*****
 27 29 0 0 0
SMALL
GASTEIGER

@<TRIPOS>ATOM
      1 C          -7.4675  -16.2715   23.6456 C.ar    1  UNL1        0.0182
      2 C          -7.2399  -15.6327   24.9835 C.ar    1  UNL1        0.0015
      3 C          -5.8570  -15.5754   25.5616 C.ar    1  UNL1        0.0001
      4 C          -4.7018  -16.1569   24.8018 C.ar    1  UNL1        0.0001
      5 C          -4.9294  -16.7957   23.4639 C.ar    1  UNL1        0.0030
      6 C          -6.3123  -16.8530   22.8858 C.ar    1  UNL1        0.0016
      7 C          -3.7742  -17.3772   22.7041 C.ar    1  UNL1        0.0343
      8 C          -2.5950  -16.5172   22.3581 C.ar    1  UNL1        0.0030
      9 C          -1.4397  -17.0987   21.5984 C.ar    1  UNL1        0.0002
     10 C          -1.4637  -18.5403   21.1846 C.ar    1  UNL1        0.0031
     11 C          -2.6428  -19.4003   21.5306 C.ar    1  UNL1        0.0372
     12 C          -3.7981  -18.8188   22.2904 C.ar    1  UNL1        0.1467
     13 O          -4.9773  -19.6790   22.6364 O.3     1  UNL1       -0.4045
     14 C          -5.9226  -20.1239   21.5602 C.3     1  UNL1        0.5753
     15 F          -6.8680  -20.5688   20.4838 F       1  UNL1       -0.1328
     16 F          -5.3609  -19.0838   20.6368 F       1  UNL1       -0.1328
     17 F          -6.4844  -21.1639   22.4835 F       1  UNL1       -0.1328
     18 C         -10.7102  -16.1942   21.5136 C.ar    1  UNL1        0.1638
     19 N          -9.2291  -16.0019   21.6532 N.ar    1  UNL1       -0.2337
     20 C          -8.8505  -16.3289   23.0674 C.ar    1  UNL1        0.0885
     21 C         -10.0975  -16.7232   23.8018 C.ar    1  UNL1        0.0561
     22 S         -11.2469  -16.6400   22.8415 S.2     1  UNL1       -0.0615
     23 N         -10.8636  -15.3925   19.0471 N.am    1  UNL1       -0.3236
     24 C         -11.5135  -15.9786   20.2654 C.2     1  UNL1        0.2667
     25 O         -12.9667  -16.3490   20.2354 O.2     1  UNL1       -0.2682
     26 H         -11.3908  -15.2510   18.2278 H       1  UNL1        0.1453
     27 H          -9.9098  -15.1494   19.0668 H       1  UNL1        0.1453
@<TRIPOS>BOND
     1    23    24   am
     2    24    25    2
     3    24    18    1
     4    18    19   ar
     5    19    20   ar
     6    20     1    1
     7     1     2   ar
     8     2     3   ar
     9     3     4   ar
    10     4     5   ar
    11     5     7    1
    12     7     8   ar
    13     8     9   ar
    14     9    10   ar
    15    10    11   ar
    16    11    12   ar
    17    12    13    1
    18    13    14    1
    19    14    15    1
    20    14    16    1
    21    14    17    1
    22     5     6   ar
    23    20    21   ar
    24    21    22   ar
    25    22    18   ar
    26     6     1   ar
    27    12     7   ar
    28    23    26    1
    29    23    27    1
@<TRIPOS>MOLECULE
*****
 27 29 0 0 0
SMALL
GASTEIGER

@<TRIPOS>ATOM
      1 C         -12.7043   -6.9971   18.0213 C.ar    1  UNL1        0.0182
      2 C         -11.4778   -7.7866   18.3708 C.ar    1  UNL1        0.0015
      3 C         -10.1559   -7.0930   18.5174 C.ar    1  UNL1        0.0001
      4 C         -10.0606   -5.6098   18.3145 C.ar    1  UNL1        0.0001
      5 C         -11.2872   -4.8203   17.9650 C.ar    1  UNL1        0.0030
      6 C         -12.6090   -5.5140   17.8184 C.ar    1  UNL1        0.0016
      7 C         -11.1919   -3.3372   17.7621 C.ar    1  UNL1        0.0343
      8 C         -10.4540   -2.7881   16.5773 C.ar    1  UNL1        0.0030
      9 C         -10.3587   -1.3050   16.3744 C.ar    1  UNL1        0.0002
     10 C         -11.0013   -0.3709   17.3564 C.ar    1  UNL1        0.0031
     11 C         -11.7392   -0.9199   18.5413 C.ar    1  UNL1        0.0372
     12 C         -11.8345   -2.4030   18.7441 C.ar    1  UNL1        0.1467
     13 O         -12.5725   -2.9520   19.9291 O.3     1  UNL1       -0.4045
     14 C         -14.0491   -2.7256   20.0638 C.3     1  UNL1        0.5753
     15 F         -15.5259   -2.4991   20.1986 F       1  UNL1       -0.1328
     16 F         -13.9192   -2.7671   21.5576 F       1  UNL1       -0.1328
     17 F         -14.1791   -2.6841   18.5701 F       1  UNL1       -0.1328
     18 C         -15.8677   -9.2399   18.1907 C.ar    1  UNL1        0.1638
     19 N         -14.4915   -8.8779   18.6648 N.ar    1  UNL1       -0.2337
     20 C         -14.0262   -7.6908   17.8746 C.ar    1  UNL1        0.0885
     21 C         -15.1150   -7.3191   16.9121 C.ar    1  UNL1        0.0561
     22 S         -16.2531   -8.2765   17.1074 S.2     1  UNL1       -0.0615
     23 N         -18.0427  -10.0809   19.3361 N.am    1  UNL1       -0.3236
     24 C         -16.7106  -10.3673   18.7088 C.2     1  UNL1        0.2667
     25 O         -16.2214  -11.7811   18.5995 O.2     1  UNL1       -0.2682
     26 H         -18.5960  -10.8209   19.6762 H       1  UNL1        0.1453
     27 H         -18.3638   -9.1530   19.4078 H       1  UNL1        0.1453
@<TRIPOS>BOND
     1    23    24   am
     2    24    25    2
     3    24    18    1
     4    18    19   ar
     5    19    20   ar
     6    20     1    1
     7     1     2   ar
     8     2     3   ar
     9     3     4   ar
    10     4     5   ar
    11     5     7    1
    12     7     8   ar
    13     8     9   ar
    14     9    10   ar
    15    10    11   ar
    16    11    12   ar
    17    12    13    1
    18    13    14    1
    19    14    15    1
    20    14    16    1
    21    14    17    1
    22     5     6   ar
    23    20    21   ar
    24    21    22   ar
    25    22    18   ar
    26     6     1   ar
    27    12     7   ar
    28    23    26    1
    29    23    27    1
@<TRIPOS>MOLECULE
*****
 27 29 0 0 0
SMALL
GASTEIGER

@<TRIPOS>ATOM
      1 C         -14.9076   -5.9912   19.1923 C.ar    1  UNL1        0.0182
      2 C         -13.4739   -6.4109   19.3284 C.ar    1  UNL1        0.0015
      3 C         -12.3950   -5.3735   19.4271 C.ar    1  UNL1        0.0001
      4 C         -12.7497   -3.9165   19.3897 C.ar    1  UNL1        0.0001
      5 C         -14.1833   -3.4969   19.2536 C.ar    1  UNL1        0.0030
      6 C         -15.2623   -4.5342   19.1549 C.ar    1  UNL1        0.0016
      7 C         -14.5380   -2.0399   19.2162 C.ar    1  UNL1        0.0343
      8 C         -15.6678   -1.5212   20.0555 C.ar    1  UNL1        0.0030
      9 C         -16.0225   -0.0643   20.0180 C.ar    1  UNL1        0.0002
     10 C         -15.2474    0.8741   19.1413 C.ar    1  UNL1        0.0031
     11 C         -14.1176    0.3554   18.3020 C.ar    1  UNL1        0.0372
     12 C         -13.7629   -1.1016   18.3394 C.ar    1  UNL1        0.1467
     13 O         -12.6330   -1.6202   17.5001 O.3     1  UNL1       -0.4045
     14 C         -11.3359   -0.8692   17.4417 C.3     1  UNL1        0.5753
     15 F         -10.0387   -0.1181   17.3833 F       1  UNL1       -0.1328
     16 F         -11.5611   -0.5936   15.9846 F       1  UNL1       -0.1328
     17 F         -11.1108   -1.1449   18.8988 F       1  UNL1       -0.1328
     18 C         -17.1305   -9.1478   18.7923 C.ar    1  UNL1        0.1638
     19 N         -15.7852   -8.4844   18.7938 N.ar    1  UNL1       -0.2337
     20 C         -15.9866   -7.0286   19.0936 C.ar    1  UNL1        0.0885
     21 C         -17.4564   -6.7922   19.2775 C.ar    1  UNL1        0.0561
     22 S         -18.1634   -8.1019   19.0913 S.2     1  UNL1       -0.0615
     23 N         -18.7233  -11.0367   17.9888 N.am    1  UNL1       -0.3236
     24 C         -17.3963  -10.6018   18.5367 C.2     1  UNL1        0.2667
     25 O         -16.3352  -11.6209   18.8291 O.2     1  UNL1       -0.2682
     26 H         -18.8977  -11.9909   17.8211 H       1  UNL1        0.1453
     27 H         -19.4197  -10.3678   17.7970 H       1  UNL1        0.1453
@<TRIPOS>BOND
     1    23    24   am
     2    24    25    2
     3    24    18    1
     4    18    19   ar
     5    19    20   ar
     6    20     1    1
     7     1     2   ar
     8     2     3   ar
     9     3     4   ar
    10     4     5   ar
    11     5     7    1
    12     7     8   ar
    13     8     9   ar
    14     9    10   ar
    15    10    11   ar
    16    11    12   ar
    17    12    13    1
    18    13    14    1
    19    14    15    1
    20    14    16    1
    21    14    17    1
    22     5     6   ar
    23    20    21   ar
    24    21    22   ar
    25    22    18   ar
    26     6     1   ar
    27    12     7   ar
    28    23    26    1
    29    23    27    1
@<TRIPOS>MOLECULE
*****
 27 29 0 0 0
SMALL
GASTEIGER

@<TRIPOS>ATOM
      1 C           5.2974   -2.6220   23.4614 C.ar    1  UNL1        0.0182
      2 C           4.3045   -1.9442   24.3585 C.ar    1  UNL1        0.0015
      3 C           3.4044   -0.8771   23.8099 C.ar    1  UNL1        0.0001
      4 C           3.4972   -0.4878   22.3642 C.ar    1  UNL1        0.0001
      5 C           4.4900   -1.1656   21.4672 C.ar    1  UNL1        0.0030
      6 C           5.3901   -2.2327   22.0158 C.ar    1  UNL1        0.0016
      7 C           4.5828   -0.7763   20.0216 C.ar    1  UNL1        0.0343
      8 C           5.2390    0.5155   19.6334 C.ar    1  UNL1        0.0030
      9 C           5.3318    0.9048   18.1878 C.ar    1  UNL1        0.0002
     10 C           4.7684    0.0024   17.1303 C.ar    1  UNL1        0.0031
     11 C           4.1122   -1.2893   17.5186 C.ar    1  UNL1        0.0372
     12 C           4.0194   -1.6787   18.9642 C.ar    1  UNL1        0.1467
     13 O           3.3631   -2.9705   19.3524 O.3     1  UNL1       -0.4045
     14 C           3.9908   -4.2766   18.9652 C.3     1  UNL1        0.5753
     15 F           4.6186   -5.5828   18.5780 F       1  UNL1       -0.1328
     16 F           5.3461   -3.6345   18.9964 F       1  UNL1       -0.1328
     17 F           2.6356   -4.9187   18.9340 F       1  UNL1       -0.1328
     18 C           7.6257   -5.6448   24.1740 C.ar    1  UNL1        0.1638
     19 N           6.7962   -4.8235   23.2320 N.ar    1  UNL1       -0.2337
     20 C           6.1975   -3.6892   24.0100 C.ar    1  UNL1        0.0885
     21 C           6.6570   -3.8096   25.4328 C.ar    1  UNL1        0.0561
     22 S           7.5397   -5.0182   25.5342 S.2     1  UNL1       -0.0615
     23 N           8.9827   -7.7373   24.9021 N.am    1  UNL1       -0.3236
     24 C           8.4044   -6.8764   23.8183 C.2     1  UNL1        0.2667
     25 O           8.6050   -7.2473   22.3787 O.2     1  UNL1       -0.2682
     26 H           9.4938   -8.5457   24.6686 H       1  UNL1        0.1453
     27 H           8.8510   -7.4939   25.8469 H       1  UNL1        0.1453
@<TRIPOS>BOND
     1    23    24   am
     2    24    25    2
     3    24    18    1
     4    18    19   ar
     5    19    20   ar
     6    20     1    1
     7     1     2   ar
     8     2     3   ar
     9     3     4   ar
    10     4     5   ar
    11     5     7    1
    12     7     8   ar
    13     8     9   ar
    14     9    10   ar
    15    10    11   ar
    16    11    12   ar
    17    12    13    1
    18    13    14    1
    19    14    15    1
    20    14    16    1
    21    14    17    1
    22     5     6   ar
    23    20    21   ar
    24    21    22   ar
    25    22    18   ar
    26     6     1   ar
    27    12     7   ar
    28    23    26    1
    29    23    27    1
@<TRIPOS>MOLECULE
*****
 27 29 0 0 0
SMALL
GASTEIGER

@<TRIPOS>ATOM
      1 C           3.5408    0.6197   33.6388 C.ar    1  UNL1        0.0182
      2 C           4.2506   -0.6709   33.9221 C.ar    1  UNL1        0.0015
      3 C           4.9239   -0.8817   35.2458 C.ar    1  UNL1        0.0001
      4 C           4.8873    0.1982   36.2862 C.ar    1  UNL1        0.0001
      5 C           4.1775    1.4889   36.0029 C.ar    1  UNL1        0.0030
      6 C           3.5042    1.6996   34.6792 C.ar    1  UNL1        0.0016
      7 C           4.1409    2.5688   37.0434 C.ar    1  UNL1        0.0343
      8 C           5.2566    3.5678   37.1270 C.ar    1  UNL1        0.0030
      9 C           5.2201    4.6477   38.1674 C.ar    1  UNL1        0.0002
     10 C           4.0677    4.7286   39.1242 C.ar    1  UNL1        0.0031
     11 C           2.9520    3.7296   39.0406 C.ar    1  UNL1        0.0372
     12 C           2.9886    2.6497   38.0002 C.ar    1  UNL1        0.1467
     13 O           1.8727    1.6506   37.9166 O.3     1  UNL1       -0.4045
     14 C           1.5535    0.7823   39.0973 C.3     1  UNL1        0.5753
     15 F           1.2342   -0.0860   40.2781 F       1  UNL1       -0.1328
     16 F           2.9990    0.3964   39.2044 F       1  UNL1       -0.1328
     17 F           0.1079    1.1682   38.9902 F       1  UNL1       -0.1328
     18 C           1.8367    0.4147   30.1574 C.ar    1  UNL1        0.1638
     19 N           2.4803   -0.2433   31.3419 N.ar    1  UNL1       -0.2337
     20 C           2.8675    0.8306   32.3150 C.ar    1  UNL1        0.0885
     21 C           2.4631    2.1522   31.7321 C.ar    1  UNL1        0.0561
     22 S           1.8261    1.8952   30.3986 S.2     1  UNL1       -0.0615
     23 N           2.2396   -0.8059   27.8996 N.am    1  UNL1       -0.3236
     24 C           1.2982   -0.2850   28.9448 C.2     1  UNL1        0.2667
     25 O          -0.1816   -0.4638   28.7774 O.2     1  UNL1       -0.2682
     26 H           1.8862   -1.2651   27.1037 H       1  UNL1        0.1453
     27 H           3.2109   -0.6885   28.0095 H       1  UNL1        0.1453
@<TRIPOS>BOND
     1    23    24   am
     2    24    25    2
     3    24    18    1
     4    18    19   ar
     5    19    20   ar
     6    20     1    1
     7     1     2   ar
     8     2     3   ar
     9     3     4   ar
    10     4     5   ar
    11     5     7    1
    12     7     8   ar
    13     8     9   ar
    14     9    10   ar
    15    10    11   ar
    16    11    12   ar
    17    12    13    1
    18    13    14    1
    19    14    15    1
    20    14    16    1
    21    14    17    1
    22     5     6   ar
    23    20    21   ar
    24    21    22   ar
    25    22    18   ar
    26     6     1   ar
    27    12     7   ar
    28    23    26    1
    29    23    27    1
@<TRIPOS>MOLECULE
*****
 27 29 0 0 0
SMALL
GASTEIGER

@<TRIPOS>ATOM
      1 C           1.1195    1.2854   20.3272 C.ar    1  UNL1        0.0182
      2 C           1.4984    1.4238   18.8825 C.ar    1  UNL1        0.0015
      3 C           2.5968    0.5772   18.3108 C.ar    1  UNL1        0.0001
      4 C           3.3162   -0.4077   19.1838 C.ar    1  UNL1        0.0001
      5 C           2.9374   -0.5461   20.6285 C.ar    1  UNL1        0.0030
      6 C           1.8390    0.3005   21.2002 C.ar    1  UNL1        0.0016
      7 C           3.6568   -1.5311   21.5016 C.ar    1  UNL1        0.0343
      8 C           4.0557   -1.1464   22.8954 C.ar    1  UNL1        0.0030
      9 C           4.7752   -2.1314   23.7685 C.ar    1  UNL1        0.0002
     10 C           5.0958   -3.5010   23.2477 C.ar    1  UNL1        0.0031
     11 C           4.6969   -3.8857   21.8538 C.ar    1  UNL1        0.0372
     12 C           3.9774   -2.9007   20.9808 C.ar    1  UNL1        0.1467
     13 O           3.5785   -3.2855   19.5869 O.3     1  UNL1       -0.4045
     14 C           4.1937   -4.4886   18.9358 C.3     1  UNL1        0.5753
     15 F           4.8089   -5.6918   18.2847 F       1  UNL1       -0.1328
     16 F           3.0852   -5.3454   19.4717 F       1  UNL1       -0.1328
     17 F           5.3021   -3.6318   18.3999 F       1  UNL1       -0.1328
     18 C          -2.1274    3.2119   21.2284 C.ar    1  UNL1        0.1638
     19 N          -1.3659    2.2691   20.3445 N.ar    1  UNL1       -0.2337
     20 C           0.0211    2.1321   20.8989 C.ar    1  UNL1        0.0885
     21 C           0.1169    2.9902   22.1254 C.ar    1  UNL1        0.0561
     22 S          -1.2109    3.6577   22.3291 S.2     1  UNL1       -0.0615
     23 N          -4.6611    2.6372   21.2188 N.am    1  UNL1       -0.3236
     24 C          -3.5546    3.6349   21.0439 C.2     1  UNL1        0.2667
     25 O          -3.8754    5.0554   20.6846 O.2     1  UNL1       -0.2682
     26 H          -5.5978    2.9148   21.0978 H       1  UNL1        0.1453
     27 H          -4.4505    1.7049   21.4547 H       1  UNL1        0.1453
@<TRIPOS>BOND
     1    23    24   am
     2    24    25    2
     3    24    18    1
     4    18    19   ar
     5    19    20   ar
     6    20     1    1
     7     1     2   ar
     8     2     3   ar
     9     3     4   ar
    10     4     5   ar
    11     5     7    1
    12     7     8   ar
    13     8     9   ar
    14     9    10   ar
    15    10    11   ar
    16    11    12   ar
    17    12    13    1
    18    13    14    1
    19    14    15    1
    20    14    16    1
    21    14    17    1
    22     5     6   ar
    23    20    21   ar
    24    21    22   ar
    25    22    18   ar
    26     6     1   ar
    27    12     7   ar
    28    23    26    1
    29    23    27    1
@<TRIPOS>MOLECULE
*****
 27 29 0 0 0
SMALL
GASTEIGER

@<TRIPOS>ATOM
      1 C           7.7682   -3.9656   21.9936 C.ar    1  UNL1        0.0182
      2 C           9.0450   -4.1410   21.2262 C.ar    1  UNL1        0.0015
      3 C           9.2366   -3.4336   19.9174 C.ar    1  UNL1        0.0001
      4 C           8.1515   -2.5508   19.3761 C.ar    1  UNL1        0.0001
      5 C           6.8747   -2.3753   20.1436 C.ar    1  UNL1        0.0030
      6 C           6.6831   -3.0827   21.4523 C.ar    1  UNL1        0.0016
      7 C           5.7896   -1.4924   19.6022 C.ar    1  UNL1        0.0343
      8 C           5.7288   -0.0479   20.0018 C.ar    1  UNL1        0.0030
      9 C           4.6437    0.8350   19.4605 C.ar    1  UNL1        0.0002
     10 C           3.6194    0.2734   18.5196 C.ar    1  UNL1        0.0031
     11 C           3.6801   -1.1711   18.1201 C.ar    1  UNL1        0.0372
     12 C           4.7653   -2.0540   18.6614 C.ar    1  UNL1        0.1467
     13 O           4.8260   -3.4986   18.2618 O.3     1  UNL1       -0.4045
     14 C           4.0931   -4.5308   19.0663 C.3     1  UNL1        0.5753
     15 F           3.3602   -5.5630   19.8709 F       1  UNL1       -0.1328
     16 F           4.8454   -5.6176   18.3573 F       1  UNL1       -0.1328
     17 F           3.3408   -3.4439   19.7753 F       1  UNL1       -0.1328
     18 C           7.6151   -6.3718   25.0354 C.ar    1  UNL1        0.1638
     19 N           8.0035   -6.0761   23.6171 N.ar    1  UNL1       -0.2337
     20 C           7.5765   -4.6730   23.3024 C.ar    1  UNL1        0.0885
     21 C           6.9241   -4.1015   24.5262 C.ar    1  UNL1        0.0561
     22 S           6.9479   -5.1514   25.5973 S.2     1  UNL1       -0.0615
     23 N           6.7192   -8.3403   26.4750 N.am    1  UNL1       -0.3236
     24 C           7.8521   -7.6614   25.7639 C.2     1  UNL1        0.2667
     25 O           9.2221   -8.2721   25.7813 O.2     1  UNL1       -0.2682
     26 H           6.8748   -9.1867   26.9531 H       1  UNL1        0.1453
     27 H           5.8201   -7.9395   26.4636 H       1  UNL1        0.1453
@<TRIPOS>BOND
     1    23    24   am
     2    24    25    2
     3    24    18    1
     4    18    19   ar
     5    19    20   ar
     6    20     1    1
     7     1     2   ar
     8     2     3   ar
     9     3     4   ar
    10     4     5   ar
    11     5     7    1
    12     7     8   ar
    13     8     9   ar
    14     9    10   ar
    15    10    11   ar
    16    11    12   ar
    17    12    13    1
    18    13    14    1
    19    14    15    1
    20    14    16    1
    21    14    17    1
    22     5     6   ar
    23    20    21   ar
    24    21    22   ar
    25    22    18   ar
    26     6     1   ar
    27    12     7   ar
    28    23    26    1
    29    23    27    1
