@<TRIPOS>MOLECULE
*****
 28 32 0 0 0
SMALL
GASTEIGER

@<TRIPOS>ATOM
      1 C         -10.6317  -18.5691   20.0215 C.3     1  UNL1        0.0666
      2 S         -10.7929  -17.9848   21.3936 S.3     1  UNL1       -0.0756
      3 C          -8.1336  -16.1416   23.5373 C.ar    1  UNL1        0.2029
      4 N          -7.9454  -15.4756   22.2065 N.ar    1  UNL1       -0.1250
      5 N          -8.9187  -16.0850   21.2415 N.ar    1  UNL1       -0.1220
      6 C          -9.7084  -17.1276   21.9759 C.ar    1  UNL1        0.1933
      7 N          -9.2231  -17.1625   23.3948 N.ar    1  UNL1       -0.2860
      8 C          -9.7373  -18.0608   24.4806 C.3     1  UNL1        0.1341
      9 C          -4.8884  -15.9094   23.7917 C.3     1  UNL1        0.0556
     10 C          -5.8752  -15.7328   24.9076 C.ar    1  UNL1        0.1001
     11 N          -5.5435  -15.4185   26.3363 N.ar    1  UNL1       -0.2085
     12 C          -6.8302  -15.3310   27.1024 C.ar    1  UNL1        0.2849
     13 O          -7.9569  -15.5912   26.1472 O.2     1  UNL1       -0.4283
     14 C          -7.3667  -15.8395   24.7907 C.ar    1  UNL1        0.1964
     15 C          -9.6774  -19.7043   19.7972 C.3     1  UNL1        0.0294
     16 C          -8.2846  -19.4288   19.3133 C.3     1  UNL1        0.0730
     17 N          -7.1410  -19.4220   20.2840 N.3     1  UNL1       -0.2724
     18 C          -7.2099  -19.8131   21.7305 C.3     1  UNL1        0.0724
     19 C          -5.8392  -19.6558   22.3191 C.3     1  UNL1        0.0214
     20 C          -4.3908  -19.4057   22.6183 C.3     1  UNL1        0.0072
     21 C          -4.9231  -19.1674   21.2364 C.3     1  UNL1        0.0350
     22 C          -5.7277  -19.0229   19.9787 C.3     1  UNL1        0.0761
     23 C          -3.6211  -18.7185   20.6421 C.ar    1  UNL1       -0.0215
     24 C          -3.4989  -18.5304   19.1590 C.ar    1  UNL1       -0.0042
     25 C          -2.1968  -18.0815   18.5646 C.ar    1  UNL1       -0.0003
     26 C          -1.0170  -17.8207   19.4535 C.ar    1  UNL1       -0.0000
     27 C          -1.1393  -18.0088   20.9367 C.ar    1  UNL1       -0.0003
     28 C          -2.4413  -18.4577   21.5309 C.ar    1  UNL1       -0.0042
@<TRIPOS>BOND
     1     9    10    1
     2    10    11   ar
     3    11    12   ar
     4    12    13   ar
     5    13    14   ar
     6    14     3    1
     7     3     4   ar
     8     4     5   ar
     9     5     6   ar
    10     6     2    1
    11     2     1    1
    12     1    15    1
    13    15    16    1
    14    16    17    1
    15    17    18    1
    16    18    19    1
    17    19    20    1
    18    20    21    1
    19    21    23    1
    20    23    24   ar
    21    24    25   ar
    22    25    26   ar
    23    26    27   ar
    24    27    28   ar
    25    21    22    1
    26     6     7   ar
    27     7     8    1
    28    14    10   ar
    29     7     3   ar
    30    22    17    1
    31    21    19    1
    32    28    23   ar
@<TRIPOS>MOLECULE
*****
 28 32 0 0 0
SMALL
GASTEIGER

@<TRIPOS>ATOM
      1 C          -5.0026  -15.5320   23.8756 C.3     1  UNL1        0.0666
      2 S          -6.4224  -15.4590   24.3542 S.3     1  UNL1       -0.0756
      3 C          -9.6970  -16.1550   22.3902 C.ar    1  UNL1        0.2029
      4 N          -8.8806  -15.4461   21.3505 N.ar    1  UNL1       -0.1250
      5 N          -7.5546  -15.0991   21.9597 N.ar    1  UNL1       -0.1220
      6 C          -7.5514  -15.5935   23.3758 C.ar    1  UNL1        0.1933
      7 N          -8.8756  -16.2461   23.6419 N.ar    1  UNL1       -0.2860
      8 C          -9.3031  -16.8788   24.9330 C.3     1  UNL1        0.1341
      9 C         -11.4748  -15.9794   19.6592 C.3     1  UNL1        0.0556
     10 C         -11.9075  -16.5998   20.9545 C.ar    1  UNL1        0.1001
     11 N         -13.2333  -17.2485   21.2219 N.ar    1  UNL1       -0.2085
     12 C         -13.2355  -17.7301   22.6425 C.ar    1  UNL1        0.2849
     13 O         -11.9112  -17.3791   23.2530 O.2     1  UNL1       -0.4283
     14 C         -11.0904  -16.6806   22.2098 C.ar    1  UNL1        0.1964
     15 C          -4.2285  -16.8090   24.0163 C.3     1  UNL1        0.0294
     16 C          -3.5380  -17.4027   22.8243 C.3     1  UNL1        0.0730
     17 N          -4.2228  -18.4606   22.0107 N.3     1  UNL1       -0.2724
     18 C          -3.5471  -19.4834   21.1462 C.3     1  UNL1        0.0724
     19 C          -4.6102  -20.3363   20.5200 C.3     1  UNL1        0.0214
     20 C          -5.8696  -21.0047   20.0541 C.3     1  UNL1        0.0072
     21 C          -5.9430  -19.8408   20.9974 C.3     1  UNL1        0.0350
     22 C          -5.7036  -18.6815   21.9188 C.3     1  UNL1        0.0761
     23 C          -7.4391  -19.8183   21.1027 C.ar    1  UNL1       -0.0215
     24 C          -8.2761  -19.6843   19.8652 C.ar    1  UNL1       -0.0042
     25 C          -9.7723  -19.6619   19.9704 C.ar    1  UNL1       -0.0003
     26 C         -10.4315  -19.7735   21.3132 C.ar    1  UNL1       -0.0000
     27 C          -9.5944  -19.9075   22.5508 C.ar    1  UNL1       -0.0003
     28 C          -8.0983  -19.9300   22.4455 C.ar    1  UNL1       -0.0042
@<TRIPOS>BOND
     1     9    10    1
     2    10    11   ar
     3    11    12   ar
     4    12    13   ar
     5    13    14   ar
     6    14     3    1
     7     3     4   ar
     8     4     5   ar
     9     5     6   ar
    10     6     2    1
    11     2     1    1
    12     1    15    1
    13    15    16    1
    14    16    17    1
    15    17    18    1
    16    18    19    1
    17    19    20    1
    18    20    21    1
    19    21    23    1
    20    23    24   ar
    21    24    25   ar
    22    25    26   ar
    23    26    27   ar
    24    27    28   ar
    25    21    22    1
    26     6     7   ar
    27     7     8    1
    28    14    10   ar
    29     7     3   ar
    30    22    17    1
    31    21    19    1
    32    28    23   ar
@<TRIPOS>MOLECULE
*****
 28 32 0 0 0
SMALL
GASTEIGER

@<TRIPOS>ATOM
      1 C          -5.4228  -16.1260   25.1412 C.3     1  UNL1        0.0666
      2 S          -6.7295  -15.4340   25.3944 S.3     1  UNL1       -0.0756
      3 C          -9.8031  -16.4374   23.2471 C.ar    1  UNL1        0.2029
      4 N         -10.0764  -17.1916   24.5146 N.ar    1  UNL1       -0.1250
      5 N          -8.9583  -16.9076   25.4732 N.ar    1  UNL1       -0.1220
      6 C          -7.9939  -15.9778   24.7982 C.ar    1  UNL1        0.1933
      7 N          -8.5162  -15.6872   23.4224 N.ar    1  UNL1       -0.2860
      8 C          -7.8655  -14.8018   22.4012 C.3     1  UNL1        0.1341
      9 C         -12.9506  -17.2887   23.1120 C.3     1  UNL1        0.0556
     10 C         -12.1122  -16.8252   21.9577 C.ar    1  UNL1        0.1001
     11 N         -12.5735  -16.6718   20.5386 N.ar    1  UNL1       -0.2085
     12 C         -11.4117  -16.1856   19.7237 C.ar    1  UNL1        0.2849
     13 O         -10.2327  -16.0386   20.6391 O.2     1  UNL1       -0.4283
     14 C         -10.6656  -16.4340   22.0198 C.ar    1  UNL1        0.1964
     15 C          -4.8159  -16.1038   23.7696 C.3     1  UNL1        0.0294
     16 C          -4.0072  -17.2719   23.2884 C.3     1  UNL1        0.0730
     17 N          -4.6250  -18.2844   22.3702 N.3     1  UNL1       -0.2724
     18 C          -3.8867  -19.1762   21.4165 C.3     1  UNL1        0.0724
     19 C          -4.8949  -20.0260   20.7014 C.3     1  UNL1        0.0214
     20 C          -6.1106  -20.7196   20.1621 C.3     1  UNL1        0.0072
     21 C          -6.2564  -19.6594   21.2131 C.3     1  UNL1        0.0350
     22 C          -6.0896  -18.5831   22.2445 C.3     1  UNL1        0.0761
     23 C          -7.7515  -19.7363   21.3072 C.ar    1  UNL1       -0.0215
     24 C          -8.4065  -20.0161   22.6273 C.ar    1  UNL1       -0.0042
     25 C          -9.9016  -20.0931   22.7214 C.ar    1  UNL1       -0.0003
     26 C         -10.7417  -19.8902   21.4953 C.ar    1  UNL1       -0.0000
     27 C         -10.0866  -19.6104   20.1752 C.ar    1  UNL1       -0.0003
     28 C          -8.5915  -19.5334   20.0811 C.ar    1  UNL1       -0.0042
@<TRIPOS>BOND
     1     9    10    1
     2    10    11   ar
     3    11    12   ar
     4    12    13   ar
     5    13    14   ar
     6    14     3    1
     7     3     4   ar
     8     4     5   ar
     9     5     6   ar
    10     6     2    1
    11     2     1    1
    12     1    15    1
    13    15    16    1
    14    16    17    1
    15    17    18    1
    16    18    19    1
    17    19    20    1
    18    20    21    1
    19    21    23    1
    20    23    24   ar
    21    24    25   ar
    22    25    26   ar
    23    26    27   ar
    24    27    28   ar
    25    21    22    1
    26     6     7   ar
    27     7     8    1
    28    14    10   ar
    29     7     3   ar
    30    22    17    1
    31    21    19    1
    32    28    23   ar
@<TRIPOS>MOLECULE
*****
 28 32 0 0 0
SMALL
GASTEIGER

@<TRIPOS>ATOM
      1 C         -12.0454  -18.8013   20.5884 C.3     1  UNL1        0.0666
      2 S         -10.9605  -19.7000   21.1039 S.3     1  UNL1       -0.0756
      3 C          -7.1346  -19.0532   21.0107 C.ar    1  UNL1        0.2029
      4 N          -7.4998  -18.8394   19.5717 N.ar    1  UNL1       -0.1250
      5 N          -8.9774  -19.0557   19.4314 N.ar    1  UNL1       -0.1220
      6 C          -9.5255  -19.4032   20.7838 C.ar    1  UNL1        0.1933
      7 N          -8.3865  -19.4016   21.7598 N.ar    1  UNL1       -0.2860
      8 C          -8.4827  -19.6967   23.2274 C.3     1  UNL1        0.1341
      9 C          -4.5009  -20.7338   20.0678 C.3     1  UNL1        0.0556
     10 C          -4.5484  -19.7111   21.1642 C.ar    1  UNL1        0.1001
     11 N          -3.3935  -19.2815   22.0197 N.ar    1  UNL1       -0.2085
     12 C          -3.8904  -18.2435   22.9818 C.ar    1  UNL1        0.2849
     13 O          -5.3522  -18.0317   22.7209 O.2     1  UNL1       -0.4283
     14 C          -5.7589  -18.9387   21.5976 C.ar    1  UNL1        0.1964
     15 C         -12.6339  -17.7485   21.4801 C.3     1  UNL1        0.0294
     16 C         -11.9626  -17.4023   22.7761 C.3     1  UNL1        0.0730
     17 N         -10.6173  -16.7390   22.7702 N.3     1  UNL1       -0.2724
     18 C          -9.9290  -16.1518   21.5737 C.3     1  UNL1        0.0724
     19 C          -8.6103  -15.5963   22.0237 C.3     1  UNL1        0.0214
     20 C          -7.3819  -15.1439   22.7559 C.3     1  UNL1        0.0072
     21 C          -8.4836  -15.8403   23.4983 C.3     1  UNL1        0.0350
     22 C          -9.7239  -16.5465   23.9596 C.3     1  UNL1        0.0761
     23 C          -7.8205  -15.7933   24.8430 C.ar    1  UNL1       -0.0215
     24 C          -6.4061  -15.3093   24.9653 C.ar    1  UNL1       -0.0042
     25 C          -5.7430  -15.2624   26.3100 C.ar    1  UNL1       -0.0003
     26 C          -6.4944  -15.6995   27.5324 C.ar    1  UNL1       -0.0000
     27 C          -7.9090  -16.1835   27.4101 C.ar    1  UNL1       -0.0003
     28 C          -8.5720  -16.2304   26.0654 C.ar    1  UNL1       -0.0042
@<TRIPOS>BOND
     1     9    10    1
     2    10    11   ar
     3    11    12   ar
     4    12    13   ar
     5    13    14   ar
     6    14     3    1
     7     3     4   ar
     8     4     5   ar
     9     5     6   ar
    10     6     2    1
    11     2     1    1
    12     1    15    1
    13    15    16    1
    14    16    17    1
    15    17    18    1
    16    18    19    1
    17    19    20    1
    18    20    21    1
    19    21    23    1
    20    23    24   ar
    21    24    25   ar
    22    25    26   ar
    23    26    27   ar
    24    27    28   ar
    25    21    22    1
    26     6     7   ar
    27     7     8    1
    28    14    10   ar
    29     7     3   ar
    30    22    17    1
    31    21    19    1
    32    28    23   ar
@<TRIPOS>MOLECULE
*****
 28 32 0 0 0
SMALL
GASTEIGER

@<TRIPOS>ATOM
      1 C          -3.1947  -19.4133   19.7761 C.3     1  UNL1        0.0666
      2 S          -2.3473  -18.6760   20.7704 S.3     1  UNL1       -0.0756
      3 C          -4.2386  -16.2993   23.1869 C.ar    1  UNL1        0.2029
      4 N          -3.4351  -15.3184   22.3855 N.ar    1  UNL1       -0.1250
      5 N          -2.6289  -16.0893   21.3827 N.ar    1  UNL1       -0.1220
      6 C          -2.9340  -17.5466   21.5644 C.ar    1  UNL1        0.1933
      7 N          -3.9289  -17.6764   22.6794 N.ar    1  UNL1       -0.2860
      8 C          -4.5117  -18.9583   23.1962 C.3     1  UNL1        0.1341
      9 C          -7.4971  -16.3438   23.0134 C.3     1  UNL1        0.0556
     10 C          -6.6832  -15.9827   24.2206 C.ar    1  UNL1        0.1001
     11 N          -7.2243  -15.5786   25.5600 N.ar    1  UNL1       -0.2085
     12 C          -6.0609  -15.3083   26.4675 C.ar    1  UNL1        0.2849
     13 O          -4.8010  -15.5454   25.6890 O.2     1  UNL1       -0.4283
     14 C          -5.1855  -15.9622   24.3004 C.ar    1  UNL1        0.1964
     15 C          -4.6661  -19.1345   19.6919 C.3     1  UNL1        0.0294
     16 C          -5.6504  -20.1327   20.2256 C.3     1  UNL1        0.0730
     17 N          -7.1203  -19.8381   20.1736 N.3     1  UNL1       -0.2724
     18 C          -7.9405  -19.6609   18.9303 C.3     1  UNL1        0.0724
     19 C          -9.3552  -19.3824   19.3441 C.3     1  UNL1        0.0214
     20 C         -10.6551  -19.1298   20.0486 C.3     1  UNL1        0.0072
     21 C          -9.4092  -19.3874   20.8431 C.3     1  UNL1        0.0350
     22 C          -8.0279  -19.6691   21.3557 C.3     1  UNL1        0.0761
     23 C         -10.0564  -19.2722   22.1914 C.ar    1  UNL1       -0.0215
     24 C         -11.2894  -18.4352   22.3624 C.ar    1  UNL1       -0.0042
     25 C         -11.9366  -18.3200   23.7107 C.ar    1  UNL1       -0.0003
     26 C         -11.3509  -19.0418   24.8879 C.ar    1  UNL1       -0.0000
     27 C         -10.1179  -19.8788   24.7169 C.ar    1  UNL1       -0.0003
     28 C          -9.4707  -19.9940   23.3686 C.ar    1  UNL1       -0.0042
@<TRIPOS>BOND
     1     9    10    1
     2    10    11   ar
     3    11    12   ar
     4    12    13   ar
     5    13    14   ar
     6    14     3    1
     7     3     4   ar
     8     4     5   ar
     9     5     6   ar
    10     6     2    1
    11     2     1    1
    12     1    15    1
    13    15    16    1
    14    16    17    1
    15    17    18    1
    16    18    19    1
    17    19    20    1
    18    20    21    1
    19    21    23    1
    20    23    24   ar
    21    24    25   ar
    22    25    26   ar
    23    26    27   ar
    24    27    28   ar
    25    21    22    1
    26     6     7   ar
    27     7     8    1
    28    14    10   ar
    29     7     3   ar
    30    22    17    1
    31    21    19    1
    32    28    23   ar
@<TRIPOS>MOLECULE
*****
 28 32 0 0 0
SMALL
GASTEIGER

@<TRIPOS>ATOM
      1 C         -10.7275  -18.7265   20.9538 C.3     1  UNL1        0.0666
      2 S         -10.8638  -17.3019   21.4032 S.3     1  UNL1       -0.0756
      3 C          -7.8665  -15.8617   23.4049 C.ar    1  UNL1        0.2029
      4 N          -7.8136  -15.0246   22.1613 N.ar    1  UNL1       -0.1250
      5 N          -8.9299  -15.4621   21.2602 N.ar    1  UNL1       -0.1220
      6 C          -9.6728  -16.5697   21.9467 C.ar    1  UNL1        0.1933
      7 N          -9.0155  -16.8166   23.2722 N.ar    1  UNL1       -0.2860
      8 C          -9.4339  -17.8391   24.2870 C.3     1  UNL1        0.1341
      9 C          -8.7253  -15.2612   26.4955 C.3     1  UNL1        0.0556
     10 C          -7.3287  -15.4854   25.9961 C.ar    1  UNL1        0.1001
     11 N          -6.0817  -15.4730   26.8297 N.ar    1  UNL1       -0.2085
     12 C          -4.9163  -15.7413   25.9243 C.ar    1  UNL1        0.2849
     13 O          -5.4430  -15.9196   24.5312 O.2     1  UNL1       -0.4283
     14 C          -6.9340  -15.7614   24.5756 C.ar    1  UNL1        0.1964
     15 C          -9.4047  -19.2344   20.4617 C.3     1  UNL1        0.0294
     16 C          -8.3630  -19.6860   21.4419 C.3     1  UNL1        0.0730
     17 N          -6.9650  -19.9651   20.9754 N.3     1  UNL1       -0.2724
     18 C          -6.5044  -21.2003   20.2598 C.3     1  UNL1        0.0724
     19 C          -5.0368  -21.0566   19.9846 C.3     1  UNL1        0.0214
     20 C          -3.6030  -20.6362   19.8533 C.3     1  UNL1        0.0072
     21 C          -4.5905  -19.7325   20.5302 C.3     1  UNL1        0.0350
     22 C          -5.7821  -19.0580   21.1425 C.3     1  UNL1        0.0761
     23 C          -3.6141  -18.6364   20.8388 C.ar    1  UNL1       -0.0215
     24 C          -3.5805  -18.0257   22.2084 C.ar    1  UNL1       -0.0042
     25 C          -2.6040  -16.9295   22.5171 C.ar    1  UNL1       -0.0003
     26 C          -1.6612  -16.4443   21.4561 C.ar    1  UNL1       -0.0000
     27 C          -1.6949  -17.0551   20.0864 C.ar    1  UNL1       -0.0003
     28 C          -2.6713  -18.1512   19.7778 C.ar    1  UNL1       -0.0042
@<TRIPOS>BOND
     1     9    10    1
     2    10    11   ar
     3    11    12   ar
     4    12    13   ar
     5    13    14   ar
     6    14     3    1
     7     3     4   ar
     8     4     5   ar
     9     5     6   ar
    10     6     2    1
    11     2     1    1
    12     1    15    1
    13    15    16    1
    14    16    17    1
    15    17    18    1
    16    18    19    1
    17    19    20    1
    18    20    21    1
    19    21    23    1
    20    23    24   ar
    21    24    25   ar
    22    25    26   ar
    23    26    27   ar
    24    27    28   ar
    25    21    22    1
    26     6     7   ar
    27     7     8    1
    28    14    10   ar
    29     7     3   ar
    30    22    17    1
    31    21    19    1
    32    28    23   ar
@<TRIPOS>MOLECULE
*****
 28 32 0 0 0
SMALL
GASTEIGER

@<TRIPOS>ATOM
      1 C          -4.6334  -15.1196   23.8537 C.3     1  UNL1        0.0666
      2 S          -5.9782  -15.1630   24.5169 S.3     1  UNL1       -0.0756
      3 C          -9.3897  -16.3931   23.1337 C.ar    1  UNL1        0.2029
      4 N          -8.7328  -15.8926   21.8816 N.ar    1  UNL1       -0.1250
      5 N          -7.3749  -15.3709   22.2473 N.ar    1  UNL1       -0.1220
      6 C          -7.1926  -15.5490   23.7255 C.ar    1  UNL1        0.1933
      7 N          -8.4378  -16.1808   24.2733 N.ar    1  UNL1       -0.2860
      8 C          -8.6873  -16.5375   25.7088 C.3     1  UNL1        0.1341
      9 C         -10.0712  -19.4615   24.0116 C.3     1  UNL1        0.0556
     10 C         -11.0716  -18.4098   23.6329 C.ar    1  UNL1        0.1001
     11 N         -12.5608  -18.5841   23.5913 N.ar    1  UNL1       -0.2085
     12 C         -13.1680  -17.2814   23.1620 C.ar    1  UNL1        0.2849
     13 O         -12.0541  -16.3021   22.9384 O.2     1  UNL1       -0.4283
     14 C         -10.7584  -16.9996   23.2294 C.ar    1  UNL1        0.1964
     15 C          -4.0312  -16.3752   23.2962 C.3     1  UNL1        0.0294
     16 C          -4.6934  -17.6983   23.5428 C.3     1  UNL1        0.0730
     17 N          -4.9209  -18.6471   22.4035 N.3     1  UNL1       -0.2724
     18 C          -3.8953  -19.5580   21.7966 C.3     1  UNL1        0.0724
     19 C          -4.5544  -20.3255   20.6891 C.3     1  UNL1        0.0214
     20 C          -5.4679  -20.9289   19.6637 C.3     1  UNL1        0.0072
     21 C          -5.9874  -19.8890   20.6116 C.3     1  UNL1        0.0350
     22 C          -6.2139  -18.8517   21.6712 C.3     1  UNL1        0.0761
     23 C          -7.3890  -19.8761   20.0774 C.ar    1  UNL1       -0.0215
     24 C          -8.4110  -18.9553   20.6754 C.ar    1  UNL1       -0.0042
     25 C          -9.8127  -18.9424   20.1413 C.ar    1  UNL1       -0.0003
     26 C         -10.1922  -19.8503   19.0091 C.ar    1  UNL1       -0.0000
     27 C          -9.1701  -20.7710   18.4111 C.ar    1  UNL1       -0.0003
     28 C          -7.7685  -20.7839   18.9452 C.ar    1  UNL1       -0.0042
@<TRIPOS>BOND
     1     9    10    1
     2    10    11   ar
     3    11    12   ar
     4    12    13   ar
     5    13    14   ar
     6    14     3    1
     7     3     4   ar
     8     4     5   ar
     9     5     6   ar
    10     6     2    1
    11     2     1    1
    12     1    15    1
    13    15    16    1
    14    16    17    1
    15    17    18    1
    16    18    19    1
    17    19    20    1
    18    20    21    1
    19    21    23    1
    20    23    24   ar
    21    24    25   ar
    22    25    26   ar
    23    26    27   ar
    24    27    28   ar
    25    21    22    1
    26     6     7   ar
    27     7     8    1
    28    14    10   ar
    29     7     3   ar
    30    22    17    1
    31    21    19    1
    32    28    23   ar
@<TRIPOS>MOLECULE
*****
 28 32 0 0 0
SMALL
GASTEIGER

@<TRIPOS>ATOM
      1 C         -10.5897   -7.2653   18.7893 C.3     1  UNL1        0.0666
      2 S          -9.9694   -5.9134   18.9836 S.3     1  UNL1       -0.0756
      3 C         -12.5466   -3.0422   18.5598 C.ar    1  UNL1        0.2029
      4 N         -11.3782   -2.4985   17.7923 N.ar    1  UNL1       -0.1250
      5 N         -10.2706   -3.5079   17.8576 N.ar    1  UNL1       -0.1220
      6 C         -10.7544   -4.6754   18.6655 C.ar    1  UNL1        0.1933
      7 N         -12.1611   -4.3875   19.0995 N.ar    1  UNL1       -0.2860
      8 C         -13.0297   -5.2872   19.9279 C.3     1  UNL1        0.1341
      9 C         -14.5832   -2.0974   16.1915 C.3     1  UNL1        0.0556
     10 C         -14.8046   -1.9259   17.6651 C.ar    1  UNL1        0.1001
     11 N         -16.0009   -1.2900   18.3088 N.ar    1  UNL1       -0.2085
     12 C         -15.8042   -1.3313   19.7953 C.ar    1  UNL1        0.2849
     13 O         -14.4863   -1.9926   20.0702 O.2     1  UNL1       -0.4283
     14 C         -13.8685   -2.3602   18.7537 C.ar    1  UNL1        0.1964
     15 C         -10.3481   -8.0257   17.5191 C.3     1  UNL1        0.0294
     16 C         -11.3392   -7.9443   16.3962 C.3     1  UNL1        0.0730
     17 N         -12.6841   -7.3212   16.6265 N.3     1  UNL1       -0.2724
     18 C         -13.1289   -5.9762   16.1335 C.3     1  UNL1        0.0724
     19 C         -14.5400   -5.7575   16.5926 C.3     1  UNL1        0.0214
     20 C         -15.9184   -5.8229   17.1805 C.3     1  UNL1        0.0072
     21 C         -14.9674   -6.9674   17.3695 C.3     1  UNL1        0.0350
     22 C         -13.8204   -7.9338   17.3904 C.3     1  UNL1        0.0761
     23 C         -15.9049   -7.8192   18.1729 C.ar    1  UNL1       -0.0215
     24 C         -16.7431   -7.1999   19.2517 C.ar    1  UNL1       -0.0042
     25 C         -17.6806   -8.0518   20.0552 C.ar    1  UNL1       -0.0003
     26 C         -17.7799   -9.5230   19.7798 C.ar    1  UNL1       -0.0000
     27 C         -16.9417  -10.1423   18.7009 C.ar    1  UNL1       -0.0003
     28 C         -16.0042   -9.2904   17.8975 C.ar    1  UNL1       -0.0042
@<TRIPOS>BOND
     1     9    10    1
     2    10    11   ar
     3    11    12   ar
     4    12    13   ar
     5    13    14   ar
     6    14     3    1
     7     3     4   ar
     8     4     5   ar
     9     5     6   ar
    10     6     2    1
    11     2     1    1
    12     1    15    1
    13    15    16    1
    14    16    17    1
    15    17    18    1
    16    18    19    1
    17    19    20    1
    18    20    21    1
    19    21    23    1
    20    23    24   ar
    21    24    25   ar
    22    25    26   ar
    23    26    27   ar
    24    27    28   ar
    25    21    22    1
    26     6     7   ar
    27     7     8    1
    28    14    10   ar
    29     7     3   ar
    30    22    17    1
    31    21    19    1
    32    28    23   ar
@<TRIPOS>MOLECULE
*****
 28 32 0 0 0
SMALL
GASTEIGER

@<TRIPOS>ATOM
      1 C          -5.1428  -15.3771   24.6909 C.3     1  UNL1        0.0666
      2 S          -6.6119  -15.0849   24.7726 S.3     1  UNL1       -0.0756
      3 C          -9.3030  -16.2952   22.2511 C.ar    1  UNL1        0.2029
      4 N          -8.4484  -15.4321   21.3709 N.ar    1  UNL1       -0.1250
      5 N          -7.3363  -14.8737   22.2083 N.ar    1  UNL1       -0.1220
      6 C          -7.5036  -15.3916   23.6060 C.ar    1  UNL1        0.1933
      7 N          -8.7191  -16.2702   23.6324 N.ar    1  UNL1       -0.2860
      8 C          -9.2563  -16.9962   24.8301 C.3     1  UNL1        0.1341
      9 C          -9.3439  -19.0550   20.5100 C.3     1  UNL1        0.0556
     10 C         -10.5456  -18.3191   21.0244 C.ar    1  UNL1        0.1001
     11 N         -11.9770  -18.7226   20.8288 N.ar    1  UNL1       -0.2085
     12 C         -12.8428  -17.7035   21.5082 C.ar    1  UNL1        0.2849
     13 O         -11.9466  -16.6702   22.1237 O.2     1  UNL1       -0.4283
     14 C         -10.5268  -17.0506   21.8246 C.ar    1  UNL1        0.1964
     15 C          -4.6710  -16.7552   24.3330 C.3     1  UNL1        0.0294
     16 C          -5.6030  -17.7141   23.6533 C.3     1  UNL1        0.0730
     17 N          -5.1271  -18.5180   22.4797 N.3     1  UNL1       -0.2724
     18 C          -5.7673  -19.7659   21.9480 C.3     1  UNL1        0.0724
     19 C          -4.9633  -20.2343   20.7715 C.3     1  UNL1        0.0214
     20 C          -3.9826  -20.4513   19.6575 C.3     1  UNL1        0.0072
     21 C          -3.8261  -19.2759   20.5761 C.3     1  UNL1        0.0350
     22 C          -3.9273  -18.2152   21.6318 C.3     1  UNL1        0.0761
     23 C          -2.5937  -18.7273   19.9203 C.ar    1  UNL1       -0.0215
     24 C          -2.6364  -18.2981   18.4836 C.ar    1  UNL1       -0.0042
     25 C          -1.4039  -17.7495   17.8277 C.ar    1  UNL1       -0.0003
     26 C          -0.1288  -17.6301   18.6086 C.ar    1  UNL1       -0.0000
     27 C          -0.0860  -18.0594   20.0453 C.ar    1  UNL1       -0.0003
     28 C          -1.3185  -18.6079   20.7011 C.ar    1  UNL1       -0.0042
@<TRIPOS>BOND
     1     9    10    1
     2    10    11   ar
     3    11    12   ar
     4    12    13   ar
     5    13    14   ar
     6    14     3    1
     7     3     4   ar
     8     4     5   ar
     9     5     6   ar
    10     6     2    1
    11     2     1    1
    12     1    15    1
    13    15    16    1
    14    16    17    1
    15    17    18    1
    16    18    19    1
    17    19    20    1
    18    20    21    1
    19    21    23    1
    20    23    24   ar
    21    24    25   ar
    22    25    26   ar
    23    26    27   ar
    24    27    28   ar
    25    21    22    1
    26     6     7   ar
    27     7     8    1
    28    14    10   ar
    29     7     3   ar
    30    22    17    1
    31    21    19    1
    32    28    23   ar
