@<TRIPOS>MOLECULE
*****
 30 34 0 0 0
SMALL
GASTEIGER

@<TRIPOS>ATOM
      1 N          -7.4471  -19.5470   19.7618 N.pl3   1  UNL1       -0.2927
      2 H          -7.5395  -19.9275   18.8586 H       1  UNL1        0.1541
      3 C          -6.0860  -19.2280   20.3057 C.ar    1  UNL1        0.1629
      4 N          -5.7959  -18.4558   21.5585 N.ar    1  UNL1       -0.2284
      5 C          -4.3067  -18.3757   21.7193 C.ar    1  UNL1        0.0666
      6 C          -3.6764  -19.0984   20.5659 C.ar    1  UNL1        0.0237
      7 S          -4.7761  -19.6252   19.6922 S.2     1  UNL1       -0.0561
      8 C          -2.1826  -19.1836   20.4601 C.3     1  UNL1        0.0343
      9 C          -1.3191  -18.5459   21.5078 C.3     1  UNL1        0.0060
     10 C          -1.9493  -17.8232   22.6612 C.3     1  UNL1        0.0107
     11 C          -3.4431  -17.7381   22.7670 C.3     1  UNL1        0.0627
     12 C          -4.0734  -17.0153   23.9204 C.ar    1  UNL1       -0.0169
     13 C          -3.8436  -17.4960   25.3226 C.ar    1  UNL1       -0.0039
     14 C          -4.4739  -16.7733   26.4760 C.ar    1  UNL1       -0.0003
     15 C          -5.3340  -15.5698   26.2273 C.ar    1  UNL1       -0.0000
     16 C          -5.5638  -15.0891   24.8251 C.ar    1  UNL1       -0.0003
     17 C          -4.9335  -15.8119   23.6717 C.ar    1  UNL1       -0.0039
     18 C         -11.1080  -18.7644   22.2589 C.ar    1  UNL1        0.0761
     19 C         -11.1760  -19.7247   21.1086 C.ar    1  UNL1        0.0197
     20 C          -9.9557  -19.9856   20.2762 C.ar    1  UNL1        0.0162
     21 C          -8.6674  -19.2861   20.5942 C.ar    1  UNL1        0.0507
     22 C          -8.5994  -18.3258   21.7445 C.ar    1  UNL1        0.0275
     23 C          -9.8197  -18.0649   22.5769 C.ar    1  UNL1        0.0750
     24 CL         -9.7517  -17.1046   23.7272 Cl      1  UNL1       -0.0807
     25 C         -14.4452  -18.5358   26.3445 C.3     1  UNL1        0.0538
     26 C         -13.8622  -18.3984   24.9693 C.ar    1  UNL1        0.0786
     27 C         -12.4891  -18.8297   24.5466 C.ar    1  UNL1        0.0962
     28 N         -12.3283  -18.5035   23.0913 N.ar    1  UNL1       -0.2859
     29 C         -13.6019  -17.8706   22.6147 C.ar    1  UNL1        0.1825
     30 N         -14.5500  -17.8056   23.7753 N.ar    1  UNL1       -0.2280
@<TRIPOS>BOND
     1    25    26    1
     2    26    27   ar
     3    27    28   ar
     4    28    18    1
     5    18    19   ar
     6    19    20   ar
     7    20    21   ar
     8    21     1    1
     9     1     3    1
    10     3     4   ar
    11     4     5   ar
    12     5     6   ar
    13     6     7   ar
    14     6     8    1
    15     8     9    1
    16     9    10    1
    17    10    11    1
    18    11    12    1
    19    12    13   ar
    20    13    14   ar
    21    14    15   ar
    22    15    16   ar
    23    16    17   ar
    24    21    22   ar
    25    22    23   ar
    26    23    24    1
    27    28    29   ar
    28    29    30   ar
    29    30    26   ar
    30    23    18   ar
    31     7     3   ar
    32    17    12   ar
    33    11     5    1
    34     1     2    1
@<TRIPOS>MOLECULE
*****
 30 34 0 0 0
SMALL
GASTEIGER

@<TRIPOS>ATOM
      1 N           5.5369   -1.3390   24.6818 N.pl3   1  UNL1       -0.2927
      2 H           6.5036   -1.2492   24.8455 H       1  UNL1        0.1541
      3 C           5.0466   -1.9626   23.4087 C.ar    1  UNL1        0.1629
      4 N           4.2115   -1.2879   22.3611 N.ar    1  UNL1       -0.2284
      5 C           3.9540   -2.2786   21.2646 C.ar    1  UNL1        0.0666
      6 C           4.6300   -3.5655   21.6346 C.ar    1  UNL1        0.0237
      7 S           5.3052   -3.3702   22.9597 S.2     1  UNL1       -0.0561
      8 C           4.5433   -4.7490   20.7171 C.3     1  UNL1        0.0343
      9 C           3.7807   -4.6455   19.4296 C.3     1  UNL1        0.0060
     10 C           3.1048   -3.3585   19.0596 C.3     1  UNL1        0.0107
     11 C           3.1914   -2.1751   19.9771 C.3     1  UNL1        0.0627
     12 C           2.5155   -0.8882   19.6072 C.ar    1  UNL1       -0.0169
     13 C           1.1506   -0.5762   20.1454 C.ar    1  UNL1       -0.0039
     14 C           0.4747    0.7108   19.7754 C.ar    1  UNL1       -0.0003
     15 C           1.1636    1.6857   18.8673 C.ar    1  UNL1       -0.0000
     16 C           2.5285    1.3737   18.3290 C.ar    1  UNL1       -0.0003
     17 C           3.2044    0.0868   18.6990 C.ar    1  UNL1       -0.0039
     18 C           2.5896    0.1212   27.7529 C.ar    1  UNL1        0.0761
     19 C           3.4836   -1.0422   28.0650 C.ar    1  UNL1        0.0197
     20 C           4.4660   -1.5290   27.0413 C.ar    1  UNL1        0.0162
     21 C           4.5545   -0.8523   25.7055 C.ar    1  UNL1        0.0507
     22 C           3.6605    0.3111   25.3934 C.ar    1  UNL1        0.0275
     23 C           2.6781    0.7978   26.4171 C.ar    1  UNL1        0.0750
     24 CL          1.7841    1.9612   26.1050 Cl      1  UNL1       -0.0807
     25 C           0.4097    2.8075   31.7419 C.3     1  UNL1        0.0538
     26 C           0.6052    1.8428   30.6101 C.ar    1  UNL1        0.0786
     27 C           1.8547    1.6800   29.7962 C.ar    1  UNL1        0.0962
     28 N           1.6072    0.6080   28.7766 N.ar    1  UNL1       -0.2859
     29 C           0.2049    0.1082   28.9603 C.ar    1  UNL1        0.1825
     30 N          -0.4144    0.8713   30.0935 N.ar    1  UNL1       -0.2280
@<TRIPOS>BOND
     1    25    26    1
     2    26    27   ar
     3    27    28   ar
     4    28    18    1
     5    18    19   ar
     6    19    20   ar
     7    20    21   ar
     8    21     1    1
     9     1     3    1
    10     3     4   ar
    11     4     5   ar
    12     5     6   ar
    13     6     7   ar
    14     6     8    1
    15     8     9    1
    16     9    10    1
    17    10    11    1
    18    11    12    1
    19    12    13   ar
    20    13    14   ar
    21    14    15   ar
    22    15    16   ar
    23    16    17   ar
    24    21    22   ar
    25    22    23   ar
    26    23    24    1
    27    28    29   ar
    28    29    30   ar
    29    30    26   ar
    30    23    18   ar
    31     7     3   ar
    32    17    12   ar
    33    11     5    1
    34     1     2    1
@<TRIPOS>MOLECULE
*****
 30 34 0 0 0
SMALL
GASTEIGER

@<TRIPOS>ATOM
      1 N          -0.3550    3.0539   19.5210 N.pl3   1  UNL1       -0.2927
      2 H          -0.2134    3.7362   18.8255 H       1  UNL1        0.1541
      3 C          -1.4854    3.2001   20.4961 C.ar    1  UNL1        0.1629
      4 N          -1.3551    3.3168   21.9859 N.ar    1  UNL1       -0.2284
      5 C          -2.7337    3.4442   22.5632 C.ar    1  UNL1        0.0666
      6 C          -3.7160    3.4062   21.4302 C.ar    1  UNL1        0.0237
      7 S          -2.9445    3.2554   20.1527 S.2     1  UNL1       -0.0561
      8 C          -5.1860    3.5139   21.7082 C.3     1  UNL1        0.0343
      9 C          -5.6738    3.6595   23.1191 C.3     1  UNL1        0.0060
     10 C          -4.6915    3.6975   24.2521 C.3     1  UNL1        0.0107
     11 C          -3.2215    3.5898   23.9741 C.3     1  UNL1        0.0627
     12 C          -2.2392    3.6277   25.1071 C.ar    1  UNL1       -0.0169
     13 C          -2.1702    4.8310   26.0000 C.ar    1  UNL1       -0.0039
     14 C          -1.1879    4.8690   27.1330 C.ar    1  UNL1       -0.0003
     15 C          -0.2746    3.7036   27.3731 C.ar    1  UNL1       -0.0000
     16 C          -0.3436    2.5003   26.4802 C.ar    1  UNL1       -0.0003
     17 C          -1.3258    2.4624   25.3472 C.ar    1  UNL1       -0.0039
     18 C           2.3892   -0.5035   19.7743 C.ar    1  UNL1        0.0761
     19 C           1.0757   -0.5165   20.4986 C.ar    1  UNL1        0.0197
     20 C           0.1609    0.6693   20.4141 C.ar    1  UNL1        0.0162
     21 C           0.5597    1.8681   19.6054 C.ar    1  UNL1        0.0507
     22 C           1.8733    1.8810   18.8812 C.ar    1  UNL1        0.0275
     23 C           2.7880    0.6952   18.9656 C.ar    1  UNL1        0.0750
     24 CL          4.1015    0.7081   18.2414 Cl      1  UNL1       -0.0807
     25 C           4.6612   -5.1719   18.8120 C.3     1  UNL1        0.0538
     26 C           4.3482   -3.8352   19.4164 C.ar    1  UNL1        0.0786
     27 C           3.2537   -2.9057   18.9825 C.ar    1  UNL1        0.0962
     28 N           3.3040   -1.6894   19.8588 N.ar    1  UNL1       -0.2859
     29 C           4.4295   -1.8670   20.8343 C.ar    1  UNL1        0.1825
     30 N           5.0749   -3.1931   20.5609 N.ar    1  UNL1       -0.2280
@<TRIPOS>BOND
     1    25    26    1
     2    26    27   ar
     3    27    28   ar
     4    28    18    1
     5    18    19   ar
     6    19    20   ar
     7    20    21   ar
     8    21     1    1
     9     1     3    1
    10     3     4   ar
    11     4     5   ar
    12     5     6   ar
    13     6     7   ar
    14     6     8    1
    15     8     9    1
    16     9    10    1
    17    10    11    1
    18    11    12    1
    19    12    13   ar
    20    13    14   ar
    21    14    15   ar
    22    15    16   ar
    23    16    17   ar
    24    21    22   ar
    25    22    23   ar
    26    23    24    1
    27    28    29   ar
    28    29    30   ar
    29    30    26   ar
    30    23    18   ar
    31     7     3   ar
    32    17    12   ar
    33    11     5    1
    34     1     2    1
@<TRIPOS>MOLECULE
*****
 30 34 0 0 0
SMALL
GASTEIGER

@<TRIPOS>ATOM
      1 N           0.0458    4.5454   19.6157 N.pl3   1  UNL1       -0.2927
      2 H           0.4189    5.4215   19.8658 H       1  UNL1        0.1541
      3 C          -1.4401    4.3617   19.5240 C.ar    1  UNL1        0.1629
      4 N          -2.4029    4.3757   20.6741 N.ar    1  UNL1       -0.2284
      5 C          -3.7820    4.1543   20.1270 C.ar    1  UNL1        0.0666
      6 C          -3.6714    4.0034   18.6387 C.ar    1  UNL1        0.0237
      7 S          -2.2241    4.1315   18.2661 S.2     1  UNL1       -0.0561
      8 C          -4.9029    3.7688   17.8151 C.3     1  UNL1        0.0343
      9 C          -6.2449    3.6851   18.4798 C.3     1  UNL1        0.0060
     10 C          -6.3555    3.8360   19.9681 C.3     1  UNL1        0.0107
     11 C          -5.1240    4.0706   20.7917 C.3     1  UNL1        0.0627
     12 C          -5.2345    4.2216   22.2800 C.ar    1  UNL1       -0.0169
     13 C          -4.7175    3.1419   23.1838 C.ar    1  UNL1       -0.0039
     14 C          -4.8280    3.2928   24.6721 C.ar    1  UNL1       -0.0003
     15 C          -5.4556    4.5234   25.2566 C.ar    1  UNL1       -0.0000
     16 C          -5.9727    5.6031   24.3528 C.ar    1  UNL1       -0.0003
     17 C          -5.8621    5.4522   22.8645 C.ar    1  UNL1       -0.0039
     18 C           2.7978    1.0925   18.7477 C.ar    1  UNL1        0.0761
     19 C           3.2007    2.4865   18.3677 C.ar    1  UNL1        0.0197
     20 C           2.2833    3.6375   18.6571 C.ar    1  UNL1        0.0162
     21 C           0.9631    3.3945   19.3264 C.ar    1  UNL1        0.0507
     22 C           0.5603    2.0004   19.7064 C.ar    1  UNL1        0.0275
     23 C           1.4776    0.8495   19.4170 C.ar    1  UNL1        0.0750
     24 CL          1.0748   -0.5446   19.7970 Cl      1  UNL1       -0.0807
     25 C           6.3201   -2.7954   19.3469 C.3     1  UNL1        0.0538
     26 C           5.3342   -1.8456   18.7338 C.ar    1  UNL1        0.0786
     27 C           4.5898   -0.7607   19.4543 C.ar    1  UNL1        0.0962
     28 N           3.7152   -0.0585   18.4584 N.ar    1  UNL1       -0.2859
     29 C           3.9188   -0.7094   17.1224 C.ar    1  UNL1        0.1825
     30 N           4.9194   -1.8139   17.2926 N.ar    1  UNL1       -0.2280
@<TRIPOS>BOND
     1    25    26    1
     2    26    27   ar
     3    27    28   ar
     4    28    18    1
     5    18    19   ar
     6    19    20   ar
     7    20    21   ar
     8    21     1    1
     9     1     3    1
    10     3     4   ar
    11     4     5   ar
    12     5     6   ar
    13     6     7   ar
    14     6     8    1
    15     8     9    1
    16     9    10    1
    17    10    11    1
    18    11    12    1
    19    12    13   ar
    20    13    14   ar
    21    14    15   ar
    22    15    16   ar
    23    16    17   ar
    24    21    22   ar
    25    22    23   ar
    26    23    24    1
    27    28    29   ar
    28    29    30   ar
    29    30    26   ar
    30    23    18   ar
    31     7     3   ar
    32    17    12   ar
    33    11     5    1
    34     1     2    1
@<TRIPOS>MOLECULE
*****
 30 34 0 0 0
SMALL
GASTEIGER

@<TRIPOS>ATOM
      1 N          -0.0104    3.9539   19.8135 N.pl3   1  UNL1       -0.2927
      2 H           0.4878    4.8030   19.8141 H       1  UNL1        0.1541
      3 C          -1.5064    3.9620   19.7044 C.ar    1  UNL1        0.1629
      4 N          -2.4728    4.0931   20.8440 N.ar    1  UNL1       -0.2284
      5 C          -3.8624    4.0526   20.2804 C.ar    1  UNL1        0.0666
      6 C          -3.7547    3.8965   18.7925 C.ar    1  UNL1        0.0237
      7 S          -2.2986    3.8405   18.4365 S.2     1  UNL1       -0.0561
      8 C          -4.9964    3.8256   17.9540 C.3     1  UNL1        0.0343
      9 C          -6.3458    3.9107   18.6035 C.3     1  UNL1        0.0060
     10 C          -6.4534    4.0667   20.0915 C.3     1  UNL1        0.0107
     11 C          -5.2117    4.1377   20.9299 C.3     1  UNL1        0.0627
     12 C          -5.3194    4.2938   22.4179 C.ar    1  UNL1       -0.0169
     13 C          -5.9088    5.5443   23.0001 C.ar    1  UNL1       -0.0039
     14 C          -6.0164    5.7003   24.4881 C.ar    1  UNL1       -0.0003
     15 C          -5.5348    4.6060   25.3938 C.ar    1  UNL1       -0.0000
     16 C          -4.9454    3.3556   24.8116 C.ar    1  UNL1       -0.0003
     17 C          -4.8378    3.1995   23.3236 C.ar    1  UNL1       -0.0039
     18 C           2.2007    0.0480   20.1380 C.ar    1  UNL1        0.0761
     19 C           0.8898    0.2287   20.8443 C.ar    1  UNL1        0.0197
     20 C           0.1527    1.5306   20.7361 C.ar    1  UNL1        0.0162
     21 C           0.7266    2.6519   19.9217 C.ar    1  UNL1        0.0507
     22 C           2.0376    2.4713   19.2154 C.ar    1  UNL1        0.0275
     23 C           2.7746    1.1694   19.3236 C.ar    1  UNL1        0.0750
     24 CL          4.0856    0.9887   18.6173 Cl      1  UNL1       -0.0807
     25 C           4.2457   -4.6773   18.9672 C.3     1  UNL1        0.0538
     26 C           3.8778   -3.4259   19.7080 C.ar    1  UNL1        0.0786
     27 C           3.0567   -2.2918   19.1697 C.ar    1  UNL1        0.0962
     28 N           2.9378   -1.2539   20.2462 N.ar    1  UNL1       -0.2859
     29 C           3.6854   -1.7466   21.4497 C.ar    1  UNL1        0.1825
     30 N           4.2663   -3.0889   21.1171 N.ar    1  UNL1       -0.2280
@<TRIPOS>BOND
     1    25    26    1
     2    26    27   ar
     3    27    28   ar
     4    28    18    1
     5    18    19   ar
     6    19    20   ar
     7    20    21   ar
     8    21     1    1
     9     1     3    1
    10     3     4   ar
    11     4     5   ar
    12     5     6   ar
    13     6     7   ar
    14     6     8    1
    15     8     9    1
    16     9    10    1
    17    10    11    1
    18    11    12    1
    19    12    13   ar
    20    13    14   ar
    21    14    15   ar
    22    15    16   ar
    23    16    17   ar
    24    21    22   ar
    25    22    23   ar
    26    23    24    1
    27    28    29   ar
    28    29    30   ar
    29    30    26   ar
    30    23    18   ar
    31     7     3   ar
    32    17    12   ar
    33    11     5    1
    34     1     2    1
@<TRIPOS>MOLECULE
*****
 30 34 0 0 0
SMALL
GASTEIGER

@<TRIPOS>ATOM
      1 N           7.7212   -1.6723   24.0707 N.pl3   1  UNL1       -0.2927
      2 H           8.2734   -0.8604   24.0000 H       1  UNL1        0.1541
      3 C           6.8424   -2.0836   22.9268 C.ar    1  UNL1        0.1629
      4 N           5.4988   -1.5053   22.5948 N.ar    1  UNL1       -0.2284
      5 C           4.9790   -2.2097   21.3768 C.ar    1  UNL1        0.0666
      6 C           6.0013   -3.2235   20.9560 C.ar    1  UNL1        0.0237
      7 S           7.1530   -3.1456   21.9139 S.2     1  UNL1       -0.0561
      8 C           5.7515   -4.0866   19.7549 C.3     1  UNL1        0.0343
      9 C           4.4793   -3.9359   18.9747 C.3     1  UNL1        0.0060
     10 C           3.4570   -2.9222   19.3955 C.3     1  UNL1        0.0107
     11 C           3.7068   -2.0591   20.5965 C.3     1  UNL1        0.0627
     12 C           2.6845   -1.0453   21.0174 C.ar    1  UNL1       -0.0169
     13 C           1.4857   -0.7861   20.1539 C.ar    1  UNL1       -0.0039
     14 C           0.4633    0.2277   20.5747 C.ar    1  UNL1       -0.0003
     15 C           0.6398    0.9823   21.8590 C.ar    1  UNL1       -0.0000
     16 C           1.8386    0.7231   22.7224 C.ar    1  UNL1       -0.0003
     17 C           2.8609   -0.2907   22.3016 C.ar    1  UNL1       -0.0039
     18 C           7.8333   -4.1496   27.8257 C.ar    1  UNL1        0.0761
     19 C           8.3520   -2.7423   27.8400 C.ar    1  UNL1        0.0197
     20 C           8.3146   -1.9164   26.5883 C.ar    1  UNL1        0.0162
     21 C           7.7585   -2.4980   25.3224 C.ar    1  UNL1        0.0507
     22 C           7.2398   -3.9055   25.3082 C.ar    1  UNL1        0.0275
     23 C           7.2772   -4.7312   26.5598 C.ar    1  UNL1        0.0750
     24 CL          6.7585   -6.1387   26.5456 Cl      1  UNL1       -0.0807
     25 C           9.5262   -7.2687   31.7355 C.3     1  UNL1        0.0538
     26 C           8.6488   -6.4091   30.8746 C.ar    1  UNL1        0.0786
     27 C           9.0586   -5.7244   29.6044 C.ar    1  UNL1        0.0962
     28 N           7.8706   -4.9754   29.0774 N.ar    1  UNL1       -0.2859
     29 C           6.7266   -5.1972   30.0218 C.ar    1  UNL1        0.1825
     30 N           7.2075   -6.0833   31.1325 N.ar    1  UNL1       -0.2280
@<TRIPOS>BOND
     1    25    26    1
     2    26    27   ar
     3    27    28   ar
     4    28    18    1
     5    18    19   ar
     6    19    20   ar
     7    20    21   ar
     8    21     1    1
     9     1     3    1
    10     3     4   ar
    11     4     5   ar
    12     5     6   ar
    13     6     7   ar
    14     6     8    1
    15     8     9    1
    16     9    10    1
    17    10    11    1
    18    11    12    1
    19    12    13   ar
    20    13    14   ar
    21    14    15   ar
    22    15    16   ar
    23    16    17   ar
    24    21    22   ar
    25    22    23   ar
    26    23    24    1
    27    28    29   ar
    28    29    30   ar
    29    30    26   ar
    30    23    18   ar
    31     7     3   ar
    32    17    12   ar
    33    11     5    1
    34     1     2    1
@<TRIPOS>MOLECULE
*****
 30 34 0 0 0
SMALL
GASTEIGER

@<TRIPOS>ATOM
      1 N           0.4486    4.0929   20.4220 N.pl3   1  UNL1       -0.2927
      2 H           0.7457    4.9763   20.1050 H       1  UNL1        0.1541
      3 C          -0.7607    3.9796   21.3021 C.ar    1  UNL1        0.1629
      4 N          -2.1886    4.0974   20.8579 N.ar    1  UNL1       -0.2284
      5 C          -3.0649    3.9193   22.0622 C.ar    1  UNL1        0.0666
      6 C          -2.1786    3.6913   23.2507 C.ar    1  UNL1        0.0237
      7 S          -0.7546    3.7286   22.7809 S.2     1  UNL1       -0.0561
      8 C          -2.7828    3.4792   24.6072 C.3     1  UNL1        0.0343
      9 C          -4.2733    3.4951   24.7751 C.3     1  UNL1        0.0060
     10 C          -5.1596    3.7230   23.5866 C.3     1  UNL1        0.0107
     11 C          -4.5554    3.9351   22.2301 C.3     1  UNL1        0.0627
     12 C          -5.4417    4.1631   21.0416 C.ar    1  UNL1       -0.0169
     13 C          -5.5760    3.1006   19.9914 C.ar    1  UNL1       -0.0039
     14 C          -6.4622    3.3285   18.8029 C.ar    1  UNL1       -0.0003
     15 C          -7.2142    4.6190   18.6646 C.ar    1  UNL1       -0.0000
     16 C          -7.0799    5.6815   19.7148 C.ar    1  UNL1       -0.0003
     17 C          -6.1936    5.4536   20.9033 C.ar    1  UNL1       -0.0039
     18 C           2.7190    0.3947   19.2309 C.ar    1  UNL1        0.0761
     19 C           1.6141    0.9103   18.3573 C.ar    1  UNL1        0.0197
     20 C           0.8572    2.1431   18.7543 C.ar    1  UNL1        0.0162
     21 C           1.2054    2.8602   20.0250 C.ar    1  UNL1        0.0507
     22 C           2.3104    2.3445   20.8986 C.ar    1  UNL1        0.0275
     23 C           3.0672    1.1118   20.5015 C.ar    1  UNL1        0.0750
     24 CL          4.1722    0.5961   21.3751 Cl      1  UNL1       -0.0807
     25 C           4.4136   -4.6009   18.9991 C.3     1  UNL1        0.0538
     26 C           4.2547   -3.1343   18.7273 C.ar    1  UNL1        0.0786
     27 C           3.2965   -2.2086   19.4166 C.ar    1  UNL1        0.0962
     28 N           3.4758   -0.8381   18.8339 N.ar    1  UNL1       -0.2859
     29 C           4.5447   -0.9167   17.7844 C.ar    1  UNL1        0.1825
     30 N           5.0261   -2.3359   17.7186 N.ar    1  UNL1       -0.2280
@<TRIPOS>BOND
     1    25    26    1
     2    26    27   ar
     3    27    28   ar
     4    28    18    1
     5    18    19   ar
     6    19    20   ar
     7    20    21   ar
     8    21     1    1
     9     1     3    1
    10     3     4   ar
    11     4     5   ar
    12     5     6   ar
    13     6     7   ar
    14     6     8    1
    15     8     9    1
    16     9    10    1
    17    10    11    1
    18    11    12    1
    19    12    13   ar
    20    13    14   ar
    21    14    15   ar
    22    15    16   ar
    23    16    17   ar
    24    21    22   ar
    25    22    23   ar
    26    23    24    1
    27    28    29   ar
    28    29    30   ar
    29    30    26   ar
    30    23    18   ar
    31     7     3   ar
    32    17    12   ar
    33    11     5    1
    34     1     2    1
@<TRIPOS>MOLECULE
*****
 30 34 0 0 0
SMALL
GASTEIGER

@<TRIPOS>ATOM
      1 N           6.8231   -0.2165   24.0643 N.pl3   1  UNL1       -0.2927
      2 H           7.7271    0.0648   24.3345 H       1  UNL1        0.1541
      3 C           6.5698   -0.6782   22.6598 C.ar    1  UNL1        0.1629
      4 N           5.3251   -0.4289   21.8607 N.ar    1  UNL1       -0.2284
      5 C           5.5027   -1.0669   20.5148 C.ar    1  UNL1        0.0666
      6 C           6.8572   -1.7105   20.4820 C.ar    1  UNL1        0.0237
      7 S           7.5167   -1.4702   21.8077 S.2     1  UNL1       -0.0561
      8 C           7.3151   -2.4321   19.2493 C.3     1  UNL1        0.0343
      9 C           6.4184   -2.5101   18.0494 C.3     1  UNL1        0.0060
     10 C           5.0639   -1.8665   18.0822 C.3     1  UNL1        0.0107
     11 C           4.6060   -1.1449   19.3149 C.3     1  UNL1        0.0627
     12 C           3.2515   -0.5013   19.3476 C.ar    1  UNL1       -0.0169
     13 C           2.1942   -1.0257   20.2735 C.ar    1  UNL1       -0.0039
     14 C           0.8397   -0.3821   20.3062 C.ar    1  UNL1       -0.0003
     15 C           0.5424    0.7858   19.4132 C.ar    1  UNL1       -0.0000
     16 C           1.5997    1.3101   18.4873 C.ar    1  UNL1       -0.0003
     17 C           2.9542    0.6665   18.4546 C.ar    1  UNL1       -0.0039
     18 C           3.4514   -0.1168   27.0427 C.ar    1  UNL1        0.0761
     19 C           3.9214   -1.4278   26.4856 C.ar    1  UNL1        0.0197
     20 C           5.0454   -1.4610   25.4928 C.ar    1  UNL1        0.0162
     21 C           5.6992   -0.1833   25.0571 C.ar    1  UNL1        0.0507
     22 C           5.2291    1.1277   25.6143 C.ar    1  UNL1        0.0275
     23 C           4.1052    1.1609   26.6071 C.ar    1  UNL1        0.0750
     24 CL          3.6351    2.4719   27.1642 Cl      1  UNL1       -0.0807
     25 C          -1.3583    0.3590   29.1692 C.3     1  UNL1        0.0538
     26 C           0.1166    0.1352   29.0130 C.ar    1  UNL1        0.0786
     27 C           0.8882    0.2071   27.7286 C.ar    1  UNL1        0.0962
     28 N           2.3274   -0.0836   28.0356 N.ar    1  UNL1       -0.2859
     29 C           2.4454   -0.3351   29.5096 C.ar    1  UNL1        0.1825
     30 N           1.0791   -0.1999   30.1137 N.ar    1  UNL1       -0.2280
@<TRIPOS>BOND
     1    25    26    1
     2    26    27   ar
     3    27    28   ar
     4    28    18    1
     5    18    19   ar
     6    19    20   ar
     7    20    21   ar
     8    21     1    1
     9     1     3    1
    10     3     4   ar
    11     4     5   ar
    12     5     6   ar
    13     6     7   ar
    14     6     8    1
    15     8     9    1
    16     9    10    1
    17    10    11    1
    18    11    12    1
    19    12    13   ar
    20    13    14   ar
    21    14    15   ar
    22    15    16   ar
    23    16    17   ar
    24    21    22   ar
    25    22    23   ar
    26    23    24    1
    27    28    29   ar
    28    29    30   ar
    29    30    26   ar
    30    23    18   ar
    31     7     3   ar
    32    17    12   ar
    33    11     5    1
    34     1     2    1
@<TRIPOS>MOLECULE
*****
 30 34 0 0 0
SMALL
GASTEIGER

@<TRIPOS>ATOM
      1 N           0.9630    3.5411   19.9212 N.pl3   1  UNL1       -0.2927
      2 H           1.3197    4.2952   20.4441 H       1  UNL1        0.1541
      3 C          -0.3667    3.6647   19.2381 C.ar    1  UNL1        0.1629
      4 N          -1.7029    3.7359   19.9159 N.ar    1  UNL1       -0.2284
      5 C          -2.7557    3.8539   18.8540 C.ar    1  UNL1        0.0666
      6 C          -2.0702    3.8556   17.5198 C.ar    1  UNL1        0.0237
      7 S          -0.5937    3.7387   17.7572 S.2     1  UNL1       -0.0561
      8 C          -2.8789    3.9634   16.2612 C.3     1  UNL1        0.0343
      9 C          -4.3732    4.0695   16.3367 C.3     1  UNL1        0.0060
     10 C          -5.0588    4.0678   17.6709 C.3     1  UNL1        0.0107
     11 C          -4.2500    3.9599   18.9295 C.3     1  UNL1        0.0627
     12 C          -4.9356    3.9582   20.2637 C.ar    1  UNL1       -0.0169
     13 C          -4.3906    3.1254   21.3859 C.ar    1  UNL1       -0.0039
     14 C          -5.0761    3.1236   22.7200 C.ar    1  UNL1       -0.0003
     15 C          -6.3067    3.9548   22.9320 C.ar    1  UNL1       -0.0000
     16 C          -6.8517    4.7876   21.8099 C.ar    1  UNL1       -0.0003
     17 C          -6.1661    4.7893   20.4757 C.ar    1  UNL1       -0.0039
     18 C           3.3217   -0.2759   19.5804 C.ar    1  UNL1        0.0761
     19 C           2.1758   -0.1860   20.5440 C.ar    1  UNL1        0.0197
     20 C           1.3895    1.0864   20.6577 C.ar    1  UNL1        0.0162
     21 C           1.7492    2.2688   19.8076 C.ar    1  UNL1        0.0507
     22 C           2.8953    2.1788   18.8439 C.ar    1  UNL1        0.0275
     23 C           3.6815    0.9064   18.7304 C.ar    1  UNL1        0.0750
     24 CL          4.8275    0.8164   17.7667 Cl      1  UNL1       -0.0807
     25 C           4.5871   -5.3475   18.8327 C.3     1  UNL1        0.0538
     26 C           4.6896   -3.8795   19.1231 C.ar    1  UNL1        0.0786
     27 C           3.5535   -2.9000   19.1269 C.ar    1  UNL1        0.0962
     28 N           4.1080   -1.5483   19.4668 N.ar    1  UNL1       -0.2859
     29 C           5.5867   -1.6924   19.6731 C.ar    1  UNL1        0.1825
     30 N           5.9462   -3.1331   19.4607 N.ar    1  UNL1       -0.2280
@<TRIPOS>BOND
     1    25    26    1
     2    26    27   ar
     3    27    28   ar
     4    28    18    1
     5    18    19   ar
     6    19    20   ar
     7    20    21   ar
     8    21     1    1
     9     1     3    1
    10     3     4   ar
    11     4     5   ar
    12     5     6   ar
    13     6     7   ar
    14     6     8    1
    15     8     9    1
    16     9    10    1
    17    10    11    1
    18    11    12    1
    19    12    13   ar
    20    13    14   ar
    21    14    15   ar
    22    15    16   ar
    23    16    17   ar
    24    21    22   ar
    25    22    23   ar
    26    23    24    1
    27    28    29   ar
    28    29    30   ar
    29    30    26   ar
    30    23    18   ar
    31     7     3   ar
    32    17    12   ar
    33    11     5    1
    34     1     2    1
