@<TRIPOS>MOLECULE
*****
 34 38 0 0 0
SMALL
GASTEIGER

@<TRIPOS>ATOM
      1 N           6.7257   -4.0774   31.0882 N.3     1  UNL1       -0.2727
      2 C           6.8987   -5.4852   30.6001 C.3     1  UNL1        0.0721
      3 C           7.0519   -5.4431   29.1085 C.3     1  UNL1        0.0191
      4 C           7.1743   -5.0914   27.6555 C.3     1  UNL1        0.0224
      5 C           6.9736   -4.0093   28.6748 C.3     1  UNL1        0.0191
      6 C           6.7720   -3.1653   29.8983 C.3     1  UNL1        0.0721
      7 C           6.5391   -3.6559   32.5156 C.3     1  UNL1        0.0722
      8 C           4.1506    1.7025   33.7734 C.2     1  UNL1        0.4050
      9 O           5.0228    2.9223   33.8113 O.2     1  UNL1       -0.2262
     10 N           4.7477    0.3630   33.4590 N.am    1  UNL1       -0.2460
     11 C           3.8755   -0.8567   33.4210 C.3     1  UNL1        0.0968
     12 C           4.4726   -2.1964   33.1066 C.3     1  UNL1        0.0231
     13 C           5.9420   -2.3163   32.8300 C.3     1  UNL1        0.0194
     14 C           6.8143   -1.0965   32.8679 C.3     1  UNL1        0.0231
     15 C           6.2172    0.2431   33.1824 C.3     1  UNL1        0.0968
     16 C           1.7414    2.2224   32.9515 C.3     1  UNL1        0.2573
     17 O           2.6811    1.8225   34.0500 O.3     1  UNL1       -0.4304
     18 C           7.3609   -5.5130   26.2281 C.3     1  UNL1        0.0898
     19 N           6.4270   -5.0075   25.1687 N.am    1  UNL1       -0.2996
     20 C           6.9723   -4.2990   23.9641 C.2     1  UNL1        0.2651
     21 O           8.4514   -4.0961   23.8192 O.2     1  UNL1       -0.2684
     22 H           5.4562   -5.1408   25.2638 H       1  UNL1        0.1498
     23 C           6.0385   -3.7936   22.9047 C.ar    1  UNL1        0.1517
     24 N           5.9556   -4.2912   21.4921 N.ar    1  UNL1       -0.2260
     25 C           4.8894   -3.5069   20.7862 C.ar    1  UNL1        0.1239
     26 N           4.3134   -2.5246   21.7626 N.ar    1  UNL1       -0.2921
     27 C           3.2341   -1.4916   21.6286 C.ar    1  UNL1        0.0811
     28 C           2.8649   -0.6359   22.8039 C.ar    1  UNL1        0.0191
     29 C           3.5750   -0.8131   24.1132 C.ar    1  UNL1        0.0031
     30 C           4.6544   -1.8460   24.2472 C.ar    1  UNL1        0.0193
     31 C           5.0236   -2.7017   23.0719 C.ar    1  UNL1        0.0872
     32 C           4.4725   -3.6753   19.3552 C.3     1  UNL1        0.0573
     33 C           5.2910   -3.0613   18.2583 C.3     1  UNL1        0.0079
     34 C           3.2371   -4.4576   19.0211 C.3     1  UNL1        0.0079
@<TRIPOS>BOND
     1    16    17    1
     2    17     8    1
     3     8     9    2
     4     8    10   am
     5    10    11    1
     6    11    12    1
     7    12    13    1
     8    13     7    1
     9     7     1    1
    10     1     2    1
    11     3     2    1
    12     3     4    1
    13     4    18    1
    14    18    19    1
    15    19    20   am
    16    20    21    2
    17    20    23    1
    18    23    24   ar
    19    24    25   ar
    20    25    32    1
    21    32    33    1
    22    32    34    1
    23    25    26   ar
    24    26    27   ar
    25    27    28   ar
    26    28    29   ar
    27    29    30   ar
    28    30    31   ar
    29     4     5    1
    30     5     6    1
    31    13    14    1
    32    14    15    1
    33    15    10    1
    34     6     1    1
    35     5     3    1
    36    31    23   ar
    37    31    26   ar
    38    19    22    1
@<TRIPOS>MOLECULE
*****
 34 38 0 0 0
SMALL
GASTEIGER

@<TRIPOS>ATOM
      1 N           6.6605   -4.1711   30.5255 N.3     1  UNL1       -0.2727
      2 C           6.8379   -5.4616   29.7818 C.3     1  UNL1        0.0721
      3 C           6.8291   -5.1554   28.3134 C.3     1  UNL1        0.0191
      4 C           6.7811   -4.5530   26.9405 C.3     1  UNL1        0.0224
      5 C           6.6463   -3.6756   28.1496 C.3     1  UNL1        0.0191
      6 C           6.5421   -3.0673   29.5168 C.3     1  UNL1        0.0721
      7 C           6.6104   -4.0124   32.0162 C.3     1  UNL1        0.0722
      8 C           4.8308    1.1884   34.4212 C.2     1  UNL1        0.4050
      9 O           5.8223    2.2929   34.6376 O.2     1  UNL1       -0.2262
     10 N           5.2756   -0.1117   33.8200 N.am    1  UNL1       -0.2460
     11 C           4.2841   -1.2162   33.6036 C.3     1  UNL1        0.0968
     12 C           4.7289   -2.5165   33.0023 C.3     1  UNL1        0.0231
     13 C           6.1654   -2.7122   32.6175 C.3     1  UNL1        0.0194
     14 C           7.1572   -1.6077   32.8339 C.3     1  UNL1        0.0231
     15 C           6.7122   -0.3075   33.4351 C.3     1  UNL1        0.0968
     16 C           2.4620    2.1090   33.8812 C.3     1  UNL1        0.2573
     17 O           3.3942    1.3842   34.8061 O.3     1  UNL1       -0.4304
     18 C           6.8312   -4.7118   25.4498 C.3     1  UNL1        0.0898
     19 N           6.0425   -3.7876   24.5702 N.am    1  UNL1       -0.2996
     20 C           6.1633   -3.8871   23.0783 C.2     1  UNL1        0.2651
     21 O           7.0728   -4.9107   22.4662 O.2     1  UNL1       -0.2684
     22 H           5.4455   -3.1157   24.9720 H       1  UNL1        0.1498
     23 C           5.3745   -2.9628   22.1987 C.ar    1  UNL1        0.1517
     24 N           4.0795   -2.2962   22.5569 N.ar    1  UNL1       -0.2260
     25 C           3.6470   -1.4643   21.3861 C.ar    1  UNL1        0.1239
     26 N           4.6747   -1.6169   20.3042 N.ar    1  UNL1       -0.2921
     27 C           4.7763   -1.0322   18.9266 C.ar    1  UNL1        0.0811
     28 C           5.9455   -1.3736   18.0513 C.ar    1  UNL1        0.0191
     29 C           7.0133   -2.2997   18.5536 C.ar    1  UNL1        0.0031
     30 C           6.9117   -2.8844   19.9311 C.ar    1  UNL1        0.0193
     31 C           5.7424   -2.5430   20.8064 C.ar    1  UNL1        0.0872
     32 C           2.4048   -0.6269   21.3103 C.3     1  UNL1        0.0573
     33 C           1.4264   -0.8359   20.1926 C.3     1  UNL1        0.0079
     34 C           2.1409    0.4194   22.3521 C.3     1  UNL1        0.0079
@<TRIPOS>BOND
     1    16    17    1
     2    17     8    1
     3     8     9    2
     4     8    10   am
     5    10    11    1
     6    11    12    1
     7    12    13    1
     8    13     7    1
     9     7     1    1
    10     1     2    1
    11     3     2    1
    12     3     4    1
    13     4    18    1
    14    18    19    1
    15    19    20   am
    16    20    21    2
    17    20    23    1
    18    23    24   ar
    19    24    25   ar
    20    25    32    1
    21    32    33    1
    22    32    34    1
    23    25    26   ar
    24    26    27   ar
    25    27    28   ar
    26    28    29   ar
    27    29    30   ar
    28    30    31   ar
    29     4     5    1
    30     5     6    1
    31    13    14    1
    32    14    15    1
    33    15    10    1
    34     6     1    1
    35     5     3    1
    36    31    23   ar
    37    31    26   ar
    38    19    22    1
@<TRIPOS>MOLECULE
*****
 34 38 0 0 0
SMALL
GASTEIGER

@<TRIPOS>ATOM
      1 N           0.6222    1.9664   28.3424 N.3     1  UNL1       -0.2727
      2 C           1.6751    2.3956   27.3640 C.3     1  UNL1        0.0721
      3 C           1.2126    2.0152   25.9887 C.3     1  UNL1        0.0191
      4 C           0.4988    1.5236   24.7644 C.3     1  UNL1        0.0224
      5 C          -0.1261    1.3509   26.1171 C.3     1  UNL1        0.0191
      6 C          -0.4910    1.3207   27.5717 C.3     1  UNL1        0.0721
      7 C           0.6735    2.1505   29.8301 C.3     1  UNL1        0.0722
      8 C           4.3106   -1.2740   33.1533 C.2     1  UNL1        0.4050
      9 O           4.7849   -0.7869   34.4904 O.2     1  UNL1       -0.2262
     10 N           3.4014   -0.4179   32.3225 N.am    1  UNL1       -0.2460
     11 C           2.9271   -0.9050   30.9855 C.3     1  UNL1        0.0968
     12 C           2.0178   -0.0489   30.1546 C.3     1  UNL1        0.0231
     13 C           1.5828    1.2944   30.6609 C.3     1  UNL1        0.0194
     14 C           2.0570    1.7816   31.9980 C.3     1  UNL1        0.0231
     15 C           2.9663    0.9254   32.8288 C.3     1  UNL1        0.0968
     16 C           6.1480   -2.8143   32.1524 C.3     1  UNL1        0.2573
     17 O           4.7457   -2.6174   32.6470 O.3     1  UNL1       -0.4304
     18 C           0.4476    1.3394   23.2767 C.3     1  UNL1        0.0898
     19 N           1.5949    0.6896   22.5615 N.am    1  UNL1       -0.2996
     20 C           1.4013    0.1363   21.1807 C.2     1  UNL1        0.2651
     21 O           0.0606    0.2329   20.5152 O.2     1  UNL1       -0.2684
     22 H           2.4749    0.6263   22.9983 H       1  UNL1        0.1498
     23 C           2.5486   -0.5134   20.4655 C.ar    1  UNL1        0.1517
     24 N           2.9691   -1.9476   20.5938 N.ar    1  UNL1       -0.2260
     25 C           4.1572   -2.1636   19.7040 C.ar    1  UNL1        0.1239
     26 N           4.4710   -0.8630   19.0258 N.ar    1  UNL1       -0.2921
     27 C           5.5336   -0.4756   18.0406 C.ar    1  UNL1        0.0811
     28 C           5.6020    0.9316   17.5259 C.ar    1  UNL1        0.0191
     29 C           4.6079    1.9515   17.9965 C.ar    1  UNL1        0.0031
     30 C           3.5453    1.5641   18.9818 C.ar    1  UNL1        0.0193
     31 C           3.4769    0.1569   19.4965 C.ar    1  UNL1        0.0872
     32 C           4.9009   -3.4538   19.5240 C.3     1  UNL1        0.0573
     33 C           6.3159   -3.5774   20.0065 C.3     1  UNL1        0.0079
     34 C           4.2298   -4.6202   18.8616 C.3     1  UNL1        0.0079
@<TRIPOS>BOND
     1    16    17    1
     2    17     8    1
     3     8     9    2
     4     8    10   am
     5    10    11    1
     6    11    12    1
     7    12    13    1
     8    13     7    1
     9     7     1    1
    10     1     2    1
    11     3     2    1
    12     3     4    1
    13     4    18    1
    14    18    19    1
    15    19    20   am
    16    20    21    2
    17    20    23    1
    18    23    24   ar
    19    24    25   ar
    20    25    32    1
    21    32    33    1
    22    32    34    1
    23    25    26   ar
    24    26    27   ar
    25    27    28   ar
    26    28    29   ar
    27    29    30   ar
    28    30    31   ar
    29     4     5    1
    30     5     6    1
    31    13    14    1
    32    14    15    1
    33    15    10    1
    34     6     1    1
    35     5     3    1
    36    31    23   ar
    37    31    26   ar
    38    19    22    1
@<TRIPOS>MOLECULE
*****
 34 38 0 0 0
SMALL
GASTEIGER

@<TRIPOS>ATOM
      1 N           1.4363    1.4047   29.6867 N.3     1  UNL1       -0.2727
      2 C           2.6387    1.8557   28.9116 C.3     1  UNL1        0.0721
      3 C           3.2105    0.6614   28.2066 C.3     1  UNL1        0.0191
      4 C           3.5455   -0.6860   27.6389 C.3     1  UNL1        0.0224
      5 C           2.3614   -0.5276   28.5461 C.3     1  UNL1        0.0191
      6 C           1.2649   -0.0683   29.4609 C.3     1  UNL1        0.0721
      7 C           0.5593    2.2740   30.5382 C.3     1  UNL1        0.0722
      8 C           2.3602    3.8893   36.0289 C.2     1  UNL1        0.4050
      9 O           1.8806    5.1788   36.6264 O.2     1  UNL1       -0.2262
     10 N           1.9100    3.4855   34.6563 N.am    1  UNL1       -0.2460
     11 C           2.3896    2.1960   34.0587 C.3     1  UNL1        0.0968
     12 C           1.9394    1.7921   32.6860 C.3     1  UNL1        0.0231
     13 C           1.0095    2.6778   31.9109 C.3     1  UNL1        0.0194
     14 C           0.5298    3.9674   32.5084 C.3     1  UNL1        0.0231
     15 C           0.9801    4.3712   33.8811 C.3     1  UNL1        0.0968
     16 C           3.6464    3.3467   38.2201 C.3     1  UNL1        0.2573
     17 O           3.2901    3.0035   36.8041 O.3     1  UNL1       -0.4304
     18 C           4.4225   -1.5552   26.7874 C.3     1  UNL1        0.0898
     19 N           4.0031   -1.9036   25.3900 N.am    1  UNL1       -0.2996
     20 C           4.4495   -1.0520   24.2386 C.2     1  UNL1        0.2651
     21 O           5.3153    0.1479   24.4848 O.2     1  UNL1       -0.2684
     22 H           3.4348   -2.6912   25.2285 H       1  UNL1        0.1498
     23 C           4.0301   -1.4003   22.8412 C.ar    1  UNL1        0.1517
     24 N           4.6659   -2.4362   21.9622 N.ar    1  UNL1       -0.2260
     25 C           3.9300   -2.4500   20.6552 C.ar    1  UNL1        0.1239
     26 N           2.8393   -1.4226   20.7265 N.ar    1  UNL1       -0.2921
     27 C           1.7978   -0.9941   19.7357 C.ar    1  UNL1        0.0811
     28 C           0.8182    0.0832   20.0960 C.ar    1  UNL1        0.0191
     29 C           0.8801    0.7319   21.4471 C.ar    1  UNL1        0.0031
     30 C           1.9216    0.3034   22.4378 C.ar    1  UNL1        0.0193
     31 C           2.9012   -0.7739   22.0775 C.ar    1  UNL1        0.0872
     32 C           4.2317   -3.3356   19.4828 C.3     1  UNL1        0.0573
     33 C           5.1174   -2.8412   18.3777 C.3     1  UNL1        0.0079
     34 C           3.6478   -4.7156   19.4153 C.3     1  UNL1        0.0079
@<TRIPOS>BOND
     1    16    17    1
     2    17     8    1
     3     8     9    2
     4     8    10   am
     5    10    11    1
     6    11    12    1
     7    12    13    1
     8    13     7    1
     9     7     1    1
    10     1     2    1
    11     3     2    1
    12     3     4    1
    13     4    18    1
    14    18    19    1
    15    19    20   am
    16    20    21    2
    17    20    23    1
    18    23    24   ar
    19    24    25   ar
    20    25    32    1
    21    32    33    1
    22    32    34    1
    23    25    26   ar
    24    26    27   ar
    25    27    28   ar
    26    28    29   ar
    27    29    30   ar
    28    30    31   ar
    29     4     5    1
    30     5     6    1
    31    13    14    1
    32    14    15    1
    33    15    10    1
    34     6     1    1
    35     5     3    1
    36    31    23   ar
    37    31    26   ar
    38    19    22    1
@<TRIPOS>MOLECULE
*****
 34 38 0 0 0
SMALL
GASTEIGER

@<TRIPOS>ATOM
      1 N          -3.8994    3.2447   21.7663 N.3     1  UNL1       -0.2727
      2 C          -2.6964    3.3956   22.6495 C.3     1  UNL1        0.0721
      3 C          -1.4789    3.4228   21.7736 C.3     1  UNL1        0.0191
      4 C          -0.4688    3.4182   20.6647 C.3     1  UNL1        0.0224
      5 C          -1.9295    3.2886   20.3492 C.3     1  UNL1        0.0191
      6 C          -3.4255    3.1785   20.3447 C.3     1  UNL1        0.0721
      7 C          -5.3259    3.1725   22.2244 C.3     1  UNL1        0.0722
      8 C          -7.1401    6.4458   26.9142 C.2     1  UNL1        0.4050
      9 O          -8.3530    7.3200   26.7944 O.2     1  UNL1       -0.2262
     10 N          -6.6865    5.6275   25.7418 N.am    1  UNL1       -0.2460
     11 C          -5.4736    4.7533   25.8617 C.3     1  UNL1        0.0968
     12 C          -5.0200    3.9349   24.6892 C.3     1  UNL1        0.0231
     13 C          -5.7794    3.9908   23.3969 C.3     1  UNL1        0.0194
     14 C          -6.9925    4.8651   23.2769 C.3     1  UNL1        0.0231
     15 C          -7.4460    5.6834   24.4494 C.3     1  UNL1        0.0968
     16 C          -6.7314    7.3272   29.3238 C.3     1  UNL1        0.2573
     17 O          -6.3806    6.3899   28.2066 O.3     1  UNL1       -0.4304
     18 C           0.9577    3.4904   20.2067 C.3     1  UNL1        0.0898
     19 N           1.8770    2.3264   20.4307 N.am    1  UNL1       -0.2996
     20 C           1.7091    1.0722   19.6251 C.2     1  UNL1        0.2651
     21 O           0.6220    0.9820   18.5957 O.2     1  UNL1       -0.2684
     22 H           2.5906    2.3857   21.1064 H       1  UNL1        0.1498
     23 C           2.6285   -0.0917   19.8491 C.ar    1  UNL1        0.1517
     24 N           3.2787   -0.9200   18.7808 N.ar    1  UNL1       -0.2260
     25 C           4.1110   -1.9718   19.4522 C.ar    1  UNL1        0.1239
     26 N           3.9753   -1.7937   20.9354 N.ar    1  UNL1       -0.2921
     27 C           4.5676   -2.5394   22.0943 C.ar    1  UNL1        0.0811
     28 C           4.2437   -2.1230   23.4984 C.ar    1  UNL1        0.0191
     29 C           3.3274   -0.9610   23.7437 C.ar    1  UNL1        0.0031
     30 C           2.7350   -0.2153   22.5849 C.ar    1  UNL1        0.0193
     31 C           3.0590   -0.6316   21.1807 C.ar    1  UNL1        0.0872
     32 C           4.9346   -3.0182   18.7617 C.3     1  UNL1        0.0573
     33 C           4.5077   -4.4557   18.8017 C.3     1  UNL1        0.0079
     34 C           6.1849   -2.6273   18.0312 C.3     1  UNL1        0.0079
@<TRIPOS>BOND
     1    16    17    1
     2    17     8    1
     3     8     9    2
     4     8    10   am
     5    10    11    1
     6    11    12    1
     7    12    13    1
     8    13     7    1
     9     7     1    1
    10     1     2    1
    11     3     2    1
    12     3     4    1
    13     4    18    1
    14    18    19    1
    15    19    20   am
    16    20    21    2
    17    20    23    1
    18    23    24   ar
    19    24    25   ar
    20    25    32    1
    21    32    33    1
    22    32    34    1
    23    25    26   ar
    24    26    27   ar
    25    27    28   ar
    26    28    29   ar
    27    29    30   ar
    28    30    31   ar
    29     4     5    1
    30     5     6    1
    31    13    14    1
    32    14    15    1
    33    15    10    1
    34     6     1    1
    35     5     3    1
    36    31    23   ar
    37    31    26   ar
    38    19    22    1
@<TRIPOS>MOLECULE
*****
 34 38 0 0 0
SMALL
GASTEIGER

@<TRIPOS>ATOM
      1 N           3.0702    0.4500   17.8917 N.3     1  UNL1       -0.2727
      2 C           1.6095    0.3730   18.2236 C.3     1  UNL1        0.0721
      3 C           1.1903    1.7009   18.7816 C.3     1  UNL1        0.0191
      4 C           1.0714    3.1062   19.2924 C.3     1  UNL1        0.0224
      5 C           2.3920    2.5984   18.7945 C.3     1  UNL1        0.0191
      6 C           3.5539    1.8253   18.2445 C.3     1  UNL1        0.0721
      7 C           3.9014   -0.6545   17.3092 C.3     1  UNL1        0.0722
      8 C           7.3618   -4.0093   20.8828 C.2     1  UNL1        0.4050
      9 O           8.8334   -4.1193   20.6139 O.2     1  UNL1       -0.2262
     10 N           6.4967   -3.1707   19.9895 N.am    1  UNL1       -0.2460
     11 C           5.0252   -3.0607   20.2584 C.3     1  UNL1        0.0968
     12 C           4.1600   -2.2220   19.3650 C.3     1  UNL1        0.0231
     13 C           4.7665   -1.4932   18.2027 C.3     1  UNL1        0.0194
     14 C           6.2381   -1.6031   17.9336 C.3     1  UNL1        0.0231
     15 C           7.1032   -2.4418   18.8270 C.3     1  UNL1        0.0968
     16 C           6.6734   -4.0732   23.3872 C.3     1  UNL1        0.2573
     17 O           6.7553   -4.7381   22.0452 O.3     1  UNL1       -0.4304
     18 C           0.2402    4.2106   19.8749 C.3     1  UNL1        0.0898
     19 N          -0.0989    4.2034   21.3361 N.am    1  UNL1       -0.2996
     20 C          -1.2246    3.3499   21.8406 C.2     1  UNL1        0.2651
     21 O          -2.0112    2.5039   20.8840 O.2     1  UNL1       -0.2684
     22 H           0.4175    4.7587   21.9639 H       1  UNL1        0.1498
     23 C          -1.5636    3.3427   23.3018 C.ar    1  UNL1        0.1517
     24 N          -0.6340    2.9771   24.4208 N.ar    1  UNL1       -0.2260
     25 C          -1.3876    3.1083   25.7110 C.ar    1  UNL1        0.1239
     26 N          -2.7830    3.5550   25.3895 N.ar    1  UNL1       -0.2921
     27 C          -3.9686    3.8485   26.2602 C.ar    1  UNL1        0.0811
     28 C          -5.2630    4.2870   25.6419 C.ar    1  UNL1        0.0191
     29 C          -5.3717    4.4319   24.1528 C.ar    1  UNL1        0.0031
     30 C          -4.1861    4.1383   23.2822 C.ar    1  UNL1        0.0193
     31 C          -2.8918    3.6999   23.9005 C.ar    1  UNL1        0.0872
     32 C          -0.8418    2.8399   27.0822 C.3     1  UNL1        0.0573
     33 C          -0.9509    1.4673   27.6774 C.3     1  UNL1        0.0079
     34 C          -0.1869    3.9439   27.8581 C.3     1  UNL1        0.0079
@<TRIPOS>BOND
     1    16    17    1
     2    17     8    1
     3     8     9    2
     4     8    10   am
     5    10    11    1
     6    11    12    1
     7    12    13    1
     8    13     7    1
     9     7     1    1
    10     1     2    1
    11     3     2    1
    12     3     4    1
    13     4    18    1
    14    18    19    1
    15    19    20   am
    16    20    21    2
    17    20    23    1
    18    23    24   ar
    19    24    25   ar
    20    25    32    1
    21    32    33    1
    22    32    34    1
    23    25    26   ar
    24    26    27   ar
    25    27    28   ar
    26    28    29   ar
    27    29    30   ar
    28    30    31   ar
    29     4     5    1
    30     5     6    1
    31    13    14    1
    32    14    15    1
    33    15    10    1
    34     6     1    1
    35     5     3    1
    36    31    23   ar
    37    31    26   ar
    38    19    22    1
@<TRIPOS>MOLECULE
*****
 34 38 0 0 0
SMALL
GASTEIGER

@<TRIPOS>ATOM
      1 N           0.5718    2.2373   27.5532 N.3     1  UNL1       -0.2727
      2 C           1.7050    2.4936   26.6045 C.3     1  UNL1        0.0721
      3 C           1.2805    2.0354   25.2406 C.3     1  UNL1        0.0191
      4 C           0.5887    1.5003   24.0220 C.3     1  UNL1        0.0224
      5 C          -0.1151    1.4959   25.3466 C.3     1  UNL1        0.0191
      6 C          -0.5531    1.6207   26.7758 C.3     1  UNL1        0.0721
      7 C           0.5649    2.5437   29.0215 C.3     1  UNL1        0.0722
      8 C           3.7847   -0.8215   32.8040 C.2     1  UNL1        0.4050
      9 O           4.2876   -0.2333   34.0890 O.2     1  UNL1       -0.2262
     10 N           2.9798    0.0198   31.8585 N.am    1  UNL1       -0.2460
     11 C           2.4769   -0.5684   30.5735 C.3     1  UNL1        0.0968
     12 C           1.6719    0.2729   29.6278 C.3     1  UNL1        0.0231
     13 C           1.3698    1.7024   29.9671 C.3     1  UNL1        0.0194
     14 C           1.8727    2.2907   31.2521 C.3     1  UNL1        0.0231
     15 C           2.6776    1.4494   32.1978 C.3     1  UNL1        0.0968
     16 C           5.4864   -2.7739   32.5980 C.3     1  UNL1        0.2573
     17 O           4.0869   -2.2511   32.4647 O.3     1  UNL1       -0.4304
     18 C           0.5958    1.1938   22.5537 C.3     1  UNL1        0.0898
     19 N           1.8893    0.8913   21.8570 N.am    1  UNL1       -0.2996
     20 C           1.8812    0.4099   20.4363 C.2     1  UNL1        0.2651
     21 O           0.5797    0.2311   19.7125 O.2     1  UNL1       -0.2684
     22 H           2.7435    1.0087   22.3321 H       1  UNL1        0.1498
     23 C           3.1747    0.1074   19.7395 C.ar    1  UNL1        0.1517
     24 N           4.1759    1.1170   19.2617 N.ar    1  UNL1       -0.2260
     25 C           5.3140    0.3757   18.6252 C.ar    1  UNL1        0.1239
     26 N           5.0162   -1.0921   18.7097 N.ar    1  UNL1       -0.2921
     27 C           5.7782   -2.2990   18.2484 C.ar    1  UNL1        0.0811
     28 C           5.2180   -3.6717   18.4760 C.ar    1  UNL1        0.0191
     29 C           3.8958   -3.8375   19.1647 C.ar    1  UNL1        0.0031
     30 C           3.1338   -2.6306   19.6259 C.ar    1  UNL1        0.0193
     31 C           3.6940   -1.2579   19.3984 C.ar    1  UNL1        0.0872
     32 C           6.5355    0.9936   18.0118 C.3     1  UNL1        0.0573
     33 C           7.4761    1.7970   18.8603 C.3     1  UNL1        0.0079
     34 C           6.8164    0.8082   16.5502 C.3     1  UNL1        0.0079
@<TRIPOS>BOND
     1    16    17    1
     2    17     8    1
     3     8     9    2
     4     8    10   am
     5    10    11    1
     6    11    12    1
     7    12    13    1
     8    13     7    1
     9     7     1    1
    10     1     2    1
    11     3     2    1
    12     3     4    1
    13     4    18    1
    14    18    19    1
    15    19    20   am
    16    20    21    2
    17    20    23    1
    18    23    24   ar
    19    24    25   ar
    20    25    32    1
    21    32    33    1
    22    32    34    1
    23    25    26   ar
    24    26    27   ar
    25    27    28   ar
    26    28    29   ar
    27    29    30   ar
    28    30    31   ar
    29     4     5    1
    30     5     6    1
    31    13    14    1
    32    14    15    1
    33    15    10    1
    34     6     1    1
    35     5     3    1
    36    31    23   ar
    37    31    26   ar
    38    19    22    1
@<TRIPOS>MOLECULE
*****
 34 38 0 0 0
SMALL
GASTEIGER

@<TRIPOS>ATOM
      1 N           3.6477   -0.1616   27.4204 N.3     1  UNL1       -0.2727
      2 C           3.9564    1.1499   28.0799 C.3     1  UNL1        0.0721
      3 C           2.8953    1.4134   29.1069 C.3     1  UNL1        0.0191
      4 C           1.7183    1.4022   30.0367 C.3     1  UNL1        0.0224
      5 C           1.9310    0.2648   29.0822 C.3     1  UNL1        0.0191
      6 C           2.3959   -0.7086   28.0399 C.3     1  UNL1        0.0721
      7 C           4.4500   -0.8118   26.3325 C.3     1  UNL1        0.0722
      8 C           2.3478   -0.9261   20.7141 C.2     1  UNL1        0.4050
      9 O           2.8009   -1.9961   19.7654 O.2     1  UNL1       -0.2262
     10 N           2.8733   -0.8975   22.1186 N.am    1  UNL1       -0.2460
     11 C           2.4203    0.1724   23.0673 C.3     1  UNL1        0.0968
     12 C           2.9458    0.2010   24.4720 C.3     1  UNL1        0.0231
     13 C           3.9244   -0.8403   24.9279 C.3     1  UNL1        0.0194
     14 C           4.3776   -1.9103   23.9793 C.3     1  UNL1        0.0231
     15 C           3.8520   -1.9389   22.5747 C.3     1  UNL1        0.0968
     16 C           1.2593    0.4543   18.8011 C.3     1  UNL1        0.2573
     17 O           1.3692    0.1152   20.2580 O.3     1  UNL1       -0.4304
     18 C           0.9161    2.0525   31.1246 C.3     1  UNL1        0.0898
     19 N           1.2606    1.8013   32.5628 N.am    1  UNL1       -0.2996
     20 C           2.5094    2.3906   33.1489 C.2     1  UNL1        0.2651
     21 O           3.4135    3.2310   32.2968 O.2     1  UNL1       -0.2684
     22 H           0.6671    1.2497   33.1220 H       1  UNL1        0.1498
     23 C           2.8538    2.1394   34.5870 C.ar    1  UNL1        0.1517
     24 N           2.1259    2.6904   35.7772 N.ar    1  UNL1       -0.2260
     25 C           2.8089    2.1846   37.0132 C.ar    1  UNL1        0.1239
     26 N           3.9590    1.3211   36.5869 N.ar    1  UNL1       -0.2921
     27 C           4.9845    0.5567   37.3704 C.ar    1  UNL1        0.0811
     28 C           6.0378   -0.2357   36.6544 C.ar    1  UNL1        0.0191
     29 C           6.0655   -0.2637   35.1549 C.ar    1  UNL1        0.0031
     30 C           5.0400    0.5008   34.3714 C.ar    1  UNL1        0.0193
     31 C           3.9868    1.2932   35.0874 C.ar    1  UNL1        0.0872
     32 C           2.4117    2.4889   38.4272 C.3     1  UNL1        0.0573
     33 C           3.0438    3.6397   39.1528 C.3     1  UNL1        0.0079
     34 C           1.3824    1.6427   39.1158 C.3     1  UNL1        0.0079
@<TRIPOS>BOND
     1    16    17    1
     2    17     8    1
     3     8     9    2
     4     8    10   am
     5    10    11    1
     6    11    12    1
     7    12    13    1
     8    13     7    1
     9     7     1    1
    10     1     2    1
    11     3     2    1
    12     3     4    1
    13     4    18    1
    14    18    19    1
    15    19    20   am
    16    20    21    2
    17    20    23    1
    18    23    24   ar
    19    24    25   ar
    20    25    32    1
    21    32    33    1
    22    32    34    1
    23    25    26   ar
    24    26    27   ar
    25    27    28   ar
    26    28    29   ar
    27    29    30   ar
    28    30    31   ar
    29     4     5    1
    30     5     6    1
    31    13    14    1
    32    14    15    1
    33    15    10    1
    34     6     1    1
    35     5     3    1
    36    31    23   ar
    37    31    26   ar
    38    19    22    1
@<TRIPOS>MOLECULE
*****
 34 38 0 0 0
SMALL
GASTEIGER

@<TRIPOS>ATOM
      1 N           7.7329   -4.1671   27.7141 N.3     1  UNL1       -0.2727
      2 C           8.3524   -3.2520   26.6999 C.3     1  UNL1        0.0721
      3 C           7.8192   -3.6283   25.3492 C.3     1  UNL1        0.0191
      4 C           7.1263   -4.2218   24.1586 C.3     1  UNL1        0.0224
      5 C           6.8703   -4.7760   25.5288 C.3     1  UNL1        0.0191
      6 C           6.8169   -5.1090   26.9904 C.3     1  UNL1        0.0721
      7 C           7.9851   -4.1443   29.1926 C.3     1  UNL1        0.0722
      8 C           4.1501   -1.3273   32.8473 C.2     1  UNL1        0.4050
      9 O           3.9121   -1.8511   34.2326 O.2     1  UNL1       -0.2262
     10 N           5.1088   -2.0316   31.9337 N.am    1  UNL1       -0.2460
     11 C           5.3469   -1.5078   30.5484 C.3     1  UNL1        0.0968
     12 C           6.3056   -2.2120   29.6347 C.3     1  UNL1        0.0231
     13 C           7.0264   -3.4401   30.1063 C.3     1  UNL1        0.0194
     14 C           6.7884   -3.9639   31.4916 C.3     1  UNL1        0.0231
     15 C           5.8296   -3.2597   32.4052 C.3     1  UNL1        0.0968
     16 C           3.2028    1.0456   33.3179 C.3     1  UNL1        0.2573
     17 O           3.4293   -0.0992   32.3757 O.3     1  UNL1       -0.4304
     18 C           6.8741   -4.2445   22.6802 C.3     1  UNL1        0.0898
     19 N           6.1399   -3.1112   22.0271 N.am    1  UNL1       -0.2996
     20 C           5.2878   -3.3665   20.8193 C.2     1  UNL1        0.2651
     21 O           5.1700   -4.7551   20.2646 O.2     1  UNL1       -0.2684
     22 H           6.2172   -2.1998   22.3913 H       1  UNL1        0.1498
     23 C           4.5535   -2.2332   20.1663 C.ar    1  UNL1        0.1517
     24 N           3.1234   -1.8523   20.4102 N.ar    1  UNL1       -0.2260
     25 C           2.8066   -0.6654   19.5493 C.ar    1  UNL1        0.1239
     26 N           4.0409   -0.3128   18.7734 N.ar    1  UNL1       -0.2921
     27 C           4.3212    0.7654   17.7690 C.ar    1  UNL1        0.0811
     28 C           5.6812    0.8746   17.1459 C.ar    1  UNL1        0.0191
     29 C           6.7610   -0.0943   17.5272 C.ar    1  UNL1        0.0031
     30 C           6.4807   -1.1725   18.5316 C.ar    1  UNL1        0.0193
     31 C           5.1206   -1.2817   19.1547 C.ar    1  UNL1        0.0872
     32 C           1.4870    0.0442   19.4771 C.3     1  UNL1        0.0573
     33 C           0.5133   -0.0653   20.6129 C.3     1  UNL1        0.0079
     34 C           1.1411    0.8633   18.2691 C.3     1  UNL1        0.0079
@<TRIPOS>BOND
     1    16    17    1
     2    17     8    1
     3     8     9    2
     4     8    10   am
     5    10    11    1
     6    11    12    1
     7    12    13    1
     8    13     7    1
     9     7     1    1
    10     1     2    1
    11     3     2    1
    12     3     4    1
    13     4    18    1
    14    18    19    1
    15    19    20   am
    16    20    21    2
    17    20    23    1
    18    23    24   ar
    19    24    25   ar
    20    25    32    1
    21    32    33    1
    22    32    34    1
    23    25    26   ar
    24    26    27   ar
    25    27    28   ar
    26    28    29   ar
    27    29    30   ar
    28    30    31   ar
    29     4     5    1
    30     5     6    1
    31    13    14    1
    32    14    15    1
    33    15    10    1
    34     6     1    1
    35     5     3    1
    36    31    23   ar
    37    31    26   ar
    38    19    22    1
