@<TRIPOS>MOLECULE
*****
 22 24 0 0 0
SMALL
GASTEIGER

@<TRIPOS>ATOM
      1 C          -7.6269  -18.4454   22.1627 C.3     1  UNL1        0.1753
      2 O          -8.2876  -19.7025   21.6798 O.3     1  UNL1       -0.3460
      3 C          -9.7761  -19.7460   21.4997 C.3     1  UNL1        0.1685
      4 C         -10.6040  -18.5323   21.8025 C.ar    1  UNL1        0.0067
      5 C         -12.0925  -18.5757   21.6224 C.ar    1  UNL1       -0.0021
      6 C         -12.9203  -17.3620   21.9253 C.ar    1  UNL1       -0.0003
      7 C         -12.2596  -16.1050   22.4082 C.ar    1  UNL1       -0.0002
      8 C         -10.7711  -16.0615   22.5883 C.ar    1  UNL1       -0.0010
      9 C          -9.9433  -17.2752   22.2854 C.ar    1  UNL1        0.0181
     10 C          -8.4547  -17.2318   22.4655 C.3     1  UNL1        0.2161
     11 C          -6.1384  -18.4020   22.3428 C.3     1  UNL1        0.1027
     12 C          -4.8893  -19.9537   20.6749 C.3     1  UNL1        0.0859
     13 N          -5.2342  -18.5764   21.1587 N.3     1  UNL1       -0.2942
     14 H          -5.6757  -18.0918   20.3772 H       1  UNL1        0.1234
     15 O          -7.7940  -15.9747   22.9485 O.3     1  UNL1       -0.4725
     16 C          -7.4756  -15.8065   24.4046 C.ar    1  UNL1        0.1349
     17 C          -8.5622  -15.9396   25.4302 C.ar    1  UNL1        0.0366
     18 C          -8.2437  -15.7714   26.8863 C.ar    1  UNL1        0.0031
     19 C          -6.8388  -15.4701   27.3169 C.ar    1  UNL1       -0.0001
     20 C          -5.7523  -15.3370   26.2913 C.ar    1  UNL1       -0.0013
     21 C          -6.0707  -15.5052   24.8351 C.ar    1  UNL1        0.0121
     22 C          -4.9842  -15.3721   23.8096 C.3     1  UNL1        0.0342
@<TRIPOS>BOND
     1    12    13    1
     2    13    11    1
     3     1    11    1
     4     1     2    1
     5     2     3    1
     6     3     4    1
     7     4     5   ar
     8     5     6   ar
     9     6     7   ar
    10     7     8   ar
    11     8     9   ar
    12     9    10    1
    13    10    15    1
    14    15    16    1
    15    16    17   ar
    16    17    18   ar
    17    18    19   ar
    18    19    20   ar
    19    20    21   ar
    20    21    22    1
    21    10     1    1
    22    21    16   ar
    23     9     4   ar
    24    13    14    1
@<TRIPOS>MOLECULE
*****
 22 24 0 0 0
SMALL
GASTEIGER

@<TRIPOS>ATOM
      1 C          -6.8908  -16.5009   23.0862 C.3     1  UNL1        0.1753
      2 O          -5.4950  -16.9345   23.4233 O.3     1  UNL1       -0.3460
      3 C          -4.9116  -18.1550   22.7752 C.3     1  UNL1        0.1685
      4 C          -5.7240  -18.9418   21.7898 C.ar    1  UNL1        0.0067
      5 C          -5.1406  -20.1622   21.1416 C.ar    1  UNL1       -0.0021
      6 C          -5.9531  -20.9490   20.1563 C.ar    1  UNL1       -0.0003
      7 C          -7.3489  -20.5154   19.8191 C.ar    1  UNL1       -0.0002
      8 C          -7.9322  -19.2949   20.4673 C.ar    1  UNL1       -0.0010
      9 C          -7.1198  -18.5082   21.4526 C.ar    1  UNL1        0.0181
     10 C          -7.7032  -17.2877   22.1008 C.3     1  UNL1        0.2161
     11 C          -7.4742  -15.2804   23.7344 C.3     1  UNL1        0.1027
     12 C          -6.4319  -15.1720   26.1117 C.3     1  UNL1        0.0859
     13 N          -6.6918  -14.5385   24.7772 N.3     1  UNL1       -0.2942
     14 H          -5.7811  -14.3289   24.3684 H       1  UNL1        0.1234
     15 O          -9.0990  -16.8540   21.7637 O.3     1  UNL1       -0.4725
     16 C         -10.2605  -17.3887   22.5478 C.ar    1  UNL1        0.1349
     17 C         -10.0194  -18.2345   23.7629 C.ar    1  UNL1        0.0366
     18 C         -11.1809  -18.7693   24.5470 C.ar    1  UNL1        0.0031
     19 C         -12.5836  -18.4583   24.1160 C.ar    1  UNL1       -0.0001
     20 C         -12.8248  -17.6125   22.9009 C.ar    1  UNL1       -0.0013
     21 C         -11.6632  -17.0777   22.1168 C.ar    1  UNL1        0.0121
     22 C         -11.9044  -16.2320   20.9017 C.3     1  UNL1        0.0342
@<TRIPOS>BOND
     1    12    13    1
     2    13    11    1
     3     1    11    1
     4     1     2    1
     5     2     3    1
     6     3     4    1
     7     4     5   ar
     8     5     6   ar
     9     6     7   ar
    10     7     8   ar
    11     8     9   ar
    12     9    10    1
    13    10    15    1
    14    15    16    1
    15    16    17   ar
    16    17    18   ar
    17    18    19   ar
    18    19    20   ar
    19    20    21   ar
    20    21    22    1
    21    10     1    1
    22    21    16   ar
    23     9     4   ar
    24    13    14    1
@<TRIPOS>MOLECULE
*****
 22 24 0 0 0
SMALL
GASTEIGER

@<TRIPOS>ATOM
      1 C          -7.3387  -17.3639   22.7760 C.3     1  UNL1        0.1753
      2 O          -6.0504  -16.5961   22.7468 O.3     1  UNL1       -0.3460
      3 C          -5.6170  -15.8123   23.9500 C.3     1  UNL1        0.1685
      4 C          -6.4720  -15.7962   25.1825 C.ar    1  UNL1        0.0067
      5 C          -6.0386  -15.0123   26.3857 C.ar    1  UNL1       -0.0021
      6 C          -6.8935  -14.9962   27.6180 C.ar    1  UNL1       -0.0003
      7 C          -8.1818  -15.7640   27.6472 C.ar    1  UNL1       -0.0002
      8 C          -8.6152  -16.5478   26.4440 C.ar    1  UNL1       -0.0010
      9 C          -7.7602  -16.5639   25.2117 C.ar    1  UNL1        0.0181
     10 C          -8.1936  -17.3478   24.0084 C.3     1  UNL1        0.2161
     11 C          -7.7720  -18.1478   21.5727 C.3     1  UNL1        0.1027
     12 C          -5.7635  -19.3538   20.4497 C.3     1  UNL1        0.0859
     13 N          -6.8405  -18.3106   20.4083 N.3     1  UNL1       -0.2942
     14 H          -7.4197  -18.5174   19.5946 H       1  UNL1        0.1234
     15 O          -9.4819  -18.1156   24.0376 O.3     1  UNL1       -0.4725
     16 C         -10.6280  -17.6908   23.1681 C.ar    1  UNL1        0.1349
     17 C         -11.0798  -16.2604   23.1685 C.ar    1  UNL1        0.0366
     18 C         -12.2259  -15.8357   22.2991 C.ar    1  UNL1        0.0031
     19 C         -12.9202  -16.8412   21.4292 C.ar    1  UNL1       -0.0001
     20 C         -12.4685  -18.2715   21.4287 C.ar    1  UNL1       -0.0013
     21 C         -11.3223  -18.6964   22.2982 C.ar    1  UNL1        0.0121
     22 C         -10.8706  -20.1267   22.2978 C.3     1  UNL1        0.0342
@<TRIPOS>BOND
     1    12    13    1
     2    13    11    1
     3     1    11    1
     4     1     2    1
     5     2     3    1
     6     3     4    1
     7     4     5   ar
     8     5     6   ar
     9     6     7   ar
    10     7     8   ar
    11     8     9   ar
    12     9    10    1
    13    10    15    1
    14    15    16    1
    15    16    17   ar
    16    17    18   ar
    17    18    19   ar
    18    19    20   ar
    19    20    21   ar
    20    21    22    1
    21    10     1    1
    22    21    16   ar
    23     9     4   ar
    24    13    14    1
@<TRIPOS>MOLECULE
*****
 22 24 0 0 0
SMALL
GASTEIGER

@<TRIPOS>ATOM
      1 C          -6.0794  -16.5280   23.6293 C.3     1  UNL1        0.1753
      2 O          -4.6496  -16.6334   24.0703 O.3     1  UNL1       -0.3460
      3 C          -3.7455  -17.6546   23.4460 C.3     1  UNL1        0.1685
      4 C          -4.2712  -18.5704   22.3806 C.ar    1  UNL1        0.0067
      5 C          -3.3671  -19.5915   21.7562 C.ar    1  UNL1       -0.0021
      6 C          -3.8928  -20.5072   20.6909 C.ar    1  UNL1       -0.0003
      7 C          -5.3226  -20.4018   20.2499 C.ar    1  UNL1       -0.0002
      8 C          -6.2267  -19.3807   20.8742 C.ar    1  UNL1       -0.0010
      9 C          -5.7010  -18.4650   21.9395 C.ar    1  UNL1        0.0181
     10 C          -6.6051  -17.4438   22.5639 C.3     1  UNL1        0.2161
     11 C          -6.9836  -15.5068   24.2536 C.3     1  UNL1        0.1027
     12 C          -6.4422  -15.3662   26.7907 C.3     1  UNL1        0.0859
     13 N          -6.5165  -14.7173   25.4404 N.3     1  UNL1       -0.2942
     14 H          -5.5776  -14.3844   25.2216 H       1  UNL1        0.1234
     15 O          -8.0350  -17.3384   22.1229 O.3     1  UNL1       -0.4725
     16 C          -9.0653  -18.2694   22.6899 C.ar    1  UNL1        0.1349
     17 C          -9.2732  -18.3441   24.1736 C.ar    1  UNL1        0.0366
     18 C         -10.3035  -19.2752   24.7406 C.ar    1  UNL1        0.0031
     19 C         -11.1260  -20.1315   23.8240 C.ar    1  UNL1       -0.0001
     20 C         -10.9181  -20.0568   22.3403 C.ar    1  UNL1       -0.0013
     21 C          -9.8878  -19.1258   21.7733 C.ar    1  UNL1        0.0121
     22 C          -9.6799  -19.0511   20.2897 C.3     1  UNL1        0.0342
@<TRIPOS>BOND
     1    12    13    1
     2    13    11    1
     3     1    11    1
     4     1     2    1
     5     2     3    1
     6     3     4    1
     7     4     5   ar
     8     5     6   ar
     9     6     7   ar
    10     7     8   ar
    11     8     9   ar
    12     9    10    1
    13    10    15    1
    14    15    16    1
    15    16    17   ar
    16    17    18   ar
    17    18    19   ar
    18    19    20   ar
    19    20    21   ar
    20    21    22    1
    21    10     1    1
    22    21    16   ar
    23     9     4   ar
    24    13    14    1
@<TRIPOS>MOLECULE
*****
 22 24 0 0 0
SMALL
GASTEIGER

@<TRIPOS>ATOM
      1 C          -7.2855  -16.8624   22.8912 C.3     1  UNL1        0.1753
      2 O          -5.9208  -16.6830   23.4874 O.3     1  UNL1       -0.3460
      3 C          -4.7965  -17.5847   23.0720 C.3     1  UNL1        0.1685
      4 C          -5.0368  -18.6659   22.0602 C.ar    1  UNL1        0.0067
      5 C          -3.9124  -19.5676   21.6448 C.ar    1  UNL1       -0.0021
      6 C          -4.1527  -20.6487   20.6331 C.ar    1  UNL1       -0.0003
      7 C          -5.5174  -20.8280   20.0369 C.ar    1  UNL1       -0.0002
      8 C          -6.6418  -19.9263   20.4524 C.ar    1  UNL1       -0.0010
      9 C          -6.4015  -18.8452   21.4640 C.ar    1  UNL1        0.0181
     10 C          -7.5259  -17.9434   21.8795 C.3     1  UNL1        0.2161
     11 C          -8.4099  -15.9606   23.3067 C.3     1  UNL1        0.1027
     12 C          -8.1753  -15.4611   25.8454 C.3     1  UNL1        0.0859
     13 N          -8.9563  -16.0369   24.7016 N.3     1  UNL1       -0.2942
     14 H          -9.8580  -15.5602   24.6911 H       1  UNL1        0.1234
     15 O          -8.8905  -18.1228   21.2833 O.3     1  UNL1       -0.4725
     16 C         -10.0954  -18.1897   22.1743 C.ar    1  UNL1        0.1349
     17 C         -11.2259  -17.2229   21.9810 C.ar    1  UNL1        0.0366
     18 C         -12.4307  -17.2899   22.8720 C.ar    1  UNL1        0.0031
     19 C         -12.5051  -18.3236   23.9563 C.ar    1  UNL1       -0.0001
     20 C         -11.3747  -19.2904   24.1497 C.ar    1  UNL1       -0.0013
     21 C         -10.1698  -19.2235   23.2587 C.ar    1  UNL1        0.0121
     22 C          -9.0394  -20.1903   23.4520 C.3     1  UNL1        0.0342
@<TRIPOS>BOND
     1    12    13    1
     2    13    11    1
     3     1    11    1
     4     1     2    1
     5     2     3    1
     6     3     4    1
     7     4     5   ar
     8     5     6   ar
     9     6     7   ar
    10     7     8   ar
    11     8     9   ar
    12     9    10    1
    13    10    15    1
    14    15    16    1
    15    16    17   ar
    16    17    18   ar
    17    18    19   ar
    18    19    20   ar
    19    20    21   ar
    20    21    22    1
    21    10     1    1
    22    21    16   ar
    23     9     4   ar
    24    13    14    1
@<TRIPOS>MOLECULE
*****
 22 24 0 0 0
SMALL
GASTEIGER

@<TRIPOS>ATOM
      1 C          -7.8173  -15.5845   22.6269 C.3     1  UNL1        0.1753
      2 O          -6.3722  -15.2126   22.7798 O.3     1  UNL1       -0.3460
      3 C          -5.7538  -15.1516   24.1450 C.3     1  UNL1        0.1685
      4 C          -6.5806  -15.4625   25.3574 C.ar    1  UNL1        0.0067
      5 C          -5.9622  -15.4015   26.7226 C.ar    1  UNL1       -0.0021
      6 C          -6.7890  -15.7123   27.9350 C.ar    1  UNL1       -0.0003
      7 C          -8.2341  -16.0842   27.7821 C.ar    1  UNL1       -0.0002
      8 C          -8.8525  -16.1452   26.4169 C.ar    1  UNL1       -0.0010
      9 C          -8.0257  -15.8343   25.2045 C.ar    1  UNL1        0.0181
     10 C          -8.6441  -15.8954   23.8392 C.3     1  UNL1        0.2161
     11 C          -8.4357  -15.6455   21.2616 C.3     1  UNL1        0.1027
     12 C          -8.9088  -13.5624   19.7829 C.3     1  UNL1        0.0859
     13 N          -9.3636  -14.5573   20.8092 N.3     1  UNL1       -0.2942
     14 H         -10.1914  -15.0156   20.4284 H       1  UNL1        0.1234
     15 O         -10.0892  -16.2672   23.6863 O.3     1  UNL1       -0.4725
     16 C         -10.4638  -17.5908   23.0883 C.ar    1  UNL1        0.1349
     17 C          -9.7653  -18.8407   23.5357 C.ar    1  UNL1        0.0366
     18 C         -10.1399  -20.1643   22.9377 C.ar    1  UNL1        0.0031
     19 C         -11.2130  -20.2381   21.8922 C.ar    1  UNL1       -0.0001
     20 C         -11.9115  -18.9884   21.4448 C.ar    1  UNL1       -0.0013
     21 C         -11.5369  -17.6647   22.0428 C.ar    1  UNL1        0.0121
     22 C         -12.2353  -16.4149   21.5954 C.3     1  UNL1        0.0342
@<TRIPOS>BOND
     1    12    13    1
     2    13    11    1
     3     1    11    1
     4     1     2    1
     5     2     3    1
     6     3     4    1
     7     4     5   ar
     8     5     6   ar
     9     6     7   ar
    10     7     8   ar
    11     8     9   ar
    12     9    10    1
    13    10    15    1
    14    15    16    1
    15    16    17   ar
    16    17    18   ar
    17    18    19   ar
    18    19    20   ar
    19    20    21   ar
    20    21    22    1
    21    10     1    1
    22    21    16   ar
    23     9     4   ar
    24    13    14    1
@<TRIPOS>MOLECULE
*****
 22 24 0 0 0
SMALL
GASTEIGER

@<TRIPOS>ATOM
      1 C          -7.6071  -16.3931   23.9476 C.3     1  UNL1        0.1753
      2 O          -8.3571  -16.3375   25.2455 O.3     1  UNL1       -0.3460
      3 C          -9.5054  -17.2713   25.4889 C.3     1  UNL1        0.1685
      4 C          -9.9038  -18.2609   24.4343 C.ar    1  UNL1        0.0067
      5 C         -11.0521  -19.1948   24.6777 C.ar    1  UNL1       -0.0021
      6 C         -11.4504  -20.1844   23.6232 C.ar    1  UNL1       -0.0003
      7 C         -10.7005  -20.2401   22.3253 C.ar    1  UNL1       -0.0002
      8 C          -9.5522  -19.3062   22.0820 C.ar    1  UNL1       -0.0010
      9 C          -9.1538  -18.3166   23.1365 C.ar    1  UNL1        0.0181
     10 C          -8.0055  -17.3827   22.8931 C.3     1  UNL1        0.2161
     11 C          -6.4588  -15.4592   23.7043 C.3     1  UNL1        0.1027
     12 C          -5.2614  -15.2336   25.9989 C.3     1  UNL1        0.0859
     13 N          -5.9403  -14.6014   24.8202 N.3     1  UNL1       -0.2942
     14 H          -5.2695  -13.9538   24.4065 H       1  UNL1        0.1234
     15 O          -7.2555  -17.4384   21.5953 O.3     1  UNL1       -0.4725
     16 C          -6.1446  -18.4296   21.4129 C.ar    1  UNL1        0.1349
     17 C          -4.9494  -18.3917   22.3185 C.ar    1  UNL1        0.0366
     18 C          -3.8385  -19.3829   22.1361 C.ar    1  UNL1        0.0031
     19 C          -3.9227  -20.4121   21.0482 C.ar    1  UNL1       -0.0001
     20 C          -5.1179  -20.4501   20.1426 C.ar    1  UNL1       -0.0013
     21 C          -6.2289  -19.4588   20.3249 C.ar    1  UNL1        0.0121
     22 C          -7.4240  -19.4968   19.4193 C.3     1  UNL1        0.0342
@<TRIPOS>BOND
     1    12    13    1
     2    13    11    1
     3     1    11    1
     4     1     2    1
     5     2     3    1
     6     3     4    1
     7     4     5   ar
     8     5     6   ar
     9     6     7   ar
    10     7     8   ar
    11     8     9   ar
    12     9    10    1
    13    10    15    1
    14    15    16    1
    15    16    17   ar
    16    17    18   ar
    17    18    19   ar
    18    19    20   ar
    19    20    21   ar
    20    21    22    1
    21    10     1    1
    22    21    16   ar
    23     9     4   ar
    24    13    14    1
@<TRIPOS>MOLECULE
*****
 22 24 0 0 0
SMALL
GASTEIGER

@<TRIPOS>ATOM
      1 C          -7.4118  -16.6320   22.9777 C.3     1  UNL1        0.1753
      2 O          -8.5624  -15.6936   22.7637 O.3     1  UNL1       -0.3460
      3 C          -9.6780  -16.0741   21.8361 C.3     1  UNL1        0.1685
      4 C          -9.6432  -17.3930   21.1223 C.ar    1  UNL1        0.0067
      5 C         -10.7588  -17.7734   20.1947 C.ar    1  UNL1       -0.0021
      6 C         -10.7239  -19.0922   19.4810 C.ar    1  UNL1       -0.0003
      7 C          -9.5734  -20.0306   19.6949 C.ar    1  UNL1       -0.0002
      8 C          -8.4578  -19.6502   20.6225 C.ar    1  UNL1       -0.0010
      9 C          -8.4926  -18.3313   21.3363 C.ar    1  UNL1        0.0181
     10 C          -7.3770  -17.9508   22.2640 C.3     1  UNL1        0.2161
     11 C          -6.2962  -16.2515   23.9054 C.3     1  UNL1        0.1027
     12 C          -5.5133  -15.2195   26.1574 C.3     1  UNL1        0.0859
     13 N          -6.5845  -15.4344   25.1297 N.3     1  UNL1       -0.2942
     14 H          -6.8719  -14.5107   24.8063 H       1  UNL1        0.1234
     15 O          -6.2265  -18.8892   22.4779 O.3     1  UNL1       -0.4725
     16 C          -4.9955  -18.7724   21.6288 C.ar    1  UNL1        0.1349
     17 C          -5.0590  -19.1007   20.1665 C.ar    1  UNL1        0.0366
     18 C          -3.8281  -18.9839   19.3174 C.ar    1  UNL1        0.0031
     19 C          -2.5335  -18.5388   19.9305 C.ar    1  UNL1       -0.0001
     20 C          -2.4699  -18.2105   21.3927 C.ar    1  UNL1       -0.0013
     21 C          -3.7009  -18.3273   22.2419 C.ar    1  UNL1        0.0121
     22 C          -3.6373  -17.9990   23.7041 C.3     1  UNL1        0.0342
@<TRIPOS>BOND
     1    12    13    1
     2    13    11    1
     3     1    11    1
     4     1     2    1
     5     2     3    1
     6     3     4    1
     7     4     5   ar
     8     5     6   ar
     9     6     7   ar
    10     7     8   ar
    11     8     9   ar
    12     9    10    1
    13    10    15    1
    14    15    16    1
    15    16    17   ar
    16    17    18   ar
    17    18    19   ar
    18    19    20   ar
    19    20    21   ar
    20    21    22    1
    21    10     1    1
    22    21    16   ar
    23     9     4   ar
    24    13    14    1
@<TRIPOS>MOLECULE
*****
 22 24 0 0 0
SMALL
GASTEIGER

@<TRIPOS>ATOM
      1 C          -6.3212  -17.8858   22.3719 C.3     1  UNL1        0.1753
      2 O          -5.5208  -18.4748   21.2484 O.3     1  UNL1       -0.3460
      3 C          -6.2156  -19.1829   20.1233 C.3     1  UNL1        0.1685
      4 C          -7.7110  -19.3019   20.1217 C.ar    1  UNL1        0.0067
      5 C          -8.4058  -20.0099   18.9966 C.ar    1  UNL1       -0.0021
      6 C          -9.9010  -20.1288   18.9950 C.ar    1  UNL1       -0.0003
      7 C         -10.7014  -19.5397   20.1186 C.ar    1  UNL1       -0.0002
      8 C         -10.0066  -18.8317   21.2437 C.ar    1  UNL1       -0.0010
      9 C          -8.5114  -18.7128   21.2452 C.ar    1  UNL1        0.0181
     10 C          -7.8165  -18.0047   22.3704 C.3     1  UNL1        0.2161
     11 C          -5.6263  -17.1777   23.4971 C.3     1  UNL1        0.1027
     12 C          -6.0436  -15.2377   25.1739 C.3     1  UNL1        0.0859
     13 N          -5.9133  -15.7296   23.7629 N.3     1  UNL1       -0.2942
     14 H          -5.1574  -15.1960   23.3337 H       1  UNL1        0.1234
     15 O          -8.6169  -17.4156   23.4939 O.3     1  UNL1       -0.4725
     16 C         -10.1155  -17.4195   23.4296 C.ar    1  UNL1        0.1349
     17 C         -10.8361  -16.3514   22.6616 C.ar    1  UNL1        0.0366
     18 C         -12.3347  -16.3553   22.5973 C.ar    1  UNL1        0.0031
     19 C         -13.1128  -17.4274   23.3011 C.ar    1  UNL1       -0.0001
     20 C         -12.3922  -18.4955   24.0691 C.ar    1  UNL1       -0.0013
     21 C         -10.8936  -18.4916   24.1334 C.ar    1  UNL1        0.0121
     22 C         -10.1731  -19.5597   24.9014 C.3     1  UNL1        0.0342
@<TRIPOS>BOND
     1    12    13    1
     2    13    11    1
     3     1    11    1
     4     1     2    1
     5     2     3    1
     6     3     4    1
     7     4     5   ar
     8     5     6   ar
     9     6     7   ar
    10     7     8   ar
    11     8     9   ar
    12     9    10    1
    13    10    15    1
    14    15    16    1
    15    16    17   ar
    16    17    18   ar
    17    18    19   ar
    18    19    20   ar
    19    20    21   ar
    20    21    22    1
    21    10     1    1
    22    21    16   ar
    23     9     4   ar
    24    13    14    1
