@<TRIPOS>MOLECULE
*****
 31 33 0 0 0
SMALL
GASTEIGER

@<TRIPOS>ATOM
      1 C          -7.7392  -18.0811   22.2683 C.2     1  UNL1       -0.0034
      2 C          -8.5238  -17.2157   23.2092 C.2     1  UNL1        0.0769
      3 N          -9.9403  -17.1630   22.7185 N.2     1  UNL1       -0.2497
      4 C         -10.0311  -17.9959   21.4743 C.2     1  UNL1        0.0631
      5 C         -11.1767  -18.3110   20.5588 C.3     1  UNL1        0.0724
      6 C         -10.9619  -19.1934   19.3650 C.2     1  UNL1       -0.0095
      7 C          -9.6016  -19.7608   19.0867 C.2     1  UNL1        0.0646
      8 C          -8.4559  -19.4458   20.0023 C.2     1  UNL1        0.0109
      9 C          -8.6707  -18.5633   21.1960 C.2     1  UNL1        0.0120
     10 C          -7.9863  -16.5243   24.4271 C.ar    1  UNL1        0.0175
     11 C          -6.6709  -15.8064   24.3627 C.ar    1  UNL1        0.0038
     12 C          -6.1334  -15.1150   25.5806 C.ar    1  UNL1        0.0297
     13 C          -6.9114  -15.1415   26.8627 C.ar    1  UNL1        0.1401
     14 F          -6.3739  -14.4501   28.0806 F       1  UNL1       -0.2042
     15 C          -8.2268  -15.8594   26.9271 C.ar    1  UNL1        0.0297
     16 C          -8.7643  -16.5508   25.7092 C.ar    1  UNL1        0.0038
     17 C          -9.3868  -20.6433   17.8929 C.1     1  UNL1        0.1001
     18 N          -9.1721  -21.5258   16.6991 N.1     1  UNL1       -0.1908
     19 C          -6.2793  -18.4071   22.3800 C.3     1  UNL1        0.0284
     20 C          -5.8295  -19.8381   22.3981 C.3     1  UNL1        0.0143
     21 C          -5.4541  -20.5224   21.1172 C.3     1  UNL1        0.0870
     22 N          -3.4860  -18.8565   20.7998 N.am    1  UNL1       -0.1749
     23 C          -4.2514  -20.0642   20.3467 C.2     1  UNL1        0.2417
     24 O          -3.8143  -20.8137   19.1231 O.2     1  UNL1       -0.2735
     25 H          -3.7729  -18.3646   21.6029 H       1  UNL1        0.1776
     26 S          -2.2832  -18.3981   20.0293 S.O2    1  UNL1        0.1151
     27 O          -3.1380  -17.4234   19.2749 O.2     1  UNL1       -0.1378
     28 O          -1.4286  -19.3729   20.7838 O.2     1  UNL1       -0.1378
     29 C           0.2074  -17.6607   19.9753 C.3     1  UNL1        0.1163
     30 N          -1.0806  -17.9399   19.2589 N.3     1  UNL1       -0.1398
     31 C          -1.1659  -17.7609   17.7721 C.3     1  UNL1        0.1163
@<TRIPOS>BOND
     1    29    30    1
     2    30    31    1
     3    30    26    1
     4    26    27    2
     5    26    28    2
     6    26    22    1
     7    22    23   am
     8    23    24    2
     9    23    21    1
    10    21    20    1
    11    20    19    1
    12    19     1    1
    13     1     2    2
    14     2    10    1
    15    10    11   ar
    16    11    12   ar
    17    12    13   ar
    18    13    14    1
    19    13    15   ar
    20    15    16   ar
    21     2     3    1
    22     3     4    2
    23     4     5    1
    24     5     6    1
    25     6     7    2
    26     7    17    1
    27    17    18    3
    28     7     8    1
    29     8     9    2
    30     9     1    1
    31    16    10   ar
    32     9     4    1
    33    22    25    1
@<TRIPOS>MOLECULE
*****
 31 33 0 0 0
SMALL
GASTEIGER

@<TRIPOS>ATOM
      1 C          -6.1064  -18.4369   22.6426 C.2     1  UNL1       -0.0034
      2 C          -7.3108  -19.2740   22.3287 C.2     1  UNL1        0.0769
      3 N          -6.9465  -20.2112   21.2157 N.2     1  UNL1       -0.2497
      4 C          -5.5170  -19.9534   20.8417 C.2     1  UNL1        0.0631
      5 C          -4.6210  -20.5755   19.8120 C.3     1  UNL1        0.0724
      6 C          -3.2058  -20.1009   19.6643 C.2     1  UNL1       -0.0095
      7 C          -2.6865  -19.0043   20.5462 C.2     1  UNL1        0.0646
      8 C          -3.5825  -18.3822   21.5758 C.2     1  UNL1        0.0109
      9 C          -4.9977  -18.8567   21.7236 C.2     1  UNL1        0.0120
     10 C          -8.6453  -19.1888   23.0084 C.ar    1  UNL1        0.0175
     11 C          -9.8617  -19.7667   22.3480 C.ar    1  UNL1        0.0038
     12 C         -11.1961  -19.6816   23.0277 C.ar    1  UNL1        0.0297
     13 C         -11.3141  -19.0184   24.3680 C.ar    1  UNL1        0.1401
     14 F         -12.6485  -18.9333   25.0477 F       1  UNL1       -0.2042
     15 C         -10.0977  -18.4405   25.0284 C.ar    1  UNL1        0.0297
     16 C          -8.7633  -18.5257   24.3487 C.ar    1  UNL1        0.0038
     17 C          -1.2712  -18.5297   20.3985 C.1     1  UNL1        0.1001
     18 N           0.1440  -18.0552   20.2507 N.1     1  UNL1       -0.1908
     19 C          -6.0249  -17.3676   23.6914 C.3     1  UNL1        0.0284
     20 C          -5.9821  -15.9233   23.2882 C.3     1  UNL1        0.0143
     21 C          -7.2230  -15.0846   23.3706 C.3     1  UNL1        0.0870
     22 N          -9.5830  -15.9757   22.7496 N.am    1  UNL1       -0.1749
     23 C          -8.3192  -15.2663   22.3631 C.2     1  UNL1        0.2417
     24 O          -8.1517  -14.7386   20.9690 O.2     1  UNL1       -0.2735
     25 H          -9.6930  -16.3221   23.6646 H       1  UNL1        0.1776
     26 S         -10.6794  -16.1575   21.7421 S.O2    1  UNL1        0.1151
     27 O          -9.6991  -16.7695   20.7858 O.2     1  UNL1       -0.1378
     28 O         -11.6596  -15.5455   22.6983 O.2     1  UNL1       -0.1378
     29 C         -11.6609  -15.7075   19.3790 C.3     1  UNL1        0.1163
     30 N         -11.7757  -16.3392   20.7346 N.3     1  UNL1       -0.1398
     31 C         -12.9869  -17.1527   21.0828 C.3     1  UNL1        0.1163
@<TRIPOS>BOND
     1    29    30    1
     2    30    31    1
     3    30    26    1
     4    26    27    2
     5    26    28    2
     6    26    22    1
     7    22    23   am
     8    23    24    2
     9    23    21    1
    10    21    20    1
    11    20    19    1
    12    19     1    1
    13     1     2    2
    14     2    10    1
    15    10    11   ar
    16    11    12   ar
    17    12    13   ar
    18    13    14    1
    19    13    15   ar
    20    15    16   ar
    21     2     3    1
    22     3     4    2
    23     4     5    1
    24     5     6    1
    25     6     7    2
    26     7    17    1
    27    17    18    3
    28     7     8    1
    29     8     9    2
    30     9     1    1
    31    16    10   ar
    32     9     4    1
    33    22    25    1
@<TRIPOS>MOLECULE
*****
 31 33 0 0 0
SMALL
GASTEIGER

@<TRIPOS>ATOM
      1 C          -8.4073  -17.8293   23.0934 C.2     1  UNL1       -0.0034
      2 C          -9.5000  -17.0985   23.8160 C.2     1  UNL1        0.0769
      3 N          -8.8827  -15.9366   24.5364 N.2     1  UNL1       -0.2497
      4 C          -7.4086  -15.9493   24.2592 C.2     1  UNL1        0.0631
      5 C          -6.2959  -15.0469   24.7035 C.3     1  UNL1        0.0724
      6 C          -4.8894  -15.3143   24.2560 C.2     1  UNL1       -0.0095
      7 C          -4.5956  -16.4840   23.3642 C.2     1  UNL1        0.0646
      8 C          -5.7083  -17.3864   22.9198 C.2     1  UNL1        0.0109
      9 C          -7.1148  -17.1191   23.3673 C.2     1  UNL1        0.0120
     10 C         -10.9544  -17.4652   23.8178 C.ar    1  UNL1        0.0175
     11 C         -11.9019  -16.7795   22.8786 C.ar    1  UNL1        0.0038
     12 C         -13.3564  -17.1462   22.8804 C.ar    1  UNL1        0.0297
     13 C         -13.8634  -18.1985   23.8214 C.ar    1  UNL1        0.1401
     14 F         -15.3179  -18.5652   23.8232 F       1  UNL1       -0.2042
     15 C         -12.9159  -18.8842   24.7606 C.ar    1  UNL1        0.0297
     16 C         -11.4615  -18.5175   24.7588 C.ar    1  UNL1        0.0038
     17 C          -3.1890  -16.7513   22.9167 C.1     1  UNL1        0.1001
     18 N          -1.7825  -17.0186   22.4693 N.1     1  UNL1       -0.1908
     19 C          -8.5774  -19.0551   22.2458 C.3     1  UNL1        0.0284
     20 C          -9.1237  -18.9346   20.8539 C.3     1  UNL1        0.0143
     21 C          -8.3880  -19.5546   19.7031 C.3     1  UNL1        0.0870
     22 N          -5.9547  -18.6581   19.8626 N.am    1  UNL1       -0.1749
     23 C          -6.9136  -19.8103   19.8061 C.2     1  UNL1        0.2417
     24 O          -6.3979  -21.2181   19.8525 O.2     1  UNL1       -0.2735
     25 H          -6.2932  -17.7341   19.8322 H       1  UNL1        0.1776
     26 S          -4.4802  -18.9138   19.9656 S.O2    1  UNL1        0.1151
     27 O          -4.2300  -17.9075   18.8818 O.2     1  UNL1       -0.1378
     28 O          -4.7304  -19.9201   21.0495 O.2     1  UNL1       -0.1378
     29 C          -2.0614  -18.5116   19.1068 C.3     1  UNL1        0.1163
     30 N          -3.0058  -19.1695   20.0686 N.3     1  UNL1       -0.1398
     31 C          -2.4757  -20.0833   21.1336 C.3     1  UNL1        0.1163
@<TRIPOS>BOND
     1    29    30    1
     2    30    31    1
     3    30    26    1
     4    26    27    2
     5    26    28    2
     6    26    22    1
     7    22    23   am
     8    23    24    2
     9    23    21    1
    10    21    20    1
    11    20    19    1
    12    19     1    1
    13     1     2    2
    14     2    10    1
    15    10    11   ar
    16    11    12   ar
    17    12    13   ar
    18    13    14    1
    19    13    15   ar
    20    15    16   ar
    21     2     3    1
    22     3     4    2
    23     4     5    1
    24     5     6    1
    25     6     7    2
    26     7    17    1
    27    17    18    3
    28     7     8    1
    29     8     9    2
    30     9     1    1
    31    16    10   ar
    32     9     4    1
    33    22    25    1
@<TRIPOS>MOLECULE
*****
 31 33 0 0 0
SMALL
GASTEIGER

@<TRIPOS>ATOM
      1 C           7.3624   -4.1947   23.0840 C.2     1  UNL1       -0.0034
      2 C           7.7235   -4.4378   21.6485 C.2     1  UNL1        0.0769
      3 N           8.4952   -5.7220   21.5758 N.2     1  UNL1       -0.2497
      4 C           8.6110   -6.2726   22.9663 C.2     1  UNL1        0.0631
      5 C           9.2635   -7.5116   23.5041 C.3     1  UNL1        0.0724
      6 C           9.2159   -7.8066   24.9740 C.2     1  UNL1       -0.0095
      7 C           8.5158   -6.8626   25.9061 C.2     1  UNL1        0.0646
      8 C           7.8633   -5.6237   25.3683 C.2     1  UNL1        0.0109
      9 C           7.9109   -5.3287   23.8984 C.2     1  UNL1        0.0120
     10 C           7.3743   -3.5522   20.4894 C.ar    1  UNL1        0.0175
     11 C           8.3279   -2.4810   20.0499 C.ar    1  UNL1        0.0038
     12 C           7.9787   -1.5954   18.8907 C.ar    1  UNL1        0.0297
     13 C           6.6758   -1.7809   18.1710 C.ar    1  UNL1        0.1401
     14 F           6.3265   -0.8952   17.0118 F       1  UNL1       -0.2042
     15 C           5.7222   -2.8520   18.6105 C.ar    1  UNL1        0.0297
     16 C           6.0714   -3.7377   19.7696 C.ar    1  UNL1        0.0038
     17 C           8.4682   -7.1577   27.3761 C.1     1  UNL1        0.1001
     18 N           8.4207   -7.4528   28.8459 N.1     1  UNL1       -0.1908
     19 C           6.5887   -3.0233   23.6123 C.3     1  UNL1        0.0284
     20 C           5.0888   -3.0469   23.5974 C.3     1  UNL1        0.0143
     21 C           4.3198   -1.7647   23.4764 C.3     1  UNL1        0.0870
     22 N           2.6854   -1.0681   21.5808 N.am    1  UNL1       -0.1749
     23 C           4.0801   -1.1587   22.1254 C.2     1  UNL1        0.2417
     24 O           5.2351   -0.6433   21.3189 O.2     1  UNL1       -0.2735
     25 H           1.9273   -1.4063   22.1102 H       1  UNL1        0.1776
     26 S           2.4456   -0.4620   20.2297 S.O2    1  UNL1        0.1151
     27 O           2.5682   -1.8178   19.5998 O.2     1  UNL1       -0.1378
     28 O           2.3230    0.8937   20.8597 O.2     1  UNL1       -0.1378
     29 C           3.1896   -0.0833   17.7694 C.3     1  UNL1        0.1163
     30 N           2.2059    0.1440   18.8788 N.3     1  UNL1       -0.1398
     31 C           0.9823    0.9775   18.6372 C.3     1  UNL1        0.1163
@<TRIPOS>BOND
     1    29    30    1
     2    30    31    1
     3    30    26    1
     4    26    27    2
     5    26    28    2
     6    26    22    1
     7    22    23   am
     8    23    24    2
     9    23    21    1
    10    21    20    1
    11    20    19    1
    12    19     1    1
    13     1     2    2
    14     2    10    1
    15    10    11   ar
    16    11    12   ar
    17    12    13   ar
    18    13    14    1
    19    13    15   ar
    20    15    16   ar
    21     2     3    1
    22     3     4    2
    23     4     5    1
    24     5     6    1
    25     6     7    2
    26     7    17    1
    27    17    18    3
    28     7     8    1
    29     8     9    2
    30     9     1    1
    31    16    10   ar
    32     9     4    1
    33    22    25    1
@<TRIPOS>MOLECULE
*****
 31 33 0 0 0
SMALL
GASTEIGER

@<TRIPOS>ATOM
      1 C          -1.0916    3.0433   22.8139 C.2     1  UNL1       -0.0034
      2 C          -1.2534    2.7376   21.3543 C.2     1  UNL1        0.0769
      3 N          -2.6722    3.0391   20.9722 N.2     1  UNL1       -0.2497
      4 C          -3.3873    3.5312   22.1955 C.2     1  UNL1        0.0631
      5 C          -4.8017    3.9772   22.4200 C.3     1  UNL1        0.0724
      6 C          -5.2392    4.4259   23.7828 C.2     1  UNL1       -0.0095
      7 C          -4.2623    4.4284   24.9211 C.2     1  UNL1        0.0646
      8 C          -2.8479    3.9824   24.6966 C.2     1  UNL1        0.0109
      9 C          -2.4104    3.5338   23.3338 C.2     1  UNL1        0.0120
     10 C          -0.1841    2.2210   20.4379 C.ar    1  UNL1        0.0175
     11 C           0.5641    3.1694   19.5488 C.ar    1  UNL1        0.0038
     12 C           1.6334    2.6528   18.6323 C.ar    1  UNL1        0.0297
     13 C           1.9543    1.1879   18.6050 C.ar    1  UNL1        0.1401
     14 F           3.0236    0.6713   17.6886 F       1  UNL1       -0.2042
     15 C           1.2061    0.2395   19.4941 C.ar    1  UNL1        0.0297
     16 C           0.1368    0.7560   20.4106 C.ar    1  UNL1        0.0038
     17 C          -4.6999    4.8771   26.2839 C.1     1  UNL1        0.1001
     18 N          -5.1375    5.3257   27.6467 N.1     1  UNL1       -0.1908
     19 C           0.1679    2.8861   23.6133 C.3     1  UNL1        0.0284
     20 C           0.4550    1.5910   24.3137 C.3     1  UNL1        0.0143
     21 C          -0.2384    1.2660   25.6035 C.3     1  UNL1        0.0870
     22 N           0.3313    0.1905   27.8987 N.am    1  UNL1       -0.1749
     23 C           0.5282    1.2855   26.8926 C.2     1  UNL1        0.2417
     24 O           1.4916    2.3998   27.1756 O.2     1  UNL1       -0.2735
     25 H          -0.3010   -0.5409   27.7130 H       1  UNL1        0.1776
     26 S           1.0979    0.2099   29.1880 S.O2    1  UNL1        0.1151
     27 O           2.2089   -0.5611   28.5390 O.2     1  UNL1       -0.1378
     28 O          -0.0131    0.9809   29.8369 O.2     1  UNL1       -0.1378
     29 C           1.6828    1.3644   31.4408 C.3     1  UNL1        0.1163
     30 N           1.8644    0.2293   30.4772 N.3     1  UNL1       -0.1398
     31 C           2.8125   -0.8866   30.8028 C.3     1  UNL1        0.1163
@<TRIPOS>BOND
     1    29    30    1
     2    30    31    1
     3    30    26    1
     4    26    27    2
     5    26    28    2
     6    26    22    1
     7    22    23   am
     8    23    24    2
     9    23    21    1
    10    21    20    1
    11    20    19    1
    12    19     1    1
    13     1     2    2
    14     2    10    1
    15    10    11   ar
    16    11    12   ar
    17    12    13   ar
    18    13    14    1
    19    13    15   ar
    20    15    16   ar
    21     2     3    1
    22     3     4    2
    23     4     5    1
    24     5     6    1
    25     6     7    2
    26     7    17    1
    27    17    18    3
    28     7     8    1
    29     8     9    2
    30     9     1    1
    31    16    10   ar
    32     9     4    1
    33    22    25    1
@<TRIPOS>MOLECULE
*****
 31 33 0 0 0
SMALL
GASTEIGER

@<TRIPOS>ATOM
      1 C           6.6653   -3.7447   23.9521 C.2     1  UNL1       -0.0034
      2 C           7.1540   -4.3067   22.6500 C.2     1  UNL1        0.0769
      3 N           7.8253   -5.6177   22.9339 N.2     1  UNL1       -0.2497
      4 C           7.7516   -5.8659   24.4114 C.2     1  UNL1        0.0631
      5 C           8.2447   -6.9964   25.2650 C.3     1  UNL1        0.0724
      6 C           8.0208   -6.9694   26.7480 C.2     1  UNL1       -0.0095
      7 C           7.3039   -5.8118   27.3772 C.2     1  UNL1        0.0646
      8 C           6.8108   -4.6812   26.5236 C.2     1  UNL1        0.0109
      9 C           7.0347   -4.7083   25.0407 C.2     1  UNL1        0.0120
     10 C           6.9985   -3.6696   21.3010 C.ar    1  UNL1        0.0175
     11 C           8.0821   -2.7846   20.7601 C.ar    1  UNL1        0.0038
     12 C           7.9267   -2.1475   19.4111 C.ar    1  UNL1        0.0297
     13 C           6.6877   -2.3954   18.6029 C.ar    1  UNL1        0.1401
     14 F           6.5322   -1.7583   17.2538 F       1  UNL1       -0.2042
     15 C           5.6041   -3.2804   19.1437 C.ar    1  UNL1        0.0297
     16 C           5.7595   -3.9175   20.4927 C.ar    1  UNL1        0.0038
     17 C           7.0801   -5.7847   28.8603 C.1     1  UNL1        0.1001
     18 N           6.8562   -5.7577   30.3432 N.1     1  UNL1       -0.1908
     19 C           5.9355   -2.4469   24.1337 C.3     1  UNL1        0.0284
     20 C           4.4640   -2.3682   23.8527 C.3     1  UNL1        0.0143
     21 C           3.7743   -1.0363   23.8338 C.3     1  UNL1        0.0870
     22 N           3.4164   -1.2457   21.2691 N.am    1  UNL1       -0.1749
     23 C           3.3339   -0.4383   22.5306 C.2     1  UNL1        0.2417
     24 O           2.8109    0.9669   22.4888 O.2     1  UNL1       -0.2735
     25 H           3.7597   -2.1680   21.2965 H       1  UNL1        0.1776
     26 S           2.9760   -0.6477   19.9657 S.O2    1  UNL1        0.1151
     27 O           1.5940   -1.1881   20.1849 O.2     1  UNL1       -0.1378
     28 O           4.3580   -0.1075   19.7467 O.2     1  UNL1       -0.1378
     29 C           3.3749   -0.2309   17.4326 C.3     1  UNL1        0.1163
     30 N           2.5356   -0.0498   18.6625 N.3     1  UNL1       -0.1398
     31 C           1.2559    0.7292   18.5892 C.3     1  UNL1        0.1163
@<TRIPOS>BOND
     1    29    30    1
     2    30    31    1
     3    30    26    1
     4    26    27    2
     5    26    28    2
     6    26    22    1
     7    22    23   am
     8    23    24    2
     9    23    21    1
    10    21    20    1
    11    20    19    1
    12    19     1    1
    13     1     2    2
    14     2    10    1
    15    10    11   ar
    16    11    12   ar
    17    12    13   ar
    18    13    14    1
    19    13    15   ar
    20    15    16   ar
    21     2     3    1
    22     3     4    2
    23     4     5    1
    24     5     6    1
    25     6     7    2
    26     7    17    1
    27    17    18    3
    28     7     8    1
    29     8     9    2
    30     9     1    1
    31    16    10   ar
    32     9     4    1
    33    22    25    1
@<TRIPOS>MOLECULE
*****
 31 33 0 0 0
SMALL
GASTEIGER

@<TRIPOS>ATOM
      1 C          -4.7383  -18.5782   21.7571 C.2     1  UNL1       -0.0034
      2 C          -5.8576  -19.1435   20.9339 C.2     1  UNL1        0.0769
      3 N          -5.3391  -19.3792   19.5462 N.2     1  UNL1       -0.2497
      4 C          -3.8994  -18.9595   19.5118 C.2     1  UNL1        0.0631
      5 C          -2.8787  -18.9642   18.4127 C.3     1  UNL1        0.0724
      6 C          -1.4866  -18.4738   18.6801 C.2     1  UNL1       -0.0095
      7 C          -1.1152  -17.9787   20.0465 C.2     1  UNL1        0.0646
      8 C          -2.1360  -17.9740   21.1455 C.2     1  UNL1        0.0109
      9 C          -3.5281  -18.4644   20.8782 C.2     1  UNL1        0.0120
     10 C          -7.2507  -19.4239   21.4141 C.ar    1  UNL1        0.0175
     11 C          -8.4245  -19.1113   20.5341 C.ar    1  UNL1        0.0038
     12 C          -9.8176  -19.3918   21.0143 C.ar    1  UNL1        0.0297
     13 C         -10.0370  -19.9848   22.3745 C.ar    1  UNL1        0.1401
     14 F         -11.4301  -20.2653   22.8546 F       1  UNL1       -0.2042
     15 C          -8.8632  -20.2974   23.2545 C.ar    1  UNL1        0.0297
     16 C          -7.4701  -20.0170   22.7743 C.ar    1  UNL1        0.0038
     17 C           0.2769  -17.4883   20.3138 C.1     1  UNL1        0.1001
     18 N           1.6691  -16.9980   20.5811 N.1     1  UNL1       -0.1908
     19 C          -4.8157  -18.1940   23.2050 C.3     1  UNL1        0.0284
     20 C          -4.3377  -16.8432   23.6491 C.3     1  UNL1        0.0143
     21 C          -5.2349  -15.9615   24.4662 C.3     1  UNL1        0.0870
     22 N          -7.1644  -16.2280   22.7470 N.am    1  UNL1       -0.1749
     23 C          -6.6881  -15.8391   24.1152 C.2     1  UNL1        0.2417
     24 O          -7.6649  -15.3278   25.1322 O.2     1  UNL1       -0.2735
     25 H          -6.5232  -16.5636   22.0795 H       1  UNL1        0.1776
     26 S          -8.6176  -16.1057   22.3959 S.O2    1  UNL1        0.1151
     27 O          -8.9688  -17.0226   23.5298 O.2     1  UNL1       -0.1378
     28 O          -8.2664  -15.1887   21.2619 O.2     1  UNL1       -0.1378
     29 C         -10.4754  -15.5257   20.6747 C.3     1  UNL1        0.1163
     30 N         -10.0708  -15.9832   22.0447 N.3     1  UNL1       -0.1398
     31 C         -11.1193  -16.3184   23.0636 C.3     1  UNL1        0.1163
@<TRIPOS>BOND
     1    29    30    1
     2    30    31    1
     3    30    26    1
     4    26    27    2
     5    26    28    2
     6    26    22    1
     7    22    23   am
     8    23    24    2
     9    23    21    1
    10    21    20    1
    11    20    19    1
    12    19     1    1
    13     1     2    2
    14     2    10    1
    15    10    11   ar
    16    11    12   ar
    17    12    13   ar
    18    13    14    1
    19    13    15   ar
    20    15    16   ar
    21     2     3    1
    22     3     4    2
    23     4     5    1
    24     5     6    1
    25     6     7    2
    26     7    17    1
    27    17    18    3
    28     7     8    1
    29     8     9    2
    30     9     1    1
    31    16    10   ar
    32     9     4    1
    33    22    25    1
@<TRIPOS>MOLECULE
*****
 31 33 0 0 0
SMALL
GASTEIGER

@<TRIPOS>ATOM
      1 C           1.9502    1.1828   22.3710 C.2     1  UNL1       -0.0034
      2 C           2.0506    0.6625   23.7743 C.2     1  UNL1        0.0769
      3 N           2.7638   -0.6563   23.7298 N.2     1  UNL1       -0.2497
      4 C           3.1043   -0.9511   22.2990 C.2     1  UNL1        0.0631
      5 C           3.8072   -2.1077   21.6524 C.3     1  UNL1        0.0724
      6 C           4.0072   -2.1277   20.1659 C.2     1  UNL1       -0.0095
      7 C           3.5044   -0.9911   19.3261 C.2     1  UNL1        0.0646
      8 C           2.8015    0.1655   19.9727 C.2     1  UNL1        0.0109
      9 C           2.6014    0.1855   21.4592 C.2     1  UNL1        0.0120
     10 C           1.5292    1.3418   25.0058 C.ar    1  UNL1        0.0175
     11 C           0.1031    1.1421   25.4258 C.ar    1  UNL1        0.0038
     12 C          -0.4182    1.8215   26.6573 C.ar    1  UNL1        0.0297
     13 C           0.4865    2.7005   27.4689 C.ar    1  UNL1        0.1401
     14 F          -0.0349    3.3798   28.7005 F       1  UNL1       -0.2042
     15 C           1.9126    2.9002   27.0490 C.ar    1  UNL1        0.0297
     16 C           2.4339    2.2209   25.8174 C.ar    1  UNL1        0.0038
     17 C           3.7045   -1.0111   17.8396 C.1     1  UNL1        0.1001
     18 N           3.9046   -1.0311   16.3532 N.1     1  UNL1       -0.1908
     19 C           1.3109    2.4737   21.9528 C.3     1  UNL1        0.0284
     20 C          -0.1747    2.6468   22.0680 C.3     1  UNL1        0.0143
     21 C          -1.0239    2.6812   20.8320 C.3     1  UNL1        0.0870
     22 N          -3.6203    2.6521   20.7471 N.am    1  UNL1       -0.1749
     23 C          -2.3322    3.4148   20.8412 C.2     1  UNL1        0.2417
     24 O          -2.3523    4.9111   20.9445 O.2     1  UNL1       -0.2735
     25 H          -3.6071    1.6700   20.6793 H       1  UNL1        0.1776
     26 S          -4.9288    3.3857   20.7563 S.O2    1  UNL1        0.1151
     27 O          -4.9052    3.4463   19.2577 O.2     1  UNL1       -0.1378
     28 O          -4.9522    3.3251   22.2548 O.2     1  UNL1       -0.1378
     29 C          -6.8703    4.5073   22.0688 C.3     1  UNL1        0.1163
     30 N          -6.2371    4.1193   20.7655 N.3     1  UNL1       -0.1398
     31 C          -6.9122    4.4649   19.4714 C.3     1  UNL1        0.1163
@<TRIPOS>BOND
     1    29    30    1
     2    30    31    1
     3    30    26    1
     4    26    27    2
     5    26    28    2
     6    26    22    1
     7    22    23   am
     8    23    24    2
     9    23    21    1
    10    21    20    1
    11    20    19    1
    12    19     1    1
    13     1     2    2
    14     2    10    1
    15    10    11   ar
    16    11    12   ar
    17    12    13   ar
    18    13    14    1
    19    13    15   ar
    20    15    16   ar
    21     2     3    1
    22     3     4    2
    23     4     5    1
    24     5     6    1
    25     6     7    2
    26     7    17    1
    27    17    18    3
    28     7     8    1
    29     8     9    2
    30     9     1    1
    31    16    10   ar
    32     9     4    1
    33    22    25    1
@<TRIPOS>MOLECULE
*****
 31 33 0 0 0
SMALL
GASTEIGER

@<TRIPOS>ATOM
      1 C           5.9717   -3.7523   23.0289 C.2     1  UNL1       -0.0034
      2 C           6.5098   -3.8336   21.6311 C.2     1  UNL1        0.0769
      3 N           7.7619   -4.6589   21.6637 N.2     1  UNL1       -0.2497
      4 C           7.9977   -5.0877   23.0816 C.2     1  UNL1        0.0631
      5 C           9.0769   -5.9159   23.7135 C.3     1  UNL1        0.0724
      6 C           9.0497   -6.1839   25.1891 C.2     1  UNL1       -0.0095
      7 C           7.9433   -5.6235   26.0328 C.2     1  UNL1        0.0646
      8 C           6.8641   -4.7953   25.4010 C.2     1  UNL1        0.0109
      9 C           6.8913   -4.5274   23.9254 C.2     1  UNL1        0.0120
     10 C           5.9024   -3.2007   20.4143 C.ar    1  UNL1        0.0175
     11 C           6.4426   -1.9008   19.8962 C.ar    1  UNL1        0.0038
     12 C           5.8352   -1.2679   18.6794 C.ar    1  UNL1        0.0297
     13 C           4.6876   -1.9349   17.9808 C.ar    1  UNL1        0.1401
     14 F           4.0802   -1.3020   16.7640 F       1  UNL1       -0.2042
     15 C           4.1473   -3.2347   18.4990 C.ar    1  UNL1        0.0297
     16 C           4.7547   -3.8676   19.7157 C.ar    1  UNL1        0.0038
     17 C           7.9161   -5.8915   27.5085 C.1     1  UNL1        0.1001
     18 N           7.8890   -6.1594   28.9841 N.1     1  UNL1       -0.1908
     19 C           4.7318   -3.0238   23.4554 C.3     1  UNL1        0.0284
     20 C           4.6721   -1.5277   23.3643 C.3     1  UNL1        0.0143
     21 C           3.3500   -0.8236   23.4440 C.3     1  UNL1        0.0870
     22 N           1.8630    0.9281   22.2315 N.am    1  UNL1       -0.1749
     23 C           2.6908   -0.3222   22.1934 C.2     1  UNL1        0.2417
     24 O           2.8594   -1.0710   20.9046 O.2     1  UNL1       -0.2735
     25 H           1.7523    1.4196   23.0774 H       1  UNL1        0.1776
     26 S           1.2037    1.4296   20.9809 S.O2    1  UNL1        0.1151
     27 O           2.4287    2.2324   20.6571 O.2     1  UNL1       -0.1378
     28 O          -0.0212    0.6268   21.3047 O.2     1  UNL1       -0.1378
     29 C           0.9529    1.3825   18.3954 C.3     1  UNL1        0.1163
     30 N           0.5444    1.9310   19.7304 N.3     1  UNL1       -0.1398
     31 C          -0.5234    2.9811   19.8148 C.3     1  UNL1        0.1163
@<TRIPOS>BOND
     1    29    30    1
     2    30    31    1
     3    30    26    1
     4    26    27    2
     5    26    28    2
     6    26    22    1
     7    22    23   am
     8    23    24    2
     9    23    21    1
    10    21    20    1
    11    20    19    1
    12    19     1    1
    13     1     2    2
    14     2    10    1
    15    10    11   ar
    16    11    12   ar
    17    12    13   ar
    18    13    14    1
    19    13    15   ar
    20    15    16   ar
    21     2     3    1
    22     3     4    2
    23     4     5    1
    24     5     6    1
    25     6     7    2
    26     7    17    1
    27    17    18    3
    28     7     8    1
    29     8     9    2
    30     9     1    1
    31    16    10   ar
    32     9     4    1
    33    22    25    1
