@<TRIPOS>MOLECULE
*****
 24 27 0 0 0
SMALL
GASTEIGER

@<TRIPOS>ATOM
      1 C          -3.2234  -19.2455   21.3147 C.2     1  UNL1        0.1669
      2 C          -4.2348  -19.8200   20.3675 C.2     1  UNL1        0.0545
      3 C          -5.6972  -19.5723   20.5912 C.2     1  UNL1        0.0702
      4 N          -6.9162  -20.0059   19.8322 N.2     1  UNL1       -0.2475
      5 C          -8.1205  -19.4516   20.5338 C.2     1  UNL1        0.1013
      6 C          -7.6459  -18.6755   21.7265 C.2     1  UNL1        0.0818
      7 C          -6.1482  -18.7501   21.7619 C.3     1  UNL1        0.0947
      8 C          -5.1367  -18.1756   22.7090 C.2     1  UNL1        0.0169
      9 C          -3.6743  -18.4233   22.4853 C.2     1  UNL1        0.1703
     10 F          -2.6629  -17.8487   23.4324 F       1  UNL1       -0.2013
     11 C          -0.9804  -18.5989   20.1739 C.3     1  UNL1        0.2526
     12 O          -1.7609  -19.4932   21.0910 O.2     1  UNL1       -0.4691
     13 C          -8.5162  -17.9518   22.7108 C.2     1  UNL1        0.3394
     14 O          -9.0817  -18.6837   23.8917 O.2     1  UNL1       -0.2452
     15 O          -8.8209  -16.4963   22.5142 O.3     1  UNL1       -0.4456
     16 C          -7.8647  -15.4554   23.0161 C.3     1  UNL1        0.2087
     17 C          -7.4394  -15.4589   24.4546 C.3     1  UNL1        0.0445
     18 C          -8.4713  -15.5237   25.5414 C.3     1  UNL1        0.0210
     19 C          -8.0461  -15.5272   26.9799 C.3     1  UNL1        0.0722
     20 N          -6.5891  -15.4658   27.3316 N.3     1  UNL1       -0.2727
     21 C          -5.5574  -15.4010   26.2447 C.3     1  UNL1        0.0722
     22 C          -5.9825  -15.3975   24.8062 C.3     1  UNL1        0.0210
     23 C          -6.7737  -15.4615   26.5291 C.3     1  UNL1        0.0722
     24 C          -7.1582  -15.4583   25.2284 C.3     1  UNL1        0.0210
@<TRIPOS>BOND
     1    11    12    1
     2    12     1    1
     3     1     2    2
     4     2     3    1
     5     3     4    2
     6     4     5    1
     7     5     6    2
     8     6    13    1
     9    13    14    2
    10    13    15    1
    11    15    16    1
    12    16    17    1
    13    17    18    1
    14    18    19    1
    15    19    20    1
    16    20    21    1
    17    21    22    1
    18    20    23    1
    19    23    24    1
    20     6     7    1
    21     7     8    1
    22     8     9    2
    23     9    10    1
    24     9     1    1
    25     7     3    1
    26    22    17    1
    27    24    17    1
@<TRIPOS>MOLECULE
*****
 24 27 0 0 0
SMALL
GASTEIGER

@<TRIPOS>ATOM
      1 C          -2.5807  -19.1561   21.1765 C.2     1  UNL1        0.1669
      2 C          -3.5097  -19.8719   20.2413 C.2     1  UNL1        0.0545
      3 C          -4.9841  -19.8897   20.5166 C.2     1  UNL1        0.0702
      4 N          -6.1352  -20.5082   19.7802 N.2     1  UNL1       -0.2475
      5 C          -7.3920  -20.1925   20.5356 C.2     1  UNL1        0.1013
      6 C          -7.0177  -19.3788   21.7389 C.2     1  UNL1        0.0818
      7 C          -5.5294  -19.1917   21.7271 C.3     1  UNL1        0.0947
      8 C          -4.6004  -18.4759   22.6623 C.2     1  UNL1        0.0169
      9 C          -3.1260  -18.4581   22.3870 C.2     1  UNL1        0.1703
     10 F          -2.1970  -17.7423   23.3222 F       1  UNL1       -0.2013
     11 C          -0.5128  -18.0447   20.0633 C.3     1  UNL1        0.2526
     12 O          -1.1062  -19.1383   20.9012 O.2     1  UNL1       -0.4691
     13 C          -7.9652  -18.8458   22.7724 C.2     1  UNL1        0.3394
     14 O          -7.9824  -17.3798   23.0891 O.2     1  UNL1       -0.2452
     15 O          -8.8956  -19.7790   23.4892 O.3     1  UNL1       -0.4456
     16 C         -10.2527  -20.0686   22.9199 C.3     1  UNL1        0.2087
     17 C         -10.9840  -19.0102   22.1486 C.3     1  UNL1        0.0445
     18 C         -10.7685  -18.8759   20.6701 C.3     1  UNL1        0.0210
     19 C         -11.4998  -17.8175   19.8987 C.3     1  UNL1        0.0722
     20 N         -12.4465  -16.8934   20.6057 N.3     1  UNL1       -0.2727
     21 C         -12.6620  -17.0276   22.0840 C.3     1  UNL1        0.0722
     22 C         -11.9307  -18.0860   22.8555 C.3     1  UNL1        0.0210
     23 C         -12.0684  -17.4579   21.0708 C.3     1  UNL1        0.0722
     24 C         -11.4072  -18.4150   21.7683 C.3     1  UNL1        0.0210
@<TRIPOS>BOND
     1    11    12    1
     2    12     1    1
     3     1     2    2
     4     2     3    1
     5     3     4    2
     6     4     5    1
     7     5     6    2
     8     6    13    1
     9    13    14    2
    10    13    15    1
    11    15    16    1
    12    16    17    1
    13    17    18    1
    14    18    19    1
    15    19    20    1
    16    20    21    1
    17    21    22    1
    18    20    23    1
    19    23    24    1
    20     6     7    1
    21     7     8    1
    22     8     9    2
    23     9    10    1
    24     9     1    1
    25     7     3    1
    26    22    17    1
    27    24    17    1
@<TRIPOS>MOLECULE
*****
 24 27 0 0 0
SMALL
GASTEIGER

@<TRIPOS>ATOM
      1 C          -8.5643  -16.3786   25.2329 C.2     1  UNL1        0.1669
      2 C          -9.4674  -17.5697   25.3588 C.2     1  UNL1        0.0545
      3 C          -9.7696  -18.4122   24.1551 C.2     1  UNL1        0.0702
      4 N         -10.6170  -19.6366   23.9742 N.2     1  UNL1       -0.2475
      5 C         -10.5400  -20.0447   22.5328 C.2     1  UNL1        0.1013
      6 C          -9.6449  -19.0726   21.8230 C.2     1  UNL1        0.0818
      7 C          -9.1688  -18.0636   22.8256 C.3     1  UNL1        0.0947
      8 C          -8.2658  -16.8725   22.6998 C.2     1  UNL1        0.0169
      9 C          -7.9636  -16.0300   23.9035 C.2     1  UNL1        0.1703
     10 F          -7.0605  -14.8389   23.7776 F       1  UNL1       -0.2013
     11 C          -6.9246  -15.6394   27.1078 C.3     1  UNL1        0.2526
     12 O          -8.2621  -15.5360   26.4366 O.2     1  UNL1       -0.4691
     13 C          -9.2886  -19.1039   20.3662 C.2     1  UNL1        0.3394
     14 O         -10.3688  -19.2219   19.3323 O.2     1  UNL1       -0.2452
     15 O          -7.8520  -19.0172   19.9435 O.3     1  UNL1       -0.4456
     16 C          -6.9080  -20.1390   20.2603 C.3     1  UNL1        0.2087
     17 C          -5.5552  -19.8410   20.8358 C.3     1  UNL1        0.0445
     18 C          -4.3184  -20.1688   20.0529 C.3     1  UNL1        0.0210
     19 C          -2.9656  -19.8708   20.6283 C.3     1  UNL1        0.0722
     20 N          -2.8496  -19.2451   21.9867 N.3     1  UNL1       -0.2727
     21 C          -4.0864  -18.9173   22.7696 C.3     1  UNL1        0.0722
     22 C          -5.4392  -19.2153   22.1942 C.3     1  UNL1        0.0210
     23 C          -3.6126  -19.3898   21.7130 C.3     1  UNL1        0.0722
     24 C          -4.8358  -19.6593   21.1926 C.3     1  UNL1        0.0210
@<TRIPOS>BOND
     1    11    12    1
     2    12     1    1
     3     1     2    2
     4     2     3    1
     5     3     4    2
     6     4     5    1
     7     5     6    2
     8     6    13    1
     9    13    14    2
    10    13    15    1
    11    15    16    1
    12    16    17    1
    13    17    18    1
    14    18    19    1
    15    19    20    1
    16    20    21    1
    17    21    22    1
    18    20    23    1
    19    23    24    1
    20     6     7    1
    21     7     8    1
    22     8     9    2
    23     9    10    1
    24     9     1    1
    25     7     3    1
    26    22    17    1
    27    24    17    1
@<TRIPOS>MOLECULE
*****
 24 27 0 0 0
SMALL
GASTEIGER

@<TRIPOS>ATOM
      1 C         -11.2859  -18.8693   23.5082 C.2     1  UNL1        0.1669
      2 C         -11.3742  -18.9643   22.0137 C.2     1  UNL1        0.0545
      3 C         -10.1342  -19.1977   21.2026 C.2     1  UNL1        0.0702
      4 N          -9.9122  -19.3353   19.7255 N.2     1  UNL1       -0.2475
      5 C          -8.4469  -19.5588   19.4959 C.2     1  UNL1        0.1013
      6 C          -7.7632  -19.5594   20.8310 C.2     1  UNL1        0.0818
      7 C          -8.8060  -19.3362   21.8858 C.3     1  UNL1        0.0947
      8 C          -8.7178  -19.2413   23.3802 C.2     1  UNL1        0.0169
      9 C          -9.9578  -19.0078   24.1913 C.2     1  UNL1        0.1703
     10 F          -9.8696  -18.9129   25.6858 F       1  UNL1       -0.2013
     11 C         -13.6752  -17.8730   23.7299 C.3     1  UNL1        0.2526
     12 O         -12.5259  -18.6359   24.3194 O.2     1  UNL1       -0.4691
     13 C          -6.2945  -19.7497   21.0694 C.2     1  UNL1        0.3394
     14 O          -5.5286  -20.7578   20.2650 O.2     1  UNL1       -0.2452
     15 O          -5.5918  -18.9319   22.1122 O.3     1  UNL1       -0.4456
     16 C          -4.1526  -19.2047   22.4350 C.3     1  UNL1        0.2087
     17 C          -3.0681  -18.4634   21.7109 C.3     1  UNL1        0.0445
     18 C          -2.6856  -17.0799   22.1466 C.3     1  UNL1        0.0210
     19 C          -1.6011  -16.3385   21.4226 C.3     1  UNL1        0.0722
     20 N          -0.8990  -16.9807   20.2629 N.3     1  UNL1       -0.2727
     21 C          -1.2814  -18.3641   19.8273 C.3     1  UNL1        0.0722
     22 C          -2.3660  -19.1055   20.5513 C.3     1  UNL1        0.0210
     23 C          -1.4870  -17.4262   20.6286 C.3     1  UNL1        0.0722
     24 C          -2.4677  -18.0965   21.2833 C.3     1  UNL1        0.0210
@<TRIPOS>BOND
     1    11    12    1
     2    12     1    1
     3     1     2    2
     4     2     3    1
     5     3     4    2
     6     4     5    1
     7     5     6    2
     8     6    13    1
     9    13    14    2
    10    13    15    1
    11    15    16    1
    12    16    17    1
    13    17    18    1
    14    18    19    1
    15    19    20    1
    16    20    21    1
    17    21    22    1
    18    20    23    1
    19    23    24    1
    20     6     7    1
    21     7     8    1
    22     8     9    2
    23     9    10    1
    24     9     1    1
    25     7     3    1
    26    22    17    1
    27    24    17    1
@<TRIPOS>MOLECULE
*****
 24 27 0 0 0
SMALL
GASTEIGER

@<TRIPOS>ATOM
      1 C          -7.4736  -16.0031   24.3823 C.2     1  UNL1        0.1669
      2 C          -6.0342  -16.3657   24.1659 C.2     1  UNL1        0.0545
      3 C          -5.6622  -17.3579   23.1043 C.2     1  UNL1        0.0702
      4 N          -4.3378  -17.9073   22.6637 N.2     1  UNL1       -0.2475
      5 C          -4.5866  -18.8764   21.5462 C.2     1  UNL1        0.1013
      6 C          -6.0648  -18.9260   21.2961 C.2     1  UNL1        0.0818
      7 C          -6.7296  -17.9875   22.2590 C.3     1  UNL1        0.0947
      8 C          -8.1689  -17.6249   22.4755 C.2     1  UNL1        0.0169
      9 C          -8.5409  -16.6327   23.5371 C.2     1  UNL1        0.1703
     10 F          -9.9803  -16.2701   23.7535 F       1  UNL1       -0.2013
     11 C          -8.1795  -15.4831   26.8281 C.3     1  UNL1        0.2526
     12 O          -7.8456  -15.0109   25.4440 O.2     1  UNL1       -0.4691
     13 C          -6.7566  -19.7665   20.2642 C.2     1  UNL1        0.3394
     14 O          -6.4136  -21.2204   20.1283 O.2     1  UNL1       -0.2452
     15 O          -7.7915  -19.1531   19.3682 O.3     1  UNL1       -0.4456
     16 C          -9.1794  -19.7206   19.3272 C.3     1  UNL1        0.2087
     17 C         -10.2542  -19.1371   20.1957 C.3     1  UNL1        0.0445
     18 C         -10.9495  -17.8740   19.7818 C.3     1  UNL1        0.0210
     19 C         -12.0243  -17.2904   20.6503 C.3     1  UNL1        0.0722
     20 N         -12.4038  -17.9699   21.9327 N.3     1  UNL1       -0.2727
     21 C         -11.7085  -19.2329   22.3465 C.3     1  UNL1        0.0722
     22 C         -10.6337  -19.8165   21.4780 C.3     1  UNL1        0.0210
     23 C         -11.8088  -18.3274   21.4898 C.3     1  UNL1        0.0722
     24 C         -10.8369  -18.8550   20.7045 C.3     1  UNL1        0.0210
@<TRIPOS>BOND
     1    11    12    1
     2    12     1    1
     3     1     2    2
     4     2     3    1
     5     3     4    2
     6     4     5    1
     7     5     6    2
     8     6    13    1
     9    13    14    2
    10    13    15    1
    11    15    16    1
    12    16    17    1
    13    17    18    1
    14    18    19    1
    15    19    20    1
    16    20    21    1
    17    21    22    1
    18    20    23    1
    19    23    24    1
    20     6     7    1
    21     7     8    1
    22     8     9    2
    23     9    10    1
    24     9     1    1
    25     7     3    1
    26    22    17    1
    27    24    17    1
@<TRIPOS>MOLECULE
*****
 24 27 0 0 0
SMALL
GASTEIGER

@<TRIPOS>ATOM
      1 C          -6.3557  -15.9088   24.3728 C.2     1  UNL1        0.1669
      2 C          -5.1511  -16.5976   23.8030 C.2     1  UNL1        0.0545
      3 C          -5.3123  -17.5976   22.6967 C.2     1  UNL1        0.0702
      4 N          -4.3174  -18.4287   21.9421 N.2     1  UNL1       -0.2475
      5 C          -5.0683  -19.2536   20.9393 C.2     1  UNL1        0.1013
      6 C          -6.5273  -18.9324   21.0741 C.2     1  UNL1        0.0818
      7 C          -6.6781  -17.9089   22.1602 C.3     1  UNL1        0.0947
      8 C          -7.8826  -17.2201   22.7301 C.2     1  UNL1        0.0169
      9 C          -7.7214  -16.2201   23.8364 C.2     1  UNL1        0.1703
     10 F          -8.9260  -15.5313   24.4062 F       1  UNL1       -0.2013
     11 C          -6.3925  -15.3294   26.9053 C.3     1  UNL1        0.2526
     12 O          -6.1944  -14.9087   25.4792 O.2     1  UNL1       -0.4691
     13 C          -7.6400  -19.5298   20.2649 C.2     1  UNL1        0.3394
     14 O          -7.4729  -20.8859   19.6460 O.2     1  UNL1       -0.2452
     15 O          -8.9199  -18.7710   20.0744 O.3     1  UNL1       -0.4456
     16 C         -10.2299  -19.4086   20.4312 C.3     1  UNL1        0.2087
     17 C         -10.8609  -19.1312   21.7634 C.3     1  UNL1        0.0445
     18 C         -10.3854  -19.8607   22.9849 C.3     1  UNL1        0.0210
     19 C         -11.0164  -19.5833   24.3172 C.3     1  UNL1        0.0722
     20 N         -12.1229  -18.5765   24.4280 N.3     1  UNL1       -0.2727
     21 C         -12.5983  -17.8472   23.2066 C.3     1  UNL1        0.0722
     22 C         -11.9673  -18.1245   21.8743 C.3     1  UNL1        0.0210
     23 C         -11.8079  -18.6948   23.6764 C.3     1  UNL1        0.0722
     24 C         -11.2373  -18.9456   22.4718 C.3     1  UNL1        0.0210
@<TRIPOS>BOND
     1    11    12    1
     2    12     1    1
     3     1     2    2
     4     2     3    1
     5     3     4    2
     6     4     5    1
     7     5     6    2
     8     6    13    1
     9    13    14    2
    10    13    15    1
    11    15    16    1
    12    16    17    1
    13    17    18    1
    14    18    19    1
    15    19    20    1
    16    20    21    1
    17    21    22    1
    18    20    23    1
    19    23    24    1
    20     6     7    1
    21     7     8    1
    22     8     9    2
    23     9    10    1
    24     9     1    1
    25     7     3    1
    26    22    17    1
    27    24    17    1
@<TRIPOS>MOLECULE
*****
 24 27 0 0 0
SMALL
GASTEIGER

@<TRIPOS>ATOM
      1 C          -8.4928  -19.4337   20.7214 C.2     1  UNL1        0.1669
      2 C          -7.3306  -20.1306   20.0784 C.2     1  UNL1        0.0545
      3 C          -5.9317  -19.8229   20.5239 C.2     1  UNL1        0.0702
      4 N          -4.5985  -20.3471   20.0791 N.2     1  UNL1       -0.2475
      5 C          -3.5380  -19.6665   20.8927 C.2     1  UNL1        0.1013
      6 C          -4.2157  -18.7216   21.8404 C.2     1  UNL1        0.0818
      7 C          -5.6951  -18.8183   21.6124 C.3     1  UNL1        0.0947
      8 C          -6.8574  -18.1214   22.2554 C.2     1  UNL1        0.0169
      9 C          -8.2563  -18.4291   21.8099 C.2     1  UNL1        0.1703
     10 F          -9.4185  -17.7321   22.4529 F       1  UNL1       -0.2013
     11 C         -10.7516  -18.6553   19.7004 C.3     1  UNL1        0.2526
     12 O          -9.8918  -19.7413   20.2759 O.2     1  UNL1       -0.4691
     13 C          -3.5337  -17.8357   22.8403 C.2     1  UNL1        0.3394
     14 O          -2.1222  -17.3863   22.6045 O.2     1  UNL1       -0.2452
     15 O          -4.2633  -17.3991   24.0761 O.3     1  UNL1       -0.4456
     16 C          -4.8583  -16.0242   24.1494 C.3     1  UNL1        0.2087
     17 C          -6.0454  -15.7666   25.0294 C.3     1  UNL1        0.0445
     18 C          -7.4193  -15.6909   24.4321 C.3     1  UNL1        0.0210
     19 C          -8.6065  -15.4333   25.3121 C.3     1  UNL1        0.0722
     20 N          -8.4198  -15.2513   26.7893 N.3     1  UNL1       -0.2727
     21 C          -7.0459  -15.3270   27.3865 C.3     1  UNL1        0.0722
     22 C          -5.8587  -15.5846   26.5066 C.3     1  UNL1        0.0210
     23 C          -7.7390  -15.3904   26.3475 C.3     1  UNL1        0.0722
     24 C          -6.6656  -15.6234   25.5517 C.3     1  UNL1        0.0210
@<TRIPOS>BOND
     1    11    12    1
     2    12     1    1
     3     1     2    2
     4     2     3    1
     5     3     4    2
     6     4     5    1
     7     5     6    2
     8     6    13    1
     9    13    14    2
    10    13    15    1
    11    15    16    1
    12    16    17    1
    13    17    18    1
    14    18    19    1
    15    19    20    1
    16    20    21    1
    17    21    22    1
    18    20    23    1
    19    23    24    1
    20     6     7    1
    21     7     8    1
    22     8     9    2
    23     9    10    1
    24     9     1    1
    25     7     3    1
    26    22    17    1
    27    24    17    1
@<TRIPOS>MOLECULE
*****
 24 27 0 0 0
SMALL
GASTEIGER

@<TRIPOS>ATOM
      1 C         -12.3915  -18.6432   24.2145 C.2     1  UNL1        0.1669
      2 C         -12.8176  -18.0219   22.9173 C.2     1  UNL1        0.0545
      3 C         -11.9050  -18.0688   21.7279 C.2     1  UNL1        0.0702
      4 N         -12.0515  -17.5470   20.3292 N.2     1  UNL1       -0.2475
      5 C         -10.8033  -17.8925   19.5725 C.2     1  UNL1        0.1013
      6 C          -9.8854  -18.6279   20.5034 C.2     1  UNL1        0.0818
      7 C         -10.5662  -18.7368   21.8355 C.3     1  UNL1        0.0947
      8 C         -10.1402  -19.3580   23.1327 C.2     1  UNL1        0.0169
      9 C         -11.0529  -19.3112   24.3221 C.2     1  UNL1        0.1703
     10 F         -10.6267  -19.9324   25.6193 F       1  UNL1       -0.2013
     11 C         -14.7798  -18.4090   25.2103 C.3     1  UNL1        0.2526
     12 O         -13.3042  -18.5963   25.4040 O.2     1  UNL1       -0.4691
     13 C          -8.5254  -19.1608   20.1621 C.2     1  UNL1        0.3394
     14 O          -8.1377  -19.3635   18.7273 O.2     1  UNL1       -0.2452
     15 O          -7.5531  -19.4909   21.2556 O.3     1  UNL1       -0.4456
     16 C          -6.3243  -20.2945   20.9490 C.3     1  UNL1        0.2087
     17 C          -4.9872  -19.6193   20.8691 C.3     1  UNL1        0.0445
     18 C          -4.4822  -19.1091   19.5520 C.3     1  UNL1        0.0210
     19 C          -3.1451  -18.4340   19.4720 C.3     1  UNL1        0.0722
     20 N          -2.3130  -18.2690   20.7091 N.3     1  UNL1       -0.2727
     21 C          -2.8180  -18.7792   22.0262 C.3     1  UNL1        0.0722
     22 C          -4.1551  -19.4543   22.1062 C.3     1  UNL1        0.0210
     23 C          -3.0393  -18.6456   20.8026 C.3     1  UNL1        0.0722
     24 C          -4.2483  -19.2561   20.8748 C.3     1  UNL1        0.0210
@<TRIPOS>BOND
     1    11    12    1
     2    12     1    1
     3     1     2    2
     4     2     3    1
     5     3     4    2
     6     4     5    1
     7     5     6    2
     8     6    13    1
     9    13    14    2
    10    13    15    1
    11    15    16    1
    12    16    17    1
    13    17    18    1
    14    18    19    1
    15    19    20    1
    16    20    21    1
    17    21    22    1
    18    20    23    1
    19    23    24    1
    20     6     7    1
    21     7     8    1
    22     8     9    2
    23     9    10    1
    24     9     1    1
    25     7     3    1
    26    22    17    1
    27    24    17    1
@<TRIPOS>MOLECULE
*****
 24 27 0 0 0
SMALL
GASTEIGER

@<TRIPOS>ATOM
      1 C         -10.5708  -18.6205   22.3631 C.2     1  UNL1        0.1669
      2 C         -10.0233  -18.9929   21.0171 C.2     1  UNL1        0.0545
      3 C          -8.5402  -19.0578   20.8025 C.2     1  UNL1        0.0702
      4 N          -7.7143  -19.3929   19.5960 N.2     1  UNL1       -0.2475
      5 C          -6.2682  -19.2927   19.9818 C.2     1  UNL1        0.1013
      6 C          -6.2004  -18.8956   21.4267 C.2     1  UNL1        0.0818
      7 C          -7.6045  -18.7505   21.9340 C.3     1  UNL1        0.0947
      8 C          -8.1520  -18.3782   23.2799 C.2     1  UNL1        0.0169
      9 C          -9.6352  -18.3132   23.4944 C.2     1  UNL1        0.1703
     10 F         -10.1827  -17.9409   24.8405 F       1  UNL1       -0.2013
     11 C         -12.7419  -17.2253   22.6634 C.3     1  UNL1        0.2526
     12 O         -12.0540  -18.5556   22.5777 O.2     1  UNL1       -0.4691
     13 C          -4.9482  -18.6813   22.2243 C.2     1  UNL1        0.3394
     14 O          -4.3360  -19.8231   22.9803 O.2     1  UNL1       -0.2452
     15 O          -4.3083  -17.3253   22.2659 O.3     1  UNL1       -0.4456
     16 C          -4.0843  -16.6418   23.5821 C.3     1  UNL1        0.2087
     17 C          -5.2499  -16.0925   24.3500 C.3     1  UNL1        0.0445
     18 C          -5.2632  -16.1671   25.8481 C.3     1  UNL1        0.0210
     19 C          -6.4288  -15.6177   26.6160 C.3     1  UNL1        0.0722
     20 N          -7.5810  -14.9938   25.8858 N.3     1  UNL1       -0.2727
     21 C          -7.5676  -14.9192   24.3877 C.3     1  UNL1        0.0722
     22 C          -6.4021  -15.4685   23.6198 C.3     1  UNL1        0.0210
     23 C          -6.9645  -15.2812   25.4218 C.3     1  UNL1        0.0722
     24 C          -5.9106  -15.7779   24.7275 C.3     1  UNL1        0.0210
@<TRIPOS>BOND
     1    11    12    1
     2    12     1    1
     3     1     2    2
     4     2     3    1
     5     3     4    2
     6     4     5    1
     7     5     6    2
     8     6    13    1
     9    13    14    2
    10    13    15    1
    11    15    16    1
    12    16    17    1
    13    17    18    1
    14    18    19    1
    15    19    20    1
    16    20    21    1
    17    21    22    1
    18    20    23    1
    19    23    24    1
    20     6     7    1
    21     7     8    1
    22     8     9    2
    23     9    10    1
    24     9     1    1
    25     7     3    1
    26    22    17    1
    27    24    17    1
