@<TRIPOS>MOLECULE
*****
 40 42 0 0 0
SMALL
GASTEIGER

@<TRIPOS>ATOM
      1 C          -3.8805    3.4849   24.5825 C.ar    1  UNL1        0.0696
      2 C          -4.1057    3.6854   26.0519 C.ar    1  UNL1        0.0057
      3 C          -2.9494    3.6129   27.0046 C.ar    1  UNL1       -0.0041
      4 C          -1.5680    3.3398   26.4880 C.ar    1  UNL1       -0.0185
      5 C          -1.3427    3.1393   25.0187 C.ar    1  UNL1        0.0677
      6 C          -2.4990    3.2119   24.0659 C.ar    1  UNL1        0.0095
      7 C          -0.4117    3.2673   27.4408 C.3     1  UNL1        0.0257
      8 C           0.0585    1.9370   27.9497 C.3     1  UNL1        0.0259
      9 C           1.2148    1.8644   28.9024 C.3     1  UNL1        0.0940
     10 N           1.9009    3.1223   29.3463 N.am    1  UNL1       -0.2761
     11 C           3.0572    3.0497   30.2991 C.2     1  UNL1        0.2490
     12 O           3.7433    4.3076   30.7430 O.2     1  UNL1       -0.2699
     13 C           1.4307    4.4526   28.8375 C.3     1  UNL1        0.0940
     14 C           0.2744    4.5252   27.8847 C.3     1  UNL1        0.0259
     15 C           3.5274    1.7194   30.8080 C.ar    1  UNL1        0.0537
     16 C           4.5142    0.9179   30.0117 C.ar    1  UNL1        0.0059
     17 C           4.9844   -0.4125   30.5206 C.ar    1  UNL1        0.0200
     18 C           4.4678   -0.9414   31.8257 C.ar    1  UNL1        0.1217
     19 C           3.4811   -0.1401   32.6220 C.ar    1  UNL1        0.0200
     20 C           3.0108    1.1904   32.1131 C.ar    1  UNL1        0.0059
     21 S           4.9381   -2.2719   32.3346 S.O2    1  UNL1        0.0572
     22 N           5.4082   -3.6022   32.8434 N.3     1  UNL1       -0.2035
     23 O           5.9877   -2.3105   31.2637 O.2     1  UNL1       -0.1532
     24 O           3.8884   -2.2332   33.4054 O.2     1  UNL1       -0.1532
     25 H           6.1878   -3.9286   32.2723 H       1  UNL1        0.1442
     26 H           4.6437   -4.2755   32.7919 H       1  UNL1        0.1442
     27 N          -6.3411    4.1479   24.0769 N.am    1  UNL1       -0.1708
     28 C          -5.0368    3.5574   23.6298 C.2     1  UNL1        0.3078
     29 O          -4.8887    3.0395   22.2299 O.2     1  UNL1       -0.2516
     30 H          -6.4383    4.4879   24.9957 H       1  UNL1        0.2545
     31 N          -8.8653    3.7974   23.5712 N.pl3   1  UNL1       -0.1313
     32 C          -7.4974    4.2204   23.1241 C.2     1  UNL1        0.3751
     33 N          -7.2858    4.7161   21.7242 N.pl3   1  UNL1       -0.2906
     34 H          -9.6242    3.8450   22.9458 H       1  UNL1        0.3060
     35 H          -8.0447    4.7637   21.0989 H       1  UNL1        0.2545
     36 H          -6.3880    4.9938   21.4308 H       1  UNL1        0.2545
     37 C           0.0388    2.8663   24.5020 C.3     1  UNL1        0.4183
     38 F           1.4203    2.5932   23.9854 F       1  UNL1       -0.1659
     39 F           0.2746    4.3401   24.3535 F       1  UNL1       -0.1659
     40 F          -0.1970    1.3924   24.6506 F       1  UNL1       -0.1659
@<TRIPOS>BOND
     1    31    32    2
     2    32    33    1
     3    32    27    1
     4    27    28   am
     5    28    29    2
     6    28     1    1
     7     1     2   ar
     8     2     3   ar
     9     3     4   ar
    10     4     7    1
    11     7     8    1
    12     8     9    1
    13     9    10    1
    14    10    11   am
    15    11    12    2
    16    11    15    1
    17    15    16   ar
    18    16    17   ar
    19    17    18   ar
    20    18    21    1
    21    21    22    1
    22    21    23    2
    23    21    24    2
    24    18    19   ar
    25    19    20   ar
    26    10    13    1
    27    13    14    1
    28     4     5   ar
    29     5    37    1
    30    37    38    1
    31    37    39    1
    32    37    40    1
    33     5     6   ar
    34     6     1   ar
    35    14     7    1
    36    20    15   ar
    37    31    34    1
    38    33    35    1
    39    33    36    1
    40    27    30    1
    41    22    25    1
    42    22    26    1
@<TRIPOS>MOLECULE
*****
 40 42 0 0 0
SMALL
GASTEIGER

@<TRIPOS>ATOM
      1 C          -3.9033    4.2199   25.6939 C.ar    1  UNL1        0.0696
      2 C          -3.4661    4.1644   24.2601 C.ar    1  UNL1        0.0057
      3 C          -2.1274    3.5879   23.9060 C.ar    1  UNL1       -0.0041
      4 C          -1.2259    3.0667   24.9856 C.ar    1  UNL1       -0.0185
      5 C          -1.6631    3.1222   26.4194 C.ar    1  UNL1        0.0677
      6 C          -3.0018    3.6987   26.7735 C.ar    1  UNL1        0.0095
      7 C           0.1128    2.4902   24.6315 C.3     1  UNL1        0.0257
      8 C           0.1995    1.2914   23.7340 C.3     1  UNL1        0.0259
      9 C           1.5382    0.7149   23.3799 C.3     1  UNL1        0.0940
     10 N           2.7903    1.3370   23.9232 N.am    1  UNL1       -0.2761
     11 C           4.1290    0.7605   23.5691 C.2     1  UNL1        0.2490
     12 O           5.3810    1.3826   24.1124 O.2     1  UNL1       -0.2699
     13 C           2.7036    2.5357   24.8207 C.3     1  UNL1        0.0940
     14 C           1.3649    3.1123   25.1748 C.3     1  UNL1        0.0259
     15 C           4.2157   -0.4383   22.6716 C.ar    1  UNL1        0.0537
     16 C           4.2060   -1.8181   23.2600 C.ar    1  UNL1        0.0059
     17 C           4.2926   -3.0168   22.3625 C.ar    1  UNL1        0.0200
     18 C           4.3890   -2.8358   20.8766 C.ar    1  UNL1        0.1217
     19 C           4.3987   -1.4561   20.2882 C.ar    1  UNL1        0.0200
     20 C           4.3120   -0.2573   21.1857 C.ar    1  UNL1        0.0059
     21 S           4.4757   -4.0346   19.9791 S.O2    1  UNL1        0.0572
     22 N           4.5624   -5.2334   19.0817 N.3     1  UNL1       -0.2035
     23 O           3.1627   -3.6632   19.3561 O.2     1  UNL1       -0.1532
     24 O           5.7887   -4.4060   20.6021 O.2     1  UNL1       -0.1532
     25 H           3.7403   -5.2670   18.4789 H       1  UNL1        0.1442
     26 H           4.6031   -6.0803   19.6487 H       1  UNL1        0.1442
     27 N          -5.4441    5.4621   27.3769 N.am    1  UNL1       -0.1708
     28 C          -5.2420    4.7964   26.0480 C.2     1  UNL1        0.3078
     29 O          -6.3786    4.7073   25.0733 O.2     1  UNL1       -0.2516
     30 H          -4.6981    5.5207   28.0167 H       1  UNL1        0.2545
     31 N          -7.5577    6.8179   26.7101 N.pl3   1  UNL1       -0.1313
     32 C          -6.7828    6.0387   27.7310 C.2     1  UNL1        0.3751
     33 N          -7.3467    5.8360   29.1062 N.pl3   1  UNL1       -0.2906
     34 H          -8.4363    7.1963   26.9425 H       1  UNL1        0.3060
     35 H          -8.2254    6.2144   29.3386 H       1  UNL1        0.2545
     36 H          -6.8381    5.3246   29.7763 H       1  UNL1        0.2545
     37 C          -0.7616    2.6010   27.4991 C.3     1  UNL1        0.4183
     38 F           0.1399    2.0799   28.5788 F       1  UNL1       -0.1659
     39 F          -1.1738    1.1978   27.1660 F       1  UNL1       -0.1659
     40 F          -0.3493    4.0042   27.8322 F       1  UNL1       -0.1659
@<TRIPOS>BOND
     1    31    32    2
     2    32    33    1
     3    32    27    1
     4    27    28   am
     5    28    29    2
     6    28     1    1
     7     1     2   ar
     8     2     3   ar
     9     3     4   ar
    10     4     7    1
    11     7     8    1
    12     8     9    1
    13     9    10    1
    14    10    11   am
    15    11    12    2
    16    11    15    1
    17    15    16   ar
    18    16    17   ar
    19    17    18   ar
    20    18    21    1
    21    21    22    1
    22    21    23    2
    23    21    24    2
    24    18    19   ar
    25    19    20   ar
    26    10    13    1
    27    13    14    1
    28     4     5   ar
    29     5    37    1
    30    37    38    1
    31    37    39    1
    32    37    40    1
    33     5     6   ar
    34     6     1   ar
    35    14     7    1
    36    20    15   ar
    37    31    34    1
    38    33    35    1
    39    33    36    1
    40    27    30    1
    41    22    25    1
    42    22    26    1
@<TRIPOS>MOLECULE
*****
 40 42 0 0 0
SMALL
GASTEIGER

@<TRIPOS>ATOM
      1 C           4.7979   -2.5061   22.9776 C.ar    1  UNL1        0.0696
      2 C           4.1863   -1.5807   23.9873 C.ar    1  UNL1        0.0057
      3 C           3.2895   -0.4660   23.5365 C.ar    1  UNL1       -0.0041
      4 C           3.0045   -0.2767   22.0761 C.ar    1  UNL1       -0.0185
      5 C           3.6161   -1.2021   21.0664 C.ar    1  UNL1        0.0677
      6 C           4.5129   -2.3168   21.5172 C.ar    1  UNL1        0.0095
      7 C           2.1077    0.8381   21.6253 C.3     1  UNL1        0.0257
      8 C           0.6754    0.8746   22.0692 C.3     1  UNL1        0.0259
      9 C          -0.2213    1.9894   21.6184 C.3     1  UNL1        0.0940
     10 N           0.3142    3.0675   20.7237 N.am    1  UNL1       -0.2761
     11 C          -0.5825    4.1823   20.2729 C.2     1  UNL1        0.2490
     12 O          -0.0470    5.2604   19.3781 O.2     1  UNL1       -0.2699
     13 C           1.7465    3.0310   20.2797 C.3     1  UNL1        0.0940
     14 C           2.6433    1.9162   20.7305 C.3     1  UNL1        0.0259
     15 C          -2.0148    4.2188   20.7169 C.ar    1  UNL1        0.0537
     16 C          -2.3821    4.8818   22.0114 C.ar    1  UNL1        0.0059
     17 C          -3.8143    4.9183   22.4554 C.ar    1  UNL1        0.0200
     18 C          -4.8794    4.2920   21.6049 C.ar    1  UNL1        0.1217
     19 C          -4.5122    3.6291   20.3104 C.ar    1  UNL1        0.0200
     20 C          -3.0799    3.5925   19.8664 C.ar    1  UNL1        0.0059
     21 S          -6.3118    4.3286   22.0490 S.O2    1  UNL1        0.0572
     22 N          -7.7441    4.3652   22.4929 N.3     1  UNL1       -0.2035
     23 O          -5.8956    3.9055   23.4265 O.2     1  UNL1       -0.1532
     24 O          -6.7280    4.7516   20.6714 O.2     1  UNL1       -0.1532
     25 H          -7.8019    4.1023   23.4768 H       1  UNL1        0.1442
     26 H          -8.2903    3.7104   21.9333 H       1  UNL1        0.1442
     27 N           6.0048   -3.7911   24.8861 N.am    1  UNL1       -0.1708
     28 C           5.6947   -3.6209   23.4284 C.2     1  UNL1        0.3078
     29 O           6.2813   -4.5653   22.4216 O.2     1  UNL1       -0.2516
     30 H           5.6198   -3.1713   25.5470 H       1  UNL1        0.2545
     31 N           8.1744   -5.1907   24.5962 N.pl3   1  UNL1       -0.1313
     32 C           6.9015   -4.9059   25.3369 C.2     1  UNL1        0.3751
     33 N           6.5254   -5.7358   26.5285 N.pl3   1  UNL1       -0.2906
     34 H           8.7629   -5.9223   24.8921 H       1  UNL1        0.3060
     35 H           7.1139   -6.4675   26.8244 H       1  UNL1        0.2545
     36 H           5.6899   -5.5489   27.0146 H       1  UNL1        0.2545
     37 C           3.3311   -1.0129   19.6059 C.3     1  UNL1        0.4183
     38 F           3.0461   -0.8236   18.1455 F       1  UNL1       -0.1659
     39 F           1.9947   -1.6711   19.7814 F       1  UNL1       -0.1659
     40 F           4.6674   -0.3546   19.4305 F       1  UNL1       -0.1659
@<TRIPOS>BOND
     1    31    32    2
     2    32    33    1
     3    32    27    1
     4    27    28   am
     5    28    29    2
     6    28     1    1
     7     1     2   ar
     8     2     3   ar
     9     3     4   ar
    10     4     7    1
    11     7     8    1
    12     8     9    1
    13     9    10    1
    14    10    11   am
    15    11    12    2
    16    11    15    1
    17    15    16   ar
    18    16    17   ar
    19    17    18   ar
    20    18    21    1
    21    21    22    1
    22    21    23    2
    23    21    24    2
    24    18    19   ar
    25    19    20   ar
    26    10    13    1
    27    13    14    1
    28     4     5   ar
    29     5    37    1
    30    37    38    1
    31    37    39    1
    32    37    40    1
    33     5     6   ar
    34     6     1   ar
    35    14     7    1
    36    20    15   ar
    37    31    34    1
    38    33    35    1
    39    33    36    1
    40    27    30    1
    41    22    25    1
    42    22    26    1
@<TRIPOS>MOLECULE
*****
 40 42 0 0 0
SMALL
GASTEIGER

@<TRIPOS>ATOM
      1 C           1.4951    0.2896   20.3613 C.ar    1  UNL1        0.0696
      2 C           1.8731    0.3777   21.8101 C.ar    1  UNL1        0.0057
      3 C           2.9404   -0.5199   22.3627 C.ar    1  UNL1       -0.0041
      4 C           3.6296   -1.5056   21.4665 C.ar    1  UNL1       -0.0185
      5 C           3.2516   -1.5937   20.0176 C.ar    1  UNL1        0.0677
      6 C           2.1844   -0.6961   19.4650 C.ar    1  UNL1        0.0095
      7 C           4.6968   -2.4032   22.0191 C.3     1  UNL1        0.0257
      8 C           4.7559   -2.6794   23.4922 C.3     1  UNL1        0.0259
      9 C           5.8231   -3.5770   24.0448 C.3     1  UNL1        0.0940
     10 N           6.8313   -4.1983   23.1243 N.am    1  UNL1       -0.2761
     11 C           7.8985   -5.0959   23.6769 C.2     1  UNL1        0.2490
     12 O           8.9067   -5.7172   22.7564 O.2     1  UNL1       -0.2699
     13 C           6.7723   -3.9221   21.6512 C.3     1  UNL1        0.0940
     14 C           5.7050   -3.0245   21.0986 C.3     1  UNL1        0.0259
     15 C           7.9576   -5.3722   25.1500 C.ar    1  UNL1        0.0537
     16 C           8.5216   -4.3429   26.0841 C.ar    1  UNL1        0.0059
     17 C           8.5806   -4.6191   27.5573 C.ar    1  UNL1        0.0200
     18 C           8.0756   -5.9246   28.0964 C.ar    1  UNL1        0.1217
     19 C           7.5116   -6.9539   27.1623 C.ar    1  UNL1        0.0200
     20 C           7.4525   -6.6777   25.6891 C.ar    1  UNL1        0.0059
     21 S           8.1347   -6.2008   29.5696 S.O2    1  UNL1        0.0572
     22 N           8.1937   -6.4771   31.0427 N.3     1  UNL1       -0.2035
     23 O           6.7703   -5.6004   29.7369 O.2     1  UNL1       -0.1532
     24 O           9.4990   -6.8013   29.4023 O.2     1  UNL1       -0.1532
     25 H           7.3324   -6.1547   31.4839 H       1  UNL1        0.1442
     26 H           8.9890   -5.9845   31.4494 H       1  UNL1        0.1442
     27 N          -0.5395    1.8611   20.7359 N.am    1  UNL1       -0.1708
     28 C           0.4279    1.1871   19.8086 C.2     1  UNL1        0.3078
     29 O           0.3281    1.4108   18.3288 O.2     1  UNL1       -0.2516
     30 H          -0.4741    1.7143   21.7072 H       1  UNL1        0.2545
     31 N          -3.0077    2.6719   20.7122 N.pl3   1  UNL1       -0.1313
     32 C          -1.6068    2.7586   20.1833 C.2     1  UNL1        0.3751
     33 N          -1.2730    3.7430   19.1017 N.pl3   1  UNL1       -0.2906
     34 H          -3.7082    3.2610   20.3495 H       1  UNL1        0.3060
     35 H          -1.9734    4.3321   18.7390 H       1  UNL1        0.2545
     36 H          -0.3535    3.8000   18.7546 H       1  UNL1        0.2545
     37 C           3.9408   -2.5794   19.1212 C.3     1  UNL1        0.4183
     38 F           4.6301   -3.5650   18.2249 F       1  UNL1       -0.1659
     39 F           2.9921   -3.6510   19.5701 F       1  UNL1       -0.1659
     40 F           4.8896   -1.5078   18.6724 F       1  UNL1       -0.1659
@<TRIPOS>BOND
     1    31    32    2
     2    32    33    1
     3    32    27    1
     4    27    28   am
     5    28    29    2
     6    28     1    1
     7     1     2   ar
     8     2     3   ar
     9     3     4   ar
    10     4     7    1
    11     7     8    1
    12     8     9    1
    13     9    10    1
    14    10    11   am
    15    11    12    2
    16    11    15    1
    17    15    16   ar
    18    16    17   ar
    19    17    18   ar
    20    18    21    1
    21    21    22    1
    22    21    23    2
    23    21    24    2
    24    18    19   ar
    25    19    20   ar
    26    10    13    1
    27    13    14    1
    28     4     5   ar
    29     5    37    1
    30    37    38    1
    31    37    39    1
    32    37    40    1
    33     5     6   ar
    34     6     1   ar
    35    14     7    1
    36    20    15   ar
    37    31    34    1
    38    33    35    1
    39    33    36    1
    40    27    30    1
    41    22    25    1
    42    22    26    1
@<TRIPOS>MOLECULE
*****
 40 42 0 0 0
SMALL
GASTEIGER

@<TRIPOS>ATOM
      1 C           3.3737   -0.4563   28.0836 C.ar    1  UNL1        0.0696
      2 C           3.6175    0.5475   26.9960 C.ar    1  UNL1        0.0057
      3 C           2.5319    1.5046   26.6017 C.ar    1  UNL1       -0.0041
      4 C           1.2026    1.4579   27.2949 C.ar    1  UNL1       -0.0185
      5 C           0.9588    0.4541   28.3825 C.ar    1  UNL1        0.0677
      6 C           2.0444   -0.5030   28.7768 C.ar    1  UNL1        0.0095
      7 C           0.1170    2.4150   26.9006 C.3     1  UNL1        0.0257
      8 C          -0.6898    2.1647   25.6611 C.3     1  UNL1        0.0259
      9 C          -1.7753    3.1218   25.2667 C.3     1  UNL1        0.0940
     10 N          -2.0541    4.3292   26.1119 N.am    1  UNL1       -0.2761
     11 C          -3.1397    5.2863   25.7176 C.2     1  UNL1        0.2490
     12 O          -3.4185    6.4937   26.5627 O.2     1  UNL1       -0.2699
     13 C          -1.2474    4.5795   27.3514 C.3     1  UNL1        0.0940
     14 C          -0.1618    3.6224   27.7457 C.3     1  UNL1        0.0259
     15 C          -3.9465    5.0360   24.4781 C.ar    1  UNL1        0.0537
     16 C          -3.4587    5.5384   23.1515 C.ar    1  UNL1        0.0059
     17 C          -4.2655    5.2880   21.9120 C.ar    1  UNL1        0.0200
     18 C          -5.5601    4.5353   21.9990 C.ar    1  UNL1        0.1217
     19 C          -6.0478    4.0329   23.3255 C.ar    1  UNL1        0.0200
     20 C          -5.2410    4.2832   24.5651 C.ar    1  UNL1        0.0059
     21 S          -6.3668    4.2850   20.7594 S.O2    1  UNL1        0.0572
     22 N          -7.1736    4.0347   19.5199 N.3     1  UNL1       -0.2035
     23 O          -5.3016    3.3583   20.2531 O.2     1  UNL1       -0.1532
     24 O          -7.4321    5.2117   21.2656 O.2     1  UNL1       -0.1532
     25 H          -6.6735    3.3838   18.9143 H       1  UNL1        0.1442
     26 H          -7.3197    4.9150   19.0258 H       1  UNL1        0.1442
     27 N           4.9707   -2.4169   27.4873 N.am    1  UNL1       -0.1708
     28 C           4.4593   -1.4134   28.4779 C.2     1  UNL1        0.3078
     29 O           5.0334   -1.3670   29.8629 O.2     1  UNL1       -0.2516
     30 H           4.5939   -2.4474   26.5783 H       1  UNL1        0.2545
     31 N           5.9043   -4.8389   27.5974 N.pl3   1  UNL1       -0.1313
     32 C           6.0563   -3.3740   27.8816 C.2     1  UNL1        0.3751
     33 N           7.2939   -2.8661   28.5602 N.pl3   1  UNL1       -0.2906
     34 H           6.6168   -5.4671   27.8562 H       1  UNL1        0.3060
     35 H           8.0064   -3.4942   28.8191 H       1  UNL1        0.2545
     36 H           7.3936   -1.9046   28.7468 H       1  UNL1        0.2545
     37 C          -0.3706    0.4073   29.0758 C.3     1  UNL1        0.4183
     38 F          -1.6999    0.3606   29.7691 F       1  UNL1       -0.1659
     39 F          -0.8874   -0.5267   28.0221 F       1  UNL1       -0.1659
     40 F           0.1462    1.3414   30.1296 F       1  UNL1       -0.1659
@<TRIPOS>BOND
     1    31    32    2
     2    32    33    1
     3    32    27    1
     4    27    28   am
     5    28    29    2
     6    28     1    1
     7     1     2   ar
     8     2     3   ar
     9     3     4   ar
    10     4     7    1
    11     7     8    1
    12     8     9    1
    13     9    10    1
    14    10    11   am
    15    11    12    2
    16    11    15    1
    17    15    16   ar
    18    16    17   ar
    19    17    18   ar
    20    18    21    1
    21    21    22    1
    22    21    23    2
    23    21    24    2
    24    18    19   ar
    25    19    20   ar
    26    10    13    1
    27    13    14    1
    28     4     5   ar
    29     5    37    1
    30    37    38    1
    31    37    39    1
    32    37    40    1
    33     5     6   ar
    34     6     1   ar
    35    14     7    1
    36    20    15   ar
    37    31    34    1
    38    33    35    1
    39    33    36    1
    40    27    30    1
    41    22    25    1
    42    22    26    1
@<TRIPOS>MOLECULE
*****
 40 42 0 0 0
SMALL
GASTEIGER

@<TRIPOS>ATOM
      1 C          -1.5840    3.5202   26.4086 C.ar    1  UNL1        0.0696
      2 C          -1.1553    4.7874   27.0871 C.ar    1  UNL1        0.0057
      3 C          -0.2218    4.7314   28.2599 C.ar    1  UNL1       -0.0041
      4 C           0.2831    3.4083   28.7542 C.ar    1  UNL1       -0.0185
      5 C          -0.1456    2.1411   28.0757 C.ar    1  UNL1        0.0677
      6 C          -1.0791    2.1970   26.9029 C.ar    1  UNL1        0.0095
      7 C           1.2166    3.3523   29.9270 C.3     1  UNL1        0.0257
      8 C           0.6704    3.1736   31.3125 C.3     1  UNL1        0.0259
      9 C           1.6039    3.1177   32.4853 C.3     1  UNL1        0.0940
     10 N           3.0836    3.2404   32.2726 N.am    1  UNL1       -0.2761
     11 C           4.0171    3.1845   33.4454 C.2     1  UNL1        0.2490
     12 O           5.4968    3.3073   33.2327 O.2     1  UNL1       -0.2699
     13 C           3.6298    3.4192   30.8871 C.3     1  UNL1        0.0940
     14 C           2.6963    3.4751   29.7143 C.3     1  UNL1        0.0259
     15 C           3.4709    3.0058   34.8309 C.ar    1  UNL1        0.0537
     16 C           3.6332    1.6926   35.5375 C.ar    1  UNL1        0.0059
     17 C           3.0870    1.5139   36.9230 C.ar    1  UNL1        0.0200
     18 C           2.3784    2.6483   37.6020 C.ar    1  UNL1        0.1217
     19 C           2.2161    3.9615   36.8954 C.ar    1  UNL1        0.0200
     20 C           2.7623    4.1402   35.5098 C.ar    1  UNL1        0.0059
     21 S           1.8322    2.4696   38.9875 S.O2    1  UNL1        0.0572
     22 N           1.2860    2.2908   40.3731 N.3     1  UNL1       -0.2035
     23 O           0.4523    2.7706   38.4824 O.2     1  UNL1       -0.1532
     24 O           3.2121    2.1686   39.4926 O.2     1  UNL1       -0.1532
     25 H           0.2776    2.4433   40.3633 H       1  UNL1        0.1442
     26 H           1.7256    2.9636   41.0012 H       1  UNL1        0.1442
     27 N          -3.9617    3.9242   25.4428 N.am    1  UNL1       -0.1708
     28 C          -2.5175    3.5761   25.2359 C.2     1  UNL1        0.3078
     29 O          -2.0067    3.2840   23.8561 O.2     1  UNL1       -0.2516
     30 H          -4.2970    4.1160   26.3484 H       1  UNL1        0.2545
     31 N          -5.0698    2.7764   23.3923 N.pl3   1  UNL1       -0.1313
     32 C          -4.8952    3.9802   24.2700 C.2     1  UNL1        0.3751
     33 N          -5.6542    5.2400   23.9749 N.pl3   1  UNL1       -0.2906
     34 H          -5.6825    2.8131   22.6226 H       1  UNL1        0.3060
     35 H          -6.2669    5.2767   23.2052 H       1  UNL1        0.2545
     36 H          -5.5396    6.0301   24.5510 H       1  UNL1        0.2545
     37 C           0.3592    0.8178   28.5700 C.3     1  UNL1        0.4183
     38 F           0.8640   -0.5053   29.0643 F       1  UNL1       -0.1659
     39 F           1.5221    0.9092   27.6270 F       1  UNL1       -0.1659
     40 F          -0.8036    0.7265   29.5130 F       1  UNL1       -0.1659
@<TRIPOS>BOND
     1    31    32    2
     2    32    33    1
     3    32    27    1
     4    27    28   am
     5    28    29    2
     6    28     1    1
     7     1     2   ar
     8     2     3   ar
     9     3     4   ar
    10     4     7    1
    11     7     8    1
    12     8     9    1
    13     9    10    1
    14    10    11   am
    15    11    12    2
    16    11    15    1
    17    15    16   ar
    18    16    17   ar
    19    17    18   ar
    20    18    21    1
    21    21    22    1
    22    21    23    2
    23    21    24    2
    24    18    19   ar
    25    19    20   ar
    26    10    13    1
    27    13    14    1
    28     4     5   ar
    29     5    37    1
    30    37    38    1
    31    37    39    1
    32    37    40    1
    33     5     6   ar
    34     6     1   ar
    35    14     7    1
    36    20    15   ar
    37    31    34    1
    38    33    35    1
    39    33    36    1
    40    27    30    1
    41    22    25    1
    42    22    26    1
@<TRIPOS>MOLECULE
*****
 40 42 0 0 0
SMALL
GASTEIGER

@<TRIPOS>ATOM
      1 C           1.5899    2.6640   30.8627 C.ar    1  UNL1        0.0696
      2 C           2.1787    3.6631   29.9114 C.ar    1  UNL1        0.0057
      3 C           1.8993    3.5543   28.4417 C.ar    1  UNL1       -0.0041
      4 C           1.0310    2.4464   27.9233 C.ar    1  UNL1       -0.0185
      5 C           0.4422    1.4474   28.8747 C.ar    1  UNL1        0.0677
      6 C           0.7216    1.5562   30.3444 C.ar    1  UNL1        0.0095
      7 C           0.7516    2.3376   26.4536 C.3     1  UNL1        0.0257
      8 C           1.6823    1.5627   25.5685 C.3     1  UNL1        0.0259
      9 C           1.4029    1.4539   24.0988 C.3     1  UNL1        0.0940
     10 N           0.1928    2.1201   23.5141 N.am    1  UNL1       -0.2761
     11 C          -0.0866    2.0113   22.0444 C.2     1  UNL1        0.2490
     12 O          -1.2967    2.6774   21.4597 O.2     1  UNL1       -0.2699
     13 C          -0.7379    2.8950   24.3992 C.3     1  UNL1        0.0940
     14 C          -0.4585    3.0038   25.8689 C.3     1  UNL1        0.0259
     15 C           0.8440    1.2364   21.1594 C.ar    1  UNL1        0.0537
     16 C           0.5811   -0.2141   20.8818 C.ar    1  UNL1        0.0059
     17 C           1.5118   -0.9890   19.9967 C.ar    1  UNL1        0.0200
     18 C           2.7054   -0.3135   19.3893 C.ar    1  UNL1        0.1217
     19 C           2.9683    1.1369   19.6668 C.ar    1  UNL1        0.0200
     20 C           2.0376    1.9119   20.5519 C.ar    1  UNL1        0.0059
     21 S           3.6361   -1.0885   18.5042 S.O2    1  UNL1        0.0572
     22 N           4.5667   -1.8635   17.6192 N.3     1  UNL1       -0.2035
     23 O           3.7041    0.0735   17.5581 O.2     1  UNL1       -0.1532
     24 O           3.5681   -2.2505   19.4503 O.2     1  UNL1       -0.1532
     25 H           4.8213   -1.2942   16.8121 H       1  UNL1        0.1442
     26 H           4.1038   -2.7153   17.3021 H       1  UNL1        0.1442
     27 N           2.8403    1.8326   32.9829 N.am    1  UNL1       -0.1708
     28 C           1.8693    2.7728   32.3325 C.2     1  UNL1        0.3078
     29 O           1.1778    3.8218   33.1517 O.2     1  UNL1       -0.2516
     30 H           3.2942    1.1440   32.4452 H       1  UNL1        0.2545
     31 N           2.0359    2.3815   35.3916 N.pl3   1  UNL1       -0.1313
     32 C           3.1197    1.9414   34.4526 C.2     1  UNL1        0.3751
     33 N           4.4830    1.6100   34.9834 N.pl3   1  UNL1       -0.2906
     34 H           2.2193    2.4529   36.3562 H       1  UNL1        0.3060
     35 H           4.6664    1.6814   35.9480 H       1  UNL1        0.2545
     36 H           5.1944    1.3212   34.3672 H       1  UNL1        0.2545
     37 C          -0.4261    0.3395   28.3563 C.3     1  UNL1        0.4183
     38 F          -1.2945   -0.7683   27.8380 F       1  UNL1       -0.1659
     39 F           0.7540   -0.5863   28.3579 F       1  UNL1       -0.1659
     40 F          -1.6063    1.2653   28.3547 F       1  UNL1       -0.1659
@<TRIPOS>BOND
     1    31    32    2
     2    32    33    1
     3    32    27    1
     4    27    28   am
     5    28    29    2
     6    28     1    1
     7     1     2   ar
     8     2     3   ar
     9     3     4   ar
    10     4     7    1
    11     7     8    1
    12     8     9    1
    13     9    10    1
    14    10    11   am
    15    11    12    2
    16    11    15    1
    17    15    16   ar
    18    16    17   ar
    19    17    18   ar
    20    18    21    1
    21    21    22    1
    22    21    23    2
    23    21    24    2
    24    18    19   ar
    25    19    20   ar
    26    10    13    1
    27    13    14    1
    28     4     5   ar
    29     5    37    1
    30    37    38    1
    31    37    39    1
    32    37    40    1
    33     5     6   ar
    34     6     1   ar
    35    14     7    1
    36    20    15   ar
    37    31    34    1
    38    33    35    1
    39    33    36    1
    40    27    30    1
    41    22    25    1
    42    22    26    1
@<TRIPOS>MOLECULE
*****
 40 42 0 0 0
SMALL
GASTEIGER

@<TRIPOS>ATOM
      1 C           3.2331   -0.0814   29.2528 C.ar    1  UNL1        0.0696
      2 C           3.6726    0.9651   28.2722 C.ar    1  UNL1        0.0057
      3 C           2.6530    1.8230   27.5834 C.ar    1  UNL1       -0.0041
      4 C           1.1938    1.6342   27.8751 C.ar    1  UNL1       -0.0185
      5 C           0.7543    0.5876   28.8557 C.ar    1  UNL1        0.0677
      6 C           1.7739   -0.2702   29.5445 C.ar    1  UNL1        0.0095
      7 C           0.1741    2.4920   27.1863 C.3     1  UNL1        0.0257
      8 C          -0.3158    2.1222   25.8177 C.3     1  UNL1        0.0259
      9 C          -1.3354    2.9800   25.1289 C.3     1  UNL1        0.0940
     10 N          -1.8651    4.2077   25.8087 N.am    1  UNL1       -0.2761
     11 C          -2.8848    5.0655   25.1199 C.2     1  UNL1        0.2490
     12 O          -3.4145    6.2932   25.7997 O.2     1  UNL1       -0.2699
     13 C          -1.3752    4.5775   27.1773 C.3     1  UNL1        0.0940
     14 C          -0.3556    3.7197   27.8661 C.3     1  UNL1        0.0259
     15 C          -3.3747    4.6957   23.7513 C.ar    1  UNL1        0.0537
     16 C          -4.5274    3.7481   23.5980 C.ar    1  UNL1        0.0059
     17 C          -5.0174    3.3783   22.2294 C.ar    1  UNL1        0.0200
     18 C          -4.3546    3.9560   21.0140 C.ar    1  UNL1        0.1217
     19 C          -3.2020    4.9035   21.1673 C.ar    1  UNL1        0.0200
     20 C          -2.7120    5.2734   22.5359 C.ar    1  UNL1        0.0059
     21 S          -4.8446    3.5861   19.6453 S.O2    1  UNL1        0.0572
     22 N          -5.3345    3.2162   18.2767 N.3     1  UNL1       -0.2035
     23 O          -6.2568    3.5861   20.1508 O.2     1  UNL1       -0.1532
     24 O          -3.4324    3.5860   19.1398 O.2     1  UNL1       -0.1532
     25 H          -6.3510    3.1324   18.2906 H       1  UNL1        0.1442
     26 H          -4.9237    2.3252   17.9978 H       1  UNL1        0.1442
     27 N           4.1481   -1.1906   31.4166 N.am    1  UNL1       -0.1708
     28 C           4.2527   -0.9393   29.9416 C.2     1  UNL1        0.3078
     29 O           5.3770   -1.5458   29.1553 O.2     1  UNL1       -0.2516
     30 H           3.4103   -0.7925   31.9327 H       1  UNL1        0.2545
     31 N           6.6303   -1.7909   31.8944 N.pl3   1  UNL1       -0.1313
     32 C           5.1678   -2.0484   32.1054 C.2     1  UNL1        0.3751
     33 N           4.7248   -3.1639   33.0053 N.pl3   1  UNL1       -0.2906
     34 H           7.2996   -2.3539   32.3465 H       1  UNL1        0.3060
     35 H           5.3940   -3.7269   33.4574 H       1  UNL1        0.2545
     36 H           3.7649   -3.3329   33.1438 H       1  UNL1        0.2545
     37 C          -0.7050    0.3989   29.1474 C.3     1  UNL1        0.4183
     38 F          -2.1641    0.2101   29.4392 F       1  UNL1       -0.1659
     39 F          -0.8167   -0.5390   27.9821 F       1  UNL1       -0.1659
     40 F          -0.5933    1.3367   30.3127 F       1  UNL1       -0.1659
@<TRIPOS>BOND
     1    31    32    2
     2    32    33    1
     3    32    27    1
     4    27    28   am
     5    28    29    2
     6    28     1    1
     7     1     2   ar
     8     2     3   ar
     9     3     4   ar
    10     4     7    1
    11     7     8    1
    12     8     9    1
    13     9    10    1
    14    10    11   am
    15    11    12    2
    16    11    15    1
    17    15    16   ar
    18    16    17   ar
    19    17    18   ar
    20    18    21    1
    21    21    22    1
    22    21    23    2
    23    21    24    2
    24    18    19   ar
    25    19    20   ar
    26    10    13    1
    27    13    14    1
    28     4     5   ar
    29     5    37    1
    30    37    38    1
    31    37    39    1
    32    37    40    1
    33     5     6   ar
    34     6     1   ar
    35    14     7    1
    36    20    15   ar
    37    31    34    1
    38    33    35    1
    39    33    36    1
    40    27    30    1
    41    22    25    1
    42    22    26    1
@<TRIPOS>MOLECULE
*****
 40 42 0 0 0
SMALL
GASTEIGER

@<TRIPOS>ATOM
      1 C           0.6800    1.7189   20.4722 C.ar    1  UNL1        0.0696
      2 C           1.2469    2.0035   21.8315 C.ar    1  UNL1        0.0057
      3 C           2.4793    1.2853   22.2956 C.ar    1  UNL1       -0.0041
      4 C           3.1449    0.2826   21.4004 C.ar    1  UNL1       -0.0185
      5 C           2.5780   -0.0020   20.0411 C.ar    1  UNL1        0.0677
      6 C           1.3456    0.7162   19.5770 C.ar    1  UNL1        0.0095
      7 C           4.3773   -0.4356   21.8644 C.3     1  UNL1        0.0257
      8 C           4.2530   -1.6836   22.6872 C.3     1  UNL1        0.0259
      9 C           5.4855   -2.4018   23.1513 C.3     1  UNL1        0.0940
     10 N           6.8421   -1.8720   22.7926 N.am    1  UNL1       -0.2761
     11 C           8.0745   -2.5902   23.2567 C.2     1  UNL1        0.2490
     12 O           9.4312   -2.0603   22.8980 O.2     1  UNL1       -0.2699
     13 C           6.9664   -0.6240   21.9698 C.3     1  UNL1        0.0940
     14 C           5.7339    0.0942   21.5057 C.3     1  UNL1        0.0259
     15 C           7.9503   -3.8382   24.0794 C.ar    1  UNL1        0.0537
     16 C           7.6414   -3.7431   25.5443 C.ar    1  UNL1        0.0059
     17 C           7.5171   -4.9911   26.3670 C.ar    1  UNL1        0.0200
     18 C           7.7018   -6.3342   25.7251 C.ar    1  UNL1        0.1217
     19 C           8.0107   -6.4293   24.2603 C.ar    1  UNL1        0.0200
     20 C           8.1349   -5.1812   23.4375 C.ar    1  UNL1        0.0059
     21 S           7.5775   -7.5822   26.5479 S.O2    1  UNL1        0.0572
     22 N           7.4533   -8.8302   27.3707 N.3     1  UNL1       -0.2035
     23 O           7.5316   -6.7538   27.7976 O.2     1  UNL1       -0.1532
     24 O           7.6235   -8.4107   25.2983 O.2     1  UNL1       -0.1532
     25 H           7.3957   -8.5820   28.3584 H       1  UNL1        0.1442
     26 H           8.2694   -9.4222   27.2160 H       1  UNL1        0.1442
     27 N          -1.7554    2.5159   20.9006 N.am    1  UNL1       -0.1708
     28 C          -0.5524    2.4371   20.0082 C.2     1  UNL1        0.3078
     29 O          -0.5818    3.0765   18.6516 O.2     1  UNL1       -0.2516
     30 H          -1.7361    2.0962   21.7910 H       1  UNL1        0.2545
     31 N          -2.8637    4.5051   19.6498 N.pl3   1  UNL1       -0.1313
     32 C          -2.9878    3.2341   20.4366 C.2     1  UNL1        0.3751
     33 N          -4.3444    2.6812   20.7593 N.pl3   1  UNL1       -0.2906
     34 H          -3.6726    4.9765   19.3452 H       1  UNL1        0.3060
     35 H          -5.1533    3.1525   20.4547 H       1  UNL1        0.2545
     36 H          -4.4258    1.8469   21.2757 H       1  UNL1        0.2545
     37 C           3.2436   -1.0048   19.1458 C.3     1  UNL1        0.4183
     38 F           3.9092   -2.0076   18.2506 F       1  UNL1       -0.1659
     39 F           4.0291    0.0960   18.4967 F       1  UNL1       -0.1659
     40 F           2.4582   -2.1055   19.7949 F       1  UNL1       -0.1659
@<TRIPOS>BOND
     1    31    32    2
     2    32    33    1
     3    32    27    1
     4    27    28   am
     5    28    29    2
     6    28     1    1
     7     1     2   ar
     8     2     3   ar
     9     3     4   ar
    10     4     7    1
    11     7     8    1
    12     8     9    1
    13     9    10    1
    14    10    11   am
    15    11    12    2
    16    11    15    1
    17    15    16   ar
    18    16    17   ar
    19    17    18   ar
    20    18    21    1
    21    21    22    1
    22    21    23    2
    23    21    24    2
    24    18    19   ar
    25    19    20   ar
    26    10    13    1
    27    13    14    1
    28     4     5   ar
    29     5    37    1
    30    37    38    1
    31    37    39    1
    32    37    40    1
    33     5     6   ar
    34     6     1   ar
    35    14     7    1
    36    20    15   ar
    37    31    34    1
    38    33    35    1
    39    33    36    1
    40    27    30    1
    41    22    25    1
    42    22    26    1
