@<TRIPOS>MOLECULE
*****
 40 43 0 0 0
SMALL
GASTEIGER

@<TRIPOS>ATOM
      1 C           0.3820    2.2179   26.1279 C.3     1  UNL1        0.0622
      2 C           0.2343    2.6556   24.7009 C.3     1  UNL1        0.0219
      3 C          -1.0773    3.1969   24.2144 C.3     1  UNL1        0.0680
      4 C          -2.2412    3.3004   25.1550 C.3     1  UNL1        0.2640
      5 F          -3.6230    3.5910   25.6609 F       1  UNL1       -0.2043
      6 F          -2.8688    3.8391   23.9036 F       1  UNL1       -0.2043
      7 C          -2.0935    2.8627   26.5820 C.3     1  UNL1        0.0680
      8 C          -0.7818    2.3214   27.0686 C.3     1  UNL1        0.0219
      9 N           1.0097    1.6791   27.3794 N.3     1  UNL1       -0.2712
     10 C           1.4514    0.2470   27.4402 C.3     1  UNL1        0.0915
     11 C           2.0791   -0.2917   28.6916 C.3     1  UNL1        0.1132
     12 N           2.2650    0.6017   29.8820 N.3     1  UNL1       -0.1512
     13 C           1.8232    2.0340   29.8211 C.3     1  UNL1        0.1132
     14 C           1.1955    2.5726   28.5698 C.3     1  UNL1        0.0915
     15 S           2.8926    0.0631   31.1334 S.O2    1  UNL1        0.0833
     16 O           3.7484   -0.8531   30.3098 O.2     1  UNL1       -0.1512
     17 O           2.0369    0.9793   31.9570 O.2     1  UNL1       -0.1512
     18 C           3.5203   -0.4756   32.3847 C.ar    1  UNL1        0.2440
     19 C           3.8910    0.3228   33.5993 C.ar    1  UNL1        0.1380
     20 N           4.4872   -0.6153   34.6064 N.ar    1  UNL1       -0.2267
     21 C           4.9963   -0.2410   35.9669 C.3     1  UNL1        0.1556
     22 N           4.4851   -1.9935   34.0144 N.ar    1  UNL1       -0.0624
     23 N           3.8875   -1.9072   32.6413 N.ar    1  UNL1       -0.1084
     24 C           2.9192    2.7739   26.0675 C.3     1  UNL1        0.0226
     25 C           1.7638    1.9272   25.6220 C.3     1  UNL1        0.0852
     26 N           1.9904    0.7900   24.6705 N.am    1  UNL1       -0.3012
     27 C           2.8177    0.9980   23.4367 C.2     1  UNL1        0.2467
     28 O           3.4185    2.3431   23.1544 O.2     1  UNL1       -0.2701
     29 H           1.5961   -0.0928   24.8557 H       1  UNL1        0.1497
     30 C           3.0443   -0.1393   22.4851 C.ar    1  UNL1        0.0639
     31 C           4.0301   -1.2172   22.8258 C.ar    1  UNL1        0.0053
     32 C           4.2566   -2.3544   21.8743 C.ar    1  UNL1        0.0041
     33 C           3.4974   -2.4136   20.5820 C.ar    1  UNL1        0.0723
     34 C           2.5116   -1.3356   20.2412 C.ar    1  UNL1        0.0154
     35 C           2.2850   -0.1985   21.1928 C.ar    1  UNL1        0.0620
     36 CL          1.2992    0.8796   20.8521 Cl      1  UNL1       -0.0821
     37 C           3.7240   -3.5508   19.6304 C.3     1  UNL1        0.4186
     38 F           3.9505   -4.6880   18.6789 F       1  UNL1       -0.1659
     39 F           3.5488   -2.6155   18.4709 F       1  UNL1       -0.1659
     40 F           3.8991   -4.4861   20.7899 F       1  UNL1       -0.1659
@<TRIPOS>BOND
     1    24    25    1
     2    25    26    1
     3    26    27   am
     4    27    28    2
     5    27    30    1
     6    30    31   ar
     7    31    32   ar
     8    32    33   ar
     9    33    37    1
    10    37    38    1
    11    37    39    1
    12    37    40    1
    13    33    34   ar
    14    34    35   ar
    15    35    36    1
    16    25     1    1
    17     1     9    1
    18     9    10    1
    19    10    11    1
    20    11    12    1
    21    12    15    1
    22    15    16    2
    23    15    17    2
    24    15    18    1
    25    18    19   ar
    26    19    20   ar
    27    20    21    1
    28    20    22   ar
    29    22    23   ar
    30    12    13    1
    31    13    14    1
    32     1     2    1
    33     2     3    1
    34     3     4    1
    35     4     5    1
    36     4     6    1
    37     4     7    1
    38     7     8    1
    39    35    30   ar
    40     8     1    1
    41    14     9    1
    42    23    18   ar
    43    26    29    1
@<TRIPOS>MOLECULE
*****
 40 43 0 0 0
SMALL
GASTEIGER

@<TRIPOS>ATOM
      1 C          -1.4036    3.4700   25.4358 C.3     1  UNL1        0.0622
      2 C          -1.6841    4.0794   24.0942 C.3     1  UNL1        0.0219
      3 C          -3.0883    4.4476   23.7166 C.3     1  UNL1        0.0680
      4 C          -4.2120    4.2062   24.6804 C.3     1  UNL1        0.2640
      5 F          -5.6006    4.1725   25.2467 F       1  UNL1       -0.2043
      6 F          -4.9748    4.8040   23.5355 F       1  UNL1       -0.2043
      7 C          -3.9315    3.5968   26.0220 C.3     1  UNL1        0.0680
      8 C          -2.5272    3.2286   26.3997 C.3     1  UNL1        0.0219
      9 N          -0.6407    2.8722   26.5807 N.3     1  UNL1       -0.2712
     10 C          -0.4769    1.3843   26.6772 C.3     1  UNL1        0.0915
     11 C           0.2859    0.7865   27.8222 C.3     1  UNL1        0.1132
     12 N           0.8848    1.6766   28.8705 N.3     1  UNL1       -0.1512
     13 C           0.7210    3.1645   28.7739 C.3     1  UNL1        0.1132
     14 C          -0.0418    3.7623   27.6290 C.3     1  UNL1        0.0915
     15 S           1.6476    1.0789   30.0154 S.O2    1  UNL1        0.0833
     16 O           2.3947    2.3677   30.1905 O.2     1  UNL1       -0.1512
     17 O           0.9006   -0.2100   29.8403 O.2     1  UNL1       -0.1512
     18 C           2.4105    0.4811   31.1603 C.ar    1  UNL1        0.2440
     19 C           2.9158    1.2196   32.3642 C.ar    1  UNL1        0.1380
     20 N           3.6195    0.2349   33.2503 N.ar    1  UNL1       -0.2267
     21 C           4.2780    0.5431   34.5623 C.3     1  UNL1        0.1556
     22 N           3.5491   -1.1121   32.5941 N.ar    1  UNL1       -0.0624
     23 N           2.8018   -0.9599   31.3024 N.ar    1  UNL1       -0.1084
     24 C           0.7972    4.7623   24.9493 C.3     1  UNL1        0.0226
     25 C          -0.0150    3.5037   24.8695 C.3     1  UNL1        0.0852
     26 N           0.5614    2.2789   24.2234 N.am    1  UNL1       -0.3012
     27 C           1.2387    2.3831   22.8890 C.2     1  UNL1        0.2467
     28 O           1.3395    3.7121   22.2008 O.2     1  UNL1       -0.2701
     29 H           0.4953    1.4066   24.6751 H       1  UNL1        0.1497
     30 C           1.8152    1.1582   22.2429 C.ar    1  UNL1        0.0639
     31 C           3.0618    0.5343   22.7966 C.ar    1  UNL1        0.0053
     32 C           3.6382   -0.6904   22.1504 C.ar    1  UNL1        0.0041
     33 C           2.9680   -1.2913   20.9505 C.ar    1  UNL1        0.0723
     34 C           1.7214   -0.6675   20.3968 C.ar    1  UNL1        0.0154
     35 C           1.1449    0.5573   21.0430 C.ar    1  UNL1        0.0620
     36 CL         -0.1018    1.1813   20.4893 Cl      1  UNL1       -0.0821
     37 C           3.5445   -2.5162   20.3043 C.3     1  UNL1        0.4186
     38 F           4.1209   -3.7410   19.6582 F       1  UNL1       -0.1659
     39 F           3.1738   -1.9783   18.9540 F       1  UNL1       -0.1659
     40 F           3.9151   -3.0541   21.6546 F       1  UNL1       -0.1659
@<TRIPOS>BOND
     1    24    25    1
     2    25    26    1
     3    26    27   am
     4    27    28    2
     5    27    30    1
     6    30    31   ar
     7    31    32   ar
     8    32    33   ar
     9    33    37    1
    10    37    38    1
    11    37    39    1
    12    37    40    1
    13    33    34   ar
    14    34    35   ar
    15    35    36    1
    16    25     1    1
    17     1     9    1
    18     9    10    1
    19    10    11    1
    20    11    12    1
    21    12    15    1
    22    15    16    2
    23    15    17    2
    24    15    18    1
    25    18    19   ar
    26    19    20   ar
    27    20    21    1
    28    20    22   ar
    29    22    23   ar
    30    12    13    1
    31    13    14    1
    32     1     2    1
    33     2     3    1
    34     3     4    1
    35     4     5    1
    36     4     6    1
    37     4     7    1
    38     7     8    1
    39    35    30   ar
    40     8     1    1
    41    14     9    1
    42    23    18   ar
    43    26    29    1
@<TRIPOS>MOLECULE
*****
 40 43 0 0 0
SMALL
GASTEIGER

@<TRIPOS>ATOM
      1 C           6.4709   -2.3174   30.8431 C.3     1  UNL1        0.0622
      2 C           7.1865   -2.8546   29.6392 C.3     1  UNL1        0.0219
      3 C           7.6976   -4.2648   29.6380 C.3     1  UNL1        0.0680
      4 C           7.4932   -5.1378   30.8405 C.3     1  UNL1        0.2640
      5 F           7.5432   -6.3427   31.7325 F       1  UNL1       -0.2043
      6 F           8.2261   -6.0935   29.9464 F       1  UNL1       -0.2043
      7 C           6.7776   -4.6006   32.0443 C.3     1  UNL1        0.0680
      8 C           6.2664   -3.1903   32.0457 C.3     1  UNL1        0.0219
      9 N           5.7379   -1.3616   31.7372 N.3     1  UNL1       -0.2712
     10 C           4.2690   -1.5408   31.9826 C.3     1  UNL1        0.0915
     11 C           3.5360   -0.5850   32.8768 C.3     1  UNL1        0.1132
     12 N           4.2719    0.5497   33.5253 N.3     1  UNL1       -0.1512
     13 C           5.7408    0.7288   33.2799 C.3     1  UNL1        0.1132
     14 C           6.4738   -0.2269   32.3858 C.3     1  UNL1        0.0915
     15 S           3.5389    1.5054   34.4194 S.O2    1  UNL1        0.0833
     16 O           2.4674    1.6556   33.3804 O.2     1  UNL1       -0.1512
     17 O           4.6103    1.3552   35.4583 O.2     1  UNL1       -0.1512
     18 C           2.8059    2.4611   35.3135 C.ar    1  UNL1        0.2440
     19 C           2.3390    3.8367   34.9395 C.ar    1  UNL1        0.1380
     20 N           1.6557    4.4348   36.1333 N.ar    1  UNL1       -0.2267
     21 C           1.0365    5.7993   36.2030 C.3     1  UNL1        0.1556
     22 N           1.7002    3.4290   37.2452 N.ar    1  UNL1       -0.0624
     23 N           2.4111    2.2091   36.7385 N.ar    1  UNL1       -0.1084
     24 C           7.6829   -0.5770   29.3424 C.3     1  UNL1        0.0226
     25 C           6.4209   -1.1125   29.9511 C.3     1  UNL1        0.0852
     26 N           5.1088   -0.4431   29.6678 N.am    1  UNL1       -0.3012
     27 C           4.2789   -0.8840   28.4987 C.2     1  UNL1        0.2467
     28 O           4.7611   -1.9944   27.6129 O.2     1  UNL1       -0.2701
     29 H           4.7923    0.2857   30.2492 H       1  UNL1        0.1497
     30 C           2.9667   -0.2146   28.2154 C.ar    1  UNL1        0.0639
     31 C           1.7636   -0.5387   29.0505 C.ar    1  UNL1        0.0053
     32 C           0.4516    0.1307   28.7671 C.ar    1  UNL1        0.0041
     33 C           0.3426    1.1242   27.6486 C.ar    1  UNL1        0.0723
     34 C           1.5457    1.4483   26.8135 C.ar    1  UNL1        0.0154
     35 C           2.8578    0.7789   27.0969 C.ar    1  UNL1        0.0620
     36 CL          4.0609    1.1030   26.2617 Cl      1  UNL1       -0.0821
     37 C          -0.9695    1.7936   27.3653 C.3     1  UNL1        0.4186
     38 F          -2.2816    2.4630   27.0819 F       1  UNL1       -0.1659
     39 F          -1.6433    0.8931   28.3577 F       1  UNL1       -0.1659
     40 F          -0.2958    2.6941   26.3728 F       1  UNL1       -0.1659
@<TRIPOS>BOND
     1    24    25    1
     2    25    26    1
     3    26    27   am
     4    27    28    2
     5    27    30    1
     6    30    31   ar
     7    31    32   ar
     8    32    33   ar
     9    33    37    1
    10    37    38    1
    11    37    39    1
    12    37    40    1
    13    33    34   ar
    14    34    35   ar
    15    35    36    1
    16    25     1    1
    17     1     9    1
    18     9    10    1
    19    10    11    1
    20    11    12    1
    21    12    15    1
    22    15    16    2
    23    15    17    2
    24    15    18    1
    25    18    19   ar
    26    19    20   ar
    27    20    21    1
    28    20    22   ar
    29    22    23   ar
    30    12    13    1
    31    13    14    1
    32     1     2    1
    33     2     3    1
    34     3     4    1
    35     4     5    1
    36     4     6    1
    37     4     7    1
    38     7     8    1
    39    35    30   ar
    40     8     1    1
    41    14     9    1
    42    23    18   ar
    43    26    29    1
@<TRIPOS>MOLECULE
*****
 40 43 0 0 0
SMALL
GASTEIGER

@<TRIPOS>ATOM
      1 C          -1.4951    3.5822   25.5276 C.3     1  UNL1        0.0622
      2 C          -1.7921    4.2358   24.2106 C.3     1  UNL1        0.0219
      3 C          -3.2044    4.5912   23.8513 C.3     1  UNL1        0.0680
      4 C          -4.3197    4.2929   24.8090 C.3     1  UNL1        0.2640
      5 F          -5.7052    4.2118   25.3778 F       1  UNL1       -0.2043
      6 F          -5.0979    4.9184   23.6895 F       1  UNL1       -0.2043
      7 C          -4.0227    3.6392   26.1260 C.3     1  UNL1        0.0680
      8 C          -2.6104    3.2838   26.4853 C.3     1  UNL1        0.0219
      9 N          -0.7169    2.9566   26.6472 N.3     1  UNL1       -0.2712
     10 C          -0.0858    3.8223   27.6970 C.3     1  UNL1        0.0915
     11 C           0.6924    3.1967   28.8165 C.3     1  UNL1        0.1132
     12 N           0.8395    1.7056   28.8860 N.3     1  UNL1       -0.1512
     13 C           0.2083    0.8400   27.8361 C.3     1  UNL1        0.1132
     14 C          -0.5698    1.4655   26.7167 C.3     1  UNL1        0.0915
     15 S           1.6177    1.0801   30.0055 S.O2    1  UNL1        0.0833
     16 O           0.9003   -0.2176   29.7790 O.2     1  UNL1       -0.1512
     17 O           2.3351    2.3778   30.2319 O.2     1  UNL1       -0.1512
     18 C           2.3958    0.4546   31.1249 C.ar    1  UNL1        0.2440
     19 C           2.9244    1.1649   32.3357 C.ar    1  UNL1        0.1380
     20 N           3.6373    0.1583   33.1892 N.ar    1  UNL1       -0.2267
     21 C           4.3186    0.4354   34.4965 C.3     1  UNL1        0.1556
     22 N           3.5494   -1.1742   32.5059 N.ar    1  UNL1       -0.0624
     23 N           2.7821   -0.9910   31.2301 N.ar    1  UNL1       -0.1084
     24 C           0.6735    4.9378   25.0700 C.3     1  UNL1        0.0226
     25 C          -0.1096    3.6632   24.9588 C.3     1  UNL1        0.0852
     26 N           0.4930    2.4698   24.2787 N.am    1  UNL1       -0.3012
     27 C           0.9588    2.5727   22.8566 C.2     1  UNL1        0.2467
     28 O           0.8220    3.8692   22.1146 O.2     1  UNL1       -0.2701
     29 H           0.5827    1.6189   24.7657 H       1  UNL1        0.1497
     30 C           1.5613    1.3792   22.1764 C.ar    1  UNL1        0.0639
     31 C           0.7588    0.6017   21.1757 C.ar    1  UNL1        0.0053
     32 C           1.3614   -0.5917   20.4956 C.ar    1  UNL1        0.0041
     33 C           2.7665   -1.0076   20.8162 C.ar    1  UNL1        0.0723
     34 C           3.5690   -0.2301   21.8169 C.ar    1  UNL1        0.0154
     35 C           2.9664    0.9633   22.4970 C.ar    1  UNL1        0.0620
     36 CL          3.7689    1.7409   23.4978 Cl      1  UNL1       -0.0821
     37 C           3.3690   -2.2011   20.1360 C.3     1  UNL1        0.4186
     38 F           3.9716   -3.3945   19.4559 F       1  UNL1       -0.1659
     39 F           3.7018   -2.7949   21.4727 F       1  UNL1       -0.1659
     40 F           3.0363   -1.6073   18.7994 F       1  UNL1       -0.1659
@<TRIPOS>BOND
     1    24    25    1
     2    25    26    1
     3    26    27   am
     4    27    28    2
     5    27    30    1
     6    30    31   ar
     7    31    32   ar
     8    32    33   ar
     9    33    37    1
    10    37    38    1
    11    37    39    1
    12    37    40    1
    13    33    34   ar
    14    34    35   ar
    15    35    36    1
    16    25     1    1
    17     1     9    1
    18     9    10    1
    19    10    11    1
    20    11    12    1
    21    12    15    1
    22    15    16    2
    23    15    17    2
    24    15    18    1
    25    18    19   ar
    26    19    20   ar
    27    20    21    1
    28    20    22   ar
    29    22    23   ar
    30    12    13    1
    31    13    14    1
    32     1     2    1
    33     2     3    1
    34     3     4    1
    35     4     5    1
    36     4     6    1
    37     4     7    1
    38     7     8    1
    39    35    30   ar
    40     8     1    1
    41    14     9    1
    42    23    18   ar
    43    26    29    1
@<TRIPOS>MOLECULE
*****
 40 43 0 0 0
SMALL
GASTEIGER

@<TRIPOS>ATOM
      1 C           3.8456   -1.1018   20.7036 C.3     1  UNL1        0.0622
      2 C           5.0275   -1.7613   21.3503 C.3     1  UNL1        0.0219
      3 C           5.5821   -3.0326   20.7793 C.3     1  UNL1        0.0680
      4 C           4.9550   -3.6444   19.5618 C.3     1  UNL1        0.2640
      5 F           4.7086   -4.6005   18.4326 F       1  UNL1       -0.2043
      6 F           6.0513   -4.6360   19.8162 F       1  UNL1       -0.2043
      7 C           3.7731   -2.9848   18.9151 C.3     1  UNL1        0.0680
      8 C           3.2184   -1.7134   19.4861 C.3     1  UNL1        0.0219
      9 N           2.7492   -0.1100   20.4492 N.3     1  UNL1       -0.2712
     10 C           1.3243   -0.4758   20.7422 C.3     1  UNL1        0.0915
     11 C           0.2280    0.5159   20.4878 C.3     1  UNL1        0.1132
     12 N           0.5566    1.8732   19.9403 N.3     1  UNL1       -0.1512
     13 C           1.9816    2.2389   19.6473 C.3     1  UNL1        0.1132
     14 C           3.0778    1.2472   19.9018 C.3     1  UNL1        0.0915
     15 S          -0.5397    2.8649   19.6859 S.O2    1  UNL1        0.0833
     16 O           0.2035    3.3793   18.4888 O.2     1  UNL1       -0.1512
     17 O          -1.2829    2.3504   20.8830 O.2     1  UNL1       -0.1512
     18 C          -1.6360    3.8565   19.4315 C.ar    1  UNL1        0.2440
     19 C          -3.0860    3.6738   19.7693 C.ar    1  UNL1        0.1380
     20 N          -3.8209    4.9093   19.3411 N.ar    1  UNL1       -0.2267
     21 C          -5.2932    5.1553   19.4894 C.3     1  UNL1        0.1556
     22 N          -2.8252    5.8557   18.7387 N.ar    1  UNL1       -0.0624
     23 N          -1.4748    5.2050   18.7945 N.ar    1  UNL1       -0.1084
     24 C           5.1850    0.8761   21.7255 C.3     1  UNL1        0.0226
     25 C           4.0920   -0.1456   21.8328 C.3     1  UNL1        0.0852
     26 N           3.2454   -0.2111   23.0693 N.am    1  UNL1       -0.3012
     27 C           2.7667    1.0536   23.7183 C.2     1  UNL1        0.2467
     28 O           3.1345    2.3838   23.1308 O.2     1  UNL1       -0.2701
     29 H           3.0040   -1.0842   23.4549 H       1  UNL1        0.1497
     30 C           1.9201    0.9881   24.9549 C.ar    1  UNL1        0.0639
     31 C           0.4429    1.2331   24.8663 C.ar    1  UNL1        0.0053
     32 C          -0.4036    1.1677   26.1029 C.ar    1  UNL1        0.0041
     33 C           0.2270    0.8572   27.4280 C.ar    1  UNL1        0.0723
     34 C           1.7042    0.6121   27.5165 C.ar    1  UNL1        0.0154
     35 C           2.5507    0.6776   26.2800 C.ar    1  UNL1        0.0620
     36 CL          4.0280    0.4326   26.3685 Cl      1  UNL1       -0.0821
     37 C          -0.6196    0.7917   28.6645 C.3     1  UNL1        0.4186
     38 F          -1.4662    0.7263   29.9010 F       1  UNL1       -0.1659
     39 F          -1.1481   -0.5438   28.2321 F       1  UNL1       -0.1659
     40 F          -0.0911    2.1272   29.0970 F       1  UNL1       -0.1659
@<TRIPOS>BOND
     1    24    25    1
     2    25    26    1
     3    26    27   am
     4    27    28    2
     5    27    30    1
     6    30    31   ar
     7    31    32   ar
     8    32    33   ar
     9    33    37    1
    10    37    38    1
    11    37    39    1
    12    37    40    1
    13    33    34   ar
    14    34    35   ar
    15    35    36    1
    16    25     1    1
    17     1     9    1
    18     9    10    1
    19    10    11    1
    20    11    12    1
    21    12    15    1
    22    15    16    2
    23    15    17    2
    24    15    18    1
    25    18    19   ar
    26    19    20   ar
    27    20    21    1
    28    20    22   ar
    29    22    23   ar
    30    12    13    1
    31    13    14    1
    32     1     2    1
    33     2     3    1
    34     3     4    1
    35     4     5    1
    36     4     6    1
    37     4     7    1
    38     7     8    1
    39    35    30   ar
    40     8     1    1
    41    14     9    1
    42    23    18   ar
    43    26    29    1
@<TRIPOS>MOLECULE
*****
 40 43 0 0 0
SMALL
GASTEIGER

@<TRIPOS>ATOM
      1 C           6.7172   -2.7650   30.9146 C.3     1  UNL1        0.0622
      2 C           7.1268   -3.0054   29.4918 C.3     1  UNL1        0.0219
      3 C           7.5504   -4.3763   29.0548 C.3     1  UNL1        0.0680
      4 C           7.5644   -5.5068   30.0406 C.3     1  UNL1        0.2640
      5 F           7.7421   -6.8874   30.5996 F       1  UNL1       -0.2043
      6 F           8.0358   -6.2267   28.8119 F       1  UNL1       -0.2043
      7 C           7.1548   -5.2664   31.4634 C.3     1  UNL1        0.0680
      8 C           6.7311   -3.8954   31.9004 C.3     1  UNL1        0.0219
      9 N           6.2458   -2.0450   32.1433 N.3     1  UNL1       -0.2712
     10 C           4.8258   -2.1958   32.6024 C.3     1  UNL1        0.0915
     11 C           4.3544   -1.4758   33.8312 C.3     1  UNL1        0.1132
     12 N           5.3030   -0.6053   34.6006 N.3     1  UNL1       -0.1512
     13 C           6.7231   -0.4545   34.1414 C.3     1  UNL1        0.1132
     14 C           7.1944   -1.1745   32.9128 C.3     1  UNL1        0.0915
     15 S           4.8317    0.1146   35.8292 S.O2    1  UNL1        0.0833
     16 O           5.8942   -0.5693   36.6376 O.2     1  UNL1       -0.1512
     17 O           3.7693    0.7986   35.0209 O.2     1  UNL1       -0.1512
     18 C           4.3604    0.8345   37.0579 C.ar    1  UNL1        0.2440
     19 C           3.0033    1.4414   37.2581 C.ar    1  UNL1        0.1380
     20 N           2.9675    2.0559   38.6259 N.ar    1  UNL1       -0.2267
     21 C           1.8015    2.7718   39.2407 C.3     1  UNL1        0.1556
     22 N           4.3025    1.8288   39.2712 N.ar    1  UNL1       -0.0624
     23 N           5.1633    1.0740   38.3021 N.ar    1  UNL1       -0.1084
     24 C           7.6703   -0.4006   30.4133 C.3     1  UNL1        0.0226
     25 C           6.5394   -1.3844   30.3556 C.3     1  UNL1        0.0852
     26 N           5.2310   -0.9877   29.7388 N.am    1  UNL1       -0.3012
     27 C           4.5279    0.2528   30.2043 C.2     1  UNL1        0.2467
     28 O           5.1333    1.0966   31.2866 O.2     1  UNL1       -0.2701
     29 H           4.8336   -1.5416   29.0284 H       1  UNL1        0.1497
     30 C           3.2193    0.6495   29.5875 C.ar    1  UNL1        0.0639
     31 C           1.9937   -0.1807   29.8296 C.ar    1  UNL1        0.0053
     32 C           0.6853    0.2161   29.2129 C.ar    1  UNL1        0.0041
     33 C           0.6024    1.4431   28.3539 C.ar    1  UNL1        0.0723
     34 C           1.8280    2.2732   28.1118 C.ar    1  UNL1        0.0154
     35 C           3.1365    1.8765   28.7286 C.ar    1  UNL1        0.0620
     36 CL          4.3622    2.7066   28.4864 Cl      1  UNL1       -0.0821
     37 C          -0.7061    1.8398   27.7371 C.3     1  UNL1        0.4186
     38 F          -2.0146    2.2365   27.1204 F       1  UNL1       -0.1659
     39 F          -0.1700    3.2180   27.4861 F       1  UNL1       -0.1659
     40 F          -1.2423    0.4616   27.9882 F       1  UNL1       -0.1659
@<TRIPOS>BOND
     1    24    25    1
     2    25    26    1
     3    26    27   am
     4    27    28    2
     5    27    30    1
     6    30    31   ar
     7    31    32   ar
     8    32    33   ar
     9    33    37    1
    10    37    38    1
    11    37    39    1
    12    37    40    1
    13    33    34   ar
    14    34    35   ar
    15    35    36    1
    16    25     1    1
    17     1     9    1
    18     9    10    1
    19    10    11    1
    20    11    12    1
    21    12    15    1
    22    15    16    2
    23    15    17    2
    24    15    18    1
    25    18    19   ar
    26    19    20   ar
    27    20    21    1
    28    20    22   ar
    29    22    23   ar
    30    12    13    1
    31    13    14    1
    32     1     2    1
    33     2     3    1
    34     3     4    1
    35     4     5    1
    36     4     6    1
    37     4     7    1
    38     7     8    1
    39    35    30   ar
    40     8     1    1
    41    14     9    1
    42    23    18   ar
    43    26    29    1
@<TRIPOS>MOLECULE
*****
 40 43 0 0 0
SMALL
GASTEIGER

@<TRIPOS>ATOM
      1 C           2.0901    0.7467   27.1868 C.3     1  UNL1        0.0622
      2 C           3.4653    0.1484   27.2157 C.3     1  UNL1        0.0219
      3 C           3.9432   -0.5742   28.4402 C.3     1  UNL1        0.0680
      4 C           3.0459   -0.6986   29.6357 C.3     1  UNL1        0.2640
      5 F           2.5686   -1.0764   31.0067 F       1  UNL1       -0.2043
      6 F           4.2553   -1.4281   30.1408 F       1  UNL1       -0.2043
      7 C           1.6707   -0.1003   29.6068 C.3     1  UNL1        0.0680
      8 C           1.1928    0.6224   28.3823 C.3     1  UNL1        0.0219
      9 N           0.8806    1.4763   26.6817 N.3     1  UNL1       -0.2712
     10 C           0.2897    1.1169   25.3507 C.3     1  UNL1        0.0915
     11 C          -0.9199    1.8465   24.8456 C.3     1  UNL1        0.1132
     12 N          -1.5383    2.9352   25.6716 N.3     1  UNL1       -0.1512
     13 C          -0.9472    3.2944   27.0026 C.3     1  UNL1        0.1132
     14 C           0.2622    2.5650   27.5077 C.3     1  UNL1        0.0915
     15 S          -2.7477    3.6647   25.1665 S.O2    1  UNL1        0.0833
     16 O          -2.1556    3.6925   23.7887 O.2     1  UNL1       -0.1512
     17 O          -3.3399    3.6369   26.5444 O.2     1  UNL1       -0.1512
     18 C          -3.9571    4.3942   24.6615 C.ar    1  UNL1        0.2440
     19 C          -5.3857    4.0329   24.9422 C.ar    1  UNL1        0.1380
     20 N          -6.2618    5.0284   24.2413 N.ar    1  UNL1       -0.2267
     21 C          -7.7617    5.0446   24.2524 C.3     1  UNL1        0.1556
     22 N          -5.3749    6.0049   23.5274 N.ar    1  UNL1       -0.0624
     23 N          -3.9505    5.6129   23.7871 N.ar    1  UNL1       -0.1084
     24 C           2.9603    2.5421   25.5227 C.3     1  UNL1        0.0226
     25 C           2.5674    1.1245   25.8159 C.3     1  UNL1        0.0852
     26 N           2.6518    0.0846   24.7382 N.am    1  UNL1       -0.3012
     27 C           3.9214   -0.0853   23.9577 C.2     1  UNL1        0.2467
     28 O           5.1067    0.7847   24.2550 O.2     1  UNL1       -0.2701
     29 H           1.8739   -0.4864   24.5430 H       1  UNL1        0.1497
     30 C           4.0059   -1.1252   22.8799 C.ar    1  UNL1        0.0639
     31 C           4.5104   -2.5004   23.2025 C.ar    1  UNL1        0.0053
     32 C           4.5948   -3.5402   22.1247 C.ar    1  UNL1        0.0041
     33 C           4.1747   -3.2048   20.7244 C.ar    1  UNL1        0.0723
     34 C           3.6702   -1.8295   20.4018 C.ar    1  UNL1        0.0154
     35 C           3.5858   -0.7897   21.4796 C.ar    1  UNL1        0.0620
     36 CL          3.0812    0.5856   21.1570 Cl      1  UNL1       -0.0821
     37 C           4.2591   -4.2446   19.6466 C.3     1  UNL1        0.4186
     38 F           4.3436   -5.2845   18.5688 F       1  UNL1       -0.1659
     39 F           2.8314   -3.9748   19.2743 F       1  UNL1       -0.1659
     40 F           5.6869   -4.5144   20.0188 F       1  UNL1       -0.1659
@<TRIPOS>BOND
     1    24    25    1
     2    25    26    1
     3    26    27   am
     4    27    28    2
     5    27    30    1
     6    30    31   ar
     7    31    32   ar
     8    32    33   ar
     9    33    37    1
    10    37    38    1
    11    37    39    1
    12    37    40    1
    13    33    34   ar
    14    34    35   ar
    15    35    36    1
    16    25     1    1
    17     1     9    1
    18     9    10    1
    19    10    11    1
    20    11    12    1
    21    12    15    1
    22    15    16    2
    23    15    17    2
    24    15    18    1
    25    18    19   ar
    26    19    20   ar
    27    20    21    1
    28    20    22   ar
    29    22    23   ar
    30    12    13    1
    31    13    14    1
    32     1     2    1
    33     2     3    1
    34     3     4    1
    35     4     5    1
    36     4     6    1
    37     4     7    1
    38     7     8    1
    39    35    30   ar
    40     8     1    1
    41    14     9    1
    42    23    18   ar
    43    26    29    1
@<TRIPOS>MOLECULE
*****
 40 43 0 0 0
SMALL
GASTEIGER

@<TRIPOS>ATOM
      1 C          -0.6960    4.3490   20.0012 C.3     1  UNL1        0.0622
      2 C          -1.2226    5.5969   20.6455 C.3     1  UNL1        0.0219
      3 C          -2.4926    6.2200   20.1466 C.3     1  UNL1        0.0680
      4 C          -3.2358    5.5951   19.0034 C.3     1  UNL1        0.2640
      5 F          -4.2891    5.3774   17.9578 F       1  UNL1       -0.2043
      6 F          -4.1283    6.7675   19.2846 F       1  UNL1       -0.2043
      7 C          -2.7092    4.3472   18.3590 C.3     1  UNL1        0.0680
      8 C          -1.4392    3.7240   18.8579 C.3     1  UNL1        0.0219
      9 N           0.1966    3.1765   19.7199 N.3     1  UNL1       -0.2712
     10 C          -0.1538    1.8211   20.2585 C.3     1  UNL1        0.0915
     11 C           0.7387    0.6487   19.9773 C.3     1  UNL1        0.1132
     12 N           1.9815    0.8318   19.1576 N.3     1  UNL1       -0.1512
     13 C           2.3318    2.1873   18.6190 C.3     1  UNL1        0.1132
     14 C           1.4393    3.3596   18.9002 C.3     1  UNL1        0.0915
     15 S           2.8739   -0.3405   18.8763 S.O2    1  UNL1        0.0833
     16 O           3.4922    0.4049   17.7309 O.2     1  UNL1       -0.1512
     17 O           2.2556   -1.0860   20.0218 O.2     1  UNL1       -0.1512
     18 C           3.7664   -1.5129   18.5951 C.ar    1  UNL1        0.2440
     19 C           3.5616   -2.9149   19.0873 C.ar    1  UNL1        0.1380
     20 N           4.6890   -3.7576   18.5687 N.ar    1  UNL1       -0.2267
     21 C           4.8810   -5.2241   18.8190 C.3     1  UNL1        0.1556
     22 N           5.5906   -2.8763   17.7561 N.ar    1  UNL1       -0.0624
     23 N           5.0204   -1.4890   17.7723 N.ar    1  UNL1       -0.1084
     24 C           1.3152    5.7139   20.9189 C.3     1  UNL1        0.0226
     25 C           0.3573    4.5667   21.0468 C.3     1  UNL1        0.0852
     26 N           0.4527    3.6372   22.2202 N.am    1  UNL1       -0.3012
     27 C           0.2240    4.1564   23.6087 C.2     1  UNL1        0.2467
     28 O          -0.1000    5.6051   23.8238 O.2     1  UNL1       -0.2701
     29 H           0.6653    2.6864   22.0790 H       1  UNL1        0.1497
     30 C           0.3194    3.2269   24.7822 C.ar    1  UNL1        0.0639
     31 C           1.6617    2.7604   25.2623 C.ar    1  UNL1        0.0053
     32 C           1.7570    1.8310   26.4358 C.ar    1  UNL1        0.0041
     33 C           0.5100    1.3680   27.1291 C.ar    1  UNL1        0.0723
     34 C          -0.8323    1.8345   26.6489 C.ar    1  UNL1        0.0154
     35 C          -0.9276    2.7639   25.4755 C.ar    1  UNL1        0.0620
     36 CL         -2.2699    3.2305   24.9953 Cl      1  UNL1       -0.0821
     37 C           0.6054    0.4385   28.3026 C.3     1  UNL1        0.4186
     38 F           0.7007   -0.4909   29.4760 F       1  UNL1       -0.1659
     39 F           1.9625   -0.0041   27.8418 F       1  UNL1       -0.1659
     40 F          -0.7517    0.8811   28.7634 F       1  UNL1       -0.1659
@<TRIPOS>BOND
     1    24    25    1
     2    25    26    1
     3    26    27   am
     4    27    28    2
     5    27    30    1
     6    30    31   ar
     7    31    32   ar
     8    32    33   ar
     9    33    37    1
    10    37    38    1
    11    37    39    1
    12    37    40    1
    13    33    34   ar
    14    34    35   ar
    15    35    36    1
    16    25     1    1
    17     1     9    1
    18     9    10    1
    19    10    11    1
    20    11    12    1
    21    12    15    1
    22    15    16    2
    23    15    17    2
    24    15    18    1
    25    18    19   ar
    26    19    20   ar
    27    20    21    1
    28    20    22   ar
    29    22    23   ar
    30    12    13    1
    31    13    14    1
    32     1     2    1
    33     2     3    1
    34     3     4    1
    35     4     5    1
    36     4     6    1
    37     4     7    1
    38     7     8    1
    39    35    30   ar
    40     8     1    1
    41    14     9    1
    42    23    18   ar
    43    26    29    1
@<TRIPOS>MOLECULE
*****
 40 43 0 0 0
SMALL
GASTEIGER

@<TRIPOS>ATOM
      1 C          -2.4965    3.9652   21.7922 C.3     1  UNL1        0.0622
      2 C          -3.2405    4.7412   22.8383 C.3     1  UNL1        0.0219
      3 C          -4.7312    4.8820   22.7489 C.3     1  UNL1        0.0680
      4 C          -5.4779    4.2468   21.6137 C.3     1  UNL1        0.2640
      5 F          -6.6208    3.8309   20.7358 F       1  UNL1       -0.2043
      6 F          -6.6188    4.8784   22.3548 F       1  UNL1       -0.2043
      7 C          -4.7339    3.4707   20.5676 C.3     1  UNL1        0.0680
      8 C          -3.2431    3.3299   20.6569 C.3     1  UNL1        0.0219
      9 N          -1.3555    3.3335   21.0510 N.3     1  UNL1       -0.2712
     10 C          -0.5508    2.2459   21.6988 C.3     1  UNL1        0.0915
     11 C           0.5902    1.6143   20.9576 C.3     1  UNL1        0.1132
     12 N           0.9264    2.0703   19.5687 N.3     1  UNL1       -0.1512
     13 C           0.1217    3.1579   18.9210 C.3     1  UNL1        0.1132
     14 C          -1.0193    3.7895   19.6621 C.3     1  UNL1        0.0915
     15 S           2.0673    1.4387   18.8276 S.O2    1  UNL1        0.0833
     16 O           1.0979    0.5944   18.0547 O.2     1  UNL1       -0.1512
     17 O           3.0368    2.2830   19.6004 O.2     1  UNL1       -0.1512
     18 C           3.2083    0.8071   18.0864 C.ar    1  UNL1        0.2440
     19 C           4.5807    1.3888   17.9192 C.ar    1  UNL1        0.1380
     20 N           5.3978    0.4242   17.1118 N.ar    1  UNL1       -0.2267
     21 C           6.8308    0.6056   16.7072 C.3     1  UNL1        0.1556
     22 N           4.5303   -0.7537   16.7800 N.ar    1  UNL1       -0.0624
     23 N           3.1771   -0.5171   17.3823 N.ar    1  UNL1       -0.1084
     24 C          -0.7431    5.7421   22.5121 C.3     1  UNL1        0.0226
     25 C          -1.3536    4.3810   22.6701 C.3     1  UNL1        0.0852
     26 N          -0.8211    3.4359   23.7060 N.am    1  UNL1       -0.3012
     27 C          -0.6912    3.8820   25.1322 C.2     1  UNL1        0.2467
     28 O          -1.0939    5.2732   25.5225 O.2     1  UNL1       -0.2701
     29 H          -0.5568    2.5228   23.4498 H       1  UNL1        0.1497
     30 C          -0.1587    2.9368   26.1682 C.ar    1  UNL1        0.0639
     31 C          -1.0725    1.9355   26.8103 C.ar    1  UNL1        0.0053
     32 C          -0.5399    0.9904   27.8462 C.ar    1  UNL1        0.0041
     33 C           0.9064    1.0467   28.2400 C.ar    1  UNL1        0.0723
     34 C           1.8201    2.0480   27.5979 C.ar    1  UNL1        0.0154
     35 C           1.2876    2.9931   26.5620 C.ar    1  UNL1        0.0620
     36 CL          2.2014    3.9944   25.9198 Cl      1  UNL1       -0.0821
     37 C           1.4389    0.1015   29.2760 C.3     1  UNL1        0.4186
     38 F           1.9713   -0.8436   30.3119 F       1  UNL1       -0.1659
     39 F           2.7862    0.7536   29.1785 F       1  UNL1       -0.1659
     40 F           0.0916   -0.5506   29.3735 F       1  UNL1       -0.1659
@<TRIPOS>BOND
     1    24    25    1
     2    25    26    1
     3    26    27   am
     4    27    28    2
     5    27    30    1
     6    30    31   ar
     7    31    32   ar
     8    32    33   ar
     9    33    37    1
    10    37    38    1
    11    37    39    1
    12    37    40    1
    13    33    34   ar
    14    34    35   ar
    15    35    36    1
    16    25     1    1
    17     1     9    1
    18     9    10    1
    19    10    11    1
    20    11    12    1
    21    12    15    1
    22    15    16    2
    23    15    17    2
    24    15    18    1
    25    18    19   ar
    26    19    20   ar
    27    20    21    1
    28    20    22   ar
    29    22    23   ar
    30    12    13    1
    31    13    14    1
    32     1     2    1
    33     2     3    1
    34     3     4    1
    35     4     5    1
    36     4     6    1
    37     4     7    1
    38     7     8    1
    39    35    30   ar
    40     8     1    1
    41    14     9    1
    42    23    18   ar
    43    26    29    1
