@<TRIPOS>MOLECULE
*****
 41 46 0 0 0
SMALL
GASTEIGER

@<TRIPOS>ATOM
      1 N           1.2682    2.1802   29.9433 N.am    1  UNL1       -0.1907
      2 C           2.2920    1.0862   30.0148 C.2     1  UNL1        0.3219
      3 O           2.6720    0.1599   28.8980 O.2     1  UNL1       -0.2512
      4 N           2.8691    1.0812   31.3994 N.am    1  UNL1       -0.2222
      5 C           2.2019    2.1721   32.1836 C.3     1  UNL1        0.1391
      6 C           1.4524    3.2946   32.8379 C.3     1  UNL1        0.0449
      7 C           1.7265    3.6448   34.2704 C.3     1  UNL1        0.0746
      8 N           2.7502    2.8724   35.0487 N.3     1  UNL1       -0.2676
      9 C           3.4997    1.7500   34.3944 C.3     1  UNL1        0.0746
     10 C           3.2256    1.3998   32.9618 C.3     1  UNL1        0.0449
     11 C           1.2125    2.8513   31.2837 C.2     1  UNL1        0.2529
     12 O           0.3236    4.0000   31.6583 O.2     1  UNL1       -0.2724
     13 C           3.9274    0.1490   31.9101 C.ar    1  UNL1        0.1453
     14 C           3.5482   -1.2111   32.4164 C.ar    1  UNL1        0.0922
     15 C           4.6066   -2.1432   32.9272 C.ar    1  UNL1        0.2259
     16 O           4.2274   -3.5032   33.4335 O.3     1  UNL1       -0.4919
     17 N           6.0443   -1.7153   32.9316 N.ar    1  UNL1       -0.1894
     18 C           6.4235   -0.3552   32.4253 C.ar    1  UNL1        0.2027
     19 N           5.3651    0.5769   31.9146 N.ar    1  UNL1       -0.2084
     20 H           3.3293   -3.7706   33.4307 H       1  UNL1        0.2938
     21 C          -1.2023    3.2593   26.3403 C.ar    1  UNL1        0.0073
     22 C          -0.3863    4.3106   27.0323 C.ar    1  UNL1        0.0018
     23 C           0.4372    3.9509   28.2333 C.ar    1  UNL1        0.0154
     24 C           0.4447    2.5399   28.7423 C.ar    1  UNL1        0.0622
     25 C          -0.3713    1.4887   28.0503 C.ar    1  UNL1        0.0154
     26 C          -1.1948    1.8484   26.8493 C.ar    1  UNL1        0.0018
     27 C          -2.6564    4.2478   21.3614 C.3     1  UNL1        0.0594
     28 C          -2.6942    4.0734   22.8507 C.ar    1  UNL1        0.0882
     29 N          -3.8921    4.2717   23.7315 N.ar    1  UNL1       -0.2470
     30 C          -3.4790    3.9909   25.1459 C.ar    1  UNL1        0.0655
     31 C          -4.3638    4.0684   26.3547 C.3     1  UNL1        0.0526
     32 C          -2.0258    3.6190   25.1393 C.ar    1  UNL1        0.0441
     33 S          -1.5408    3.6700   23.7208 S.2     1  UNL1       -0.0711
     34 C           3.0243    3.2227   36.4813 C.3     1  UNL1        0.1183
     35 C           2.2773    2.5261   37.5798 C.ar    1  UNL1        0.0712
     36 N           0.9817    3.0916   38.0815 N.ar    1  UNL1       -0.2471
     37 C           0.2347    2.3949   39.1801 C.ar    1  UNL1        0.0985
     38 C           0.7833    1.1329   39.7769 C.ar    1  UNL1        0.0203
     39 C           2.0789    0.5674   39.2751 C.ar    1  UNL1       -0.0015
     40 C           2.8259    1.2640   38.1766 C.ar    1  UNL1       -0.0069
     41 C           4.1215    0.6985   37.6749 C.3     1  UNL1        0.0323
@<TRIPOS>BOND
     1    27    28    1
     2    28    29   ar
     3    29    30   ar
     4    30    31    1
     5    30    32   ar
     6    32    21    1
     7    21    22   ar
     8    22    23   ar
     9    23    24   ar
    10    24     1    1
    11     1     2   am
    12     2     3    2
    13     2     4   am
    14     4    13    1
    15    13    14   ar
    16    14    15   ar
    17    15    16    1
    18    15    17   ar
    19    17    18   ar
    20    18    19   ar
    21     4     5    1
    22     5     6    1
    23     6     7    1
    24     7     8    1
    25     8    34    1
    26    34    35    1
    27    35    36   ar
    28    36    37   ar
    29    37    38   ar
    30    38    39   ar
    31    39    40   ar
    32    40    41    1
    33     8     9    1
    34     9    10    1
    35     5    11    1
    36    11    12    2
    37    24    25   ar
    38    25    26   ar
    39    32    33   ar
    40    33    28   ar
    41    26    21   ar
    42    11     1   am
    43    19    13   ar
    44    10     5    1
    45    40    35   ar
    46    16    20    1
@<TRIPOS>MOLECULE
*****
 41 46 0 0 0
SMALL
GASTEIGER

@<TRIPOS>ATOM
      1 N           1.2891    2.1063   29.9953 N.am    1  UNL1       -0.1907
      2 C           2.3120    1.0124   30.0801 C.2     1  UNL1        0.3219
      3 O           2.6984    0.0788   28.9716 O.2     1  UNL1       -0.2512
      4 N           2.8807    1.0162   31.4681 N.am    1  UNL1       -0.2222
      5 C           2.2093    2.1124   32.2412 C.3     1  UNL1        0.1391
      6 C           1.4562    3.2394   32.8837 C.3     1  UNL1        0.0449
      7 C           1.7218    3.5987   34.3156 C.3     1  UNL1        0.0746
      8 N           2.7405    2.8311   35.1050 N.3     1  UNL1       -0.2676
      9 C           3.4935    1.7041   34.4625 C.3     1  UNL1        0.0746
     10 C           3.2279    1.3448   33.0306 C.3     1  UNL1        0.0449
     11 C           1.2256    2.7861   31.3310 C.2     1  UNL1        0.2529
     12 O           0.3349    3.9375   31.6928 O.2     1  UNL1       -0.2724
     13 C           3.9356    0.0870   31.9913 C.ar    1  UNL1        0.1453
     14 C           5.3854    0.4495   31.8624 C.ar    1  UNL1        0.0922
     15 C           6.4402   -0.4798   32.3856 C.ar    1  UNL1        0.2259
     16 O           7.8900   -0.1173   32.2568 O.3     1  UNL1       -0.4919
     17 N           6.0452   -1.7717   33.0377 N.ar    1  UNL1       -0.1894
     18 C           4.5954   -2.1342   33.1666 C.ar    1  UNL1        0.2027
     19 N           3.5406   -1.2049   32.6434 N.ar    1  UNL1       -0.2084
     20 H           8.1367    0.6896   31.8495 H       1  UNL1        0.2938
     21 C          -1.1592    3.1630   26.3705 C.ar    1  UNL1        0.0073
     22 C          -0.3213    4.2109   27.0412 C.ar    1  UNL1        0.0018
     23 C           0.4948    3.8587   28.2494 C.ar    1  UNL1        0.0154
     24 C           0.4730    2.4585   28.7870 C.ar    1  UNL1        0.0622
     25 C          -0.3648    1.4106   28.1164 C.ar    1  UNL1        0.0154
     26 C          -1.1809    1.7629   26.9082 C.ar    1  UNL1        0.0018
     27 C          -2.5866    4.1046   21.3749 C.3     1  UNL1        0.0594
     28 C          -2.6314    3.9480   22.8660 C.ar    1  UNL1        0.0882
     29 N          -3.8309    4.1664   23.7398 N.ar    1  UNL1       -0.2470
     30 C          -3.4254    3.8989   25.1590 C.ar    1  UNL1        0.0655
     31 C          -4.3140    3.9978   26.3634 C.3     1  UNL1        0.0526
     32 C          -1.9752    3.5152   25.1623 C.ar    1  UNL1        0.0441
     33 S          -1.4846    3.5455   23.7451 S.2     1  UNL1       -0.0711
     34 C           3.0061    3.1905   36.5369 C.3     1  UNL1        0.1183
     35 C           2.2519    2.5016   37.6354 C.ar    1  UNL1        0.0712
     36 N           0.9581    3.0761   38.1315 N.ar    1  UNL1       -0.2471
     37 C           0.2039    2.3871   39.2300 C.ar    1  UNL1        0.0985
     38 C           0.7435    1.1238   39.8323 C.ar    1  UNL1        0.0203
     39 C           2.0373    0.5493   39.3361 C.ar    1  UNL1       -0.0015
     40 C           2.7915    1.2382   38.2377 C.ar    1  UNL1       -0.0069
     41 C           4.0852    0.6637   37.7415 C.3     1  UNL1        0.0323
@<TRIPOS>BOND
     1    27    28    1
     2    28    29   ar
     3    29    30   ar
     4    30    31    1
     5    30    32   ar
     6    32    21    1
     7    21    22   ar
     8    22    23   ar
     9    23    24   ar
    10    24     1    1
    11     1     2   am
    12     2     3    2
    13     2     4   am
    14     4    13    1
    15    13    14   ar
    16    14    15   ar
    17    15    16    1
    18    15    17   ar
    19    17    18   ar
    20    18    19   ar
    21     4     5    1
    22     5     6    1
    23     6     7    1
    24     7     8    1
    25     8    34    1
    26    34    35    1
    27    35    36   ar
    28    36    37   ar
    29    37    38   ar
    30    38    39   ar
    31    39    40   ar
    32    40    41    1
    33     8     9    1
    34     9    10    1
    35     5    11    1
    36    11    12    2
    37    24    25   ar
    38    25    26   ar
    39    32    33   ar
    40    33    28   ar
    41    26    21   ar
    42    11     1   am
    43    19    13   ar
    44    10     5    1
    45    40    35   ar
    46    16    20    1
@<TRIPOS>MOLECULE
*****
 41 46 0 0 0
SMALL
GASTEIGER

@<TRIPOS>ATOM
      1 N           2.4123    0.8763   30.5390 N.am    1  UNL1       -0.1907
      2 C           3.5196   -0.1006   30.2749 C.2     1  UNL1        0.3219
      3 O           3.8287   -0.7479   28.9576 O.2     1  UNL1       -0.2512
      4 N           4.2635   -0.3165   31.5594 N.am    1  UNL1       -0.2222
      5 C           3.6160    0.5270   32.6175 C.3     1  UNL1        0.1391
      6 C           2.8684    1.4182   33.5645 C.3     1  UNL1        0.0449
      7 C           3.2908    1.5085   35.0009 C.3     1  UNL1        0.0746
      8 N           4.4609    0.7078   35.4904 N.3     1  UNL1       -0.2676
      9 C           5.2086   -0.1834   34.5434 C.3     1  UNL1        0.0746
     10 C           4.7861   -0.2738   33.1070 C.3     1  UNL1        0.0449
     11 C           2.4719    1.2642   31.9869 C.2     1  UNL1        0.2529
     12 O           1.5494    2.2211   32.6820 O.2     1  UNL1       -0.2724
     13 C           5.4471   -1.2175   31.7522 C.ar    1  UNL1        0.1453
     14 C           5.2418   -2.6569   32.1213 C.ar    1  UNL1        0.0922
     15 C           6.4254   -3.5579   32.3140 C.ar    1  UNL1        0.2259
     16 O           6.2201   -4.9972   32.6831 O.3     1  UNL1       -0.4919
     17 N           7.8144   -3.0197   32.1376 N.ar    1  UNL1       -0.1894
     18 C           8.0197   -1.5804   31.7685 C.ar    1  UNL1        0.2027
     19 N           6.8361   -0.6793   31.5758 N.ar    1  UNL1       -0.2084
     20 H           5.3525   -5.3334   32.7932 H       1  UNL1        0.2938
     21 C          -0.5653    2.3794   27.5185 C.ar    1  UNL1        0.0073
     22 C          -0.5715    0.9350   27.9232 C.ar    1  UNL1        0.0018
     23 C           0.4211    0.4340   28.9300 C.ar    1  UNL1        0.0154
     24 C           1.4198    1.3773   29.5322 C.ar    1  UNL1        0.0622
     25 C           1.4259    2.8216   29.1276 C.ar    1  UNL1        0.0154
     26 C           0.4334    3.3227   28.1207 C.ar    1  UNL1        0.0018
     27 C          -4.9199    4.4363   25.3535 C.3     1  UNL1        0.0594
     28 C          -3.5595    3.8259   25.5165 C.ar    1  UNL1        0.0882
     29 N          -2.6111    3.4771   24.4080 N.ar    1  UNL1       -0.2470
     30 C          -1.3741    2.8928   25.0230 C.ar    1  UNL1        0.0655
     31 C          -0.1653    2.4062   24.2798 C.3     1  UNL1        0.0526
     32 C          -1.5579    2.8805   26.5117 C.ar    1  UNL1        0.0441
     33 S          -2.9086    3.4572   26.8166 S.2     1  UNL1       -0.0711
     34 C           4.8833    0.7982   36.9269 C.3     1  UNL1        0.1183
     35 C           4.6316    2.0556   37.7049 C.ar    1  UNL1        0.0712
     36 N           5.6113    3.1894   37.6355 N.ar    1  UNL1       -0.2471
     37 C           5.3596    4.4469   38.4136 C.ar    1  UNL1        0.0985
     38 C           4.1281    4.5706   39.2610 C.ar    1  UNL1        0.0203
     39 C           3.1484    3.4369   39.3304 C.ar    1  UNL1       -0.0015
     40 C           3.4001    2.1794   38.5524 C.ar    1  UNL1       -0.0069
     41 C           2.4204    1.0457   38.6218 C.3     1  UNL1        0.0323
@<TRIPOS>BOND
     1    27    28    1
     2    28    29   ar
     3    29    30   ar
     4    30    31    1
     5    30    32   ar
     6    32    21    1
     7    21    22   ar
     8    22    23   ar
     9    23    24   ar
    10    24     1    1
    11     1     2   am
    12     2     3    2
    13     2     4   am
    14     4    13    1
    15    13    14   ar
    16    14    15   ar
    17    15    16    1
    18    15    17   ar
    19    17    18   ar
    20    18    19   ar
    21     4     5    1
    22     5     6    1
    23     6     7    1
    24     7     8    1
    25     8    34    1
    26    34    35    1
    27    35    36   ar
    28    36    37   ar
    29    37    38   ar
    30    38    39   ar
    31    39    40   ar
    32    40    41    1
    33     8     9    1
    34     9    10    1
    35     5    11    1
    36    11    12    2
    37    24    25   ar
    38    25    26   ar
    39    32    33   ar
    40    33    28   ar
    41    26    21   ar
    42    11     1   am
    43    19    13   ar
    44    10     5    1
    45    40    35   ar
    46    16    20    1
@<TRIPOS>MOLECULE
*****
 41 46 0 0 0
SMALL
GASTEIGER

@<TRIPOS>ATOM
      1 N           2.2091    0.2664   23.2580 N.am    1  UNL1       -0.1907
      2 C           2.4290   -0.0870   21.8169 C.2     1  UNL1        0.3219
      3 O           1.5731    0.3437   20.6629 O.2     1  UNL1       -0.2512
      4 N           3.6552   -0.9469   21.7324 N.am    1  UNL1       -0.2222
      5 C           4.1932   -1.1249   23.1213 C.3     1  UNL1        0.1391
      6 C           4.6116   -1.2134   24.5590 C.3     1  UNL1        0.0449
      7 C           5.8294   -2.0027   24.9384 C.3     1  UNL1        0.0746
      8 N           6.6288   -2.7034   23.8800 N.3     1  UNL1       -0.2676
      9 C           6.2103   -2.6149   22.4423 C.3     1  UNL1        0.0746
     10 C           4.9925   -1.8256   22.0630 C.3     1  UNL1        0.0449
     11 C           3.2994   -0.3750   24.0642 C.2     1  UNL1        0.2529
     12 O           3.4666   -0.2828   25.5520 O.2     1  UNL1       -0.2724
     13 C           4.2407   -1.5269   20.4791 C.ar    1  UNL1        0.1453
     14 C           3.8759   -2.9187   20.0552 C.ar    1  UNL1        0.0922
     15 C           4.4615   -3.4987   18.8019 C.ar    1  UNL1        0.2259
     16 O           4.0967   -4.8905   18.3779 O.3     1  UNL1       -0.4919
     17 N           5.4118   -2.6869   17.9725 N.ar    1  UNL1       -0.1894
     18 C           5.7766   -1.2951   18.3964 C.ar    1  UNL1        0.2027
     19 N           5.1910   -0.7151   19.6497 N.ar    1  UNL1       -0.2084
     20 H           3.5031   -5.3977   18.8960 H       1  UNL1        0.2938
     21 C          -1.1343    2.8052   24.8783 C.ar    1  UNL1        0.0073
     22 C          -0.5685    3.0889   23.5183 C.ar    1  UNL1        0.0018
     23 C           0.5459    2.2427   22.9782 C.ar    1  UNL1        0.0154
     24 C           1.0946    1.1127   23.7981 C.ar    1  UNL1        0.0622
     25 C           0.5289    0.8291   25.1579 C.ar    1  UNL1        0.0154
     26 C          -0.5856    1.6753   25.6980 C.ar    1  UNL1        0.0018
     27 C          -5.8763    5.0248   25.5623 C.3     1  UNL1        0.0594
     28 C          -4.4285    4.6717   25.7328 C.ar    1  UNL1        0.0882
     29 N          -3.4992    5.2359   26.7663 N.ar    1  UNL1       -0.2470
     30 C          -2.1521    4.6054   26.5720 C.ar    1  UNL1        0.0655
     31 C          -0.9239    4.8805   27.3881 C.3     1  UNL1        0.0526
     32 C          -2.2488    3.6515   25.4184 C.ar    1  UNL1        0.0441
     33 S          -3.6557    3.6925   24.8998 S.2     1  UNL1       -0.0711
     34 C           7.8467   -3.4927   24.2595 C.3     1  UNL1        0.1183
     35 C           7.7011   -4.8903   24.7844 C.ar    1  UNL1        0.0712
     36 N           7.0446   -5.1282   26.1120 N.ar    1  UNL1       -0.2471
     37 C           6.8991   -6.5259   26.6369 C.ar    1  UNL1        0.0985
     38 C           7.4101   -7.6855   25.8343 C.ar    1  UNL1        0.0203
     39 C           8.0666   -7.4475   24.5067 C.ar    1  UNL1       -0.0015
     40 C           8.2121   -6.0500   23.9818 C.ar    1  UNL1       -0.0069
     41 C           8.8686   -5.8120   22.6543 C.3     1  UNL1        0.0323
@<TRIPOS>BOND
     1    27    28    1
     2    28    29   ar
     3    29    30   ar
     4    30    31    1
     5    30    32   ar
     6    32    21    1
     7    21    22   ar
     8    22    23   ar
     9    23    24   ar
    10    24     1    1
    11     1     2   am
    12     2     3    2
    13     2     4   am
    14     4    13    1
    15    13    14   ar
    16    14    15   ar
    17    15    16    1
    18    15    17   ar
    19    17    18   ar
    20    18    19   ar
    21     4     5    1
    22     5     6    1
    23     6     7    1
    24     7     8    1
    25     8    34    1
    26    34    35    1
    27    35    36   ar
    28    36    37   ar
    29    37    38   ar
    30    38    39   ar
    31    39    40   ar
    32    40    41    1
    33     8     9    1
    34     9    10    1
    35     5    11    1
    36    11    12    2
    37    24    25   ar
    38    25    26   ar
    39    32    33   ar
    40    33    28   ar
    41    26    21   ar
    42    11     1   am
    43    19    13   ar
    44    10     5    1
    45    40    35   ar
    46    16    20    1
@<TRIPOS>MOLECULE
*****
 41 46 0 0 0
SMALL
GASTEIGER

@<TRIPOS>ATOM
      1 N           2.0029    0.3611   24.0199 N.am    1  UNL1       -0.1907
      2 C           2.3543   -0.1187   22.6428 C.2     1  UNL1        0.3219
      3 O           1.6186    0.2143   21.3788 O.2     1  UNL1       -0.2512
      4 N           3.5705   -0.9898   22.7517 N.am    1  UNL1       -0.2222
      5 C           3.9709   -1.0485   24.1962 C.3     1  UNL1        0.1391
      6 C           4.2489   -1.0131   25.6697 C.3     1  UNL1        0.0449
      7 C           5.4136   -1.7732   26.2316 C.3     1  UNL1        0.0746
      8 N           6.3002   -2.5687   25.3200 N.3     1  UNL1       -0.2676
      9 C           6.0222   -2.6041   23.8464 C.3     1  UNL1        0.0746
     10 C           4.8575   -1.8440   23.2845 C.3     1  UNL1        0.0449
     11 C           3.0020   -0.2136   24.9800 C.2     1  UNL1        0.2529
     12 O           3.0278    0.0077   26.4633 O.2     1  UNL1       -0.2724
     13 C           4.2646   -1.6809   21.6157 C.ar    1  UNL1        0.1453
     14 C           3.8987   -3.0914   21.2599 C.ar    1  UNL1        0.0922
     15 C           4.5929   -3.7824   20.1238 C.ar    1  UNL1        0.2259
     16 O           4.2269   -5.1929   19.7680 O.3     1  UNL1       -0.4919
     17 N           5.6530   -3.0631   19.3436 N.ar    1  UNL1       -0.1894
     18 C           6.0189   -1.6526   19.6995 C.ar    1  UNL1        0.2027
     19 N           5.3247   -0.9615   20.8355 N.ar    1  UNL1       -0.2084
     20 H           3.5648   -5.6423   20.2554 H       1  UNL1        0.2938
     21 C          -1.4434    3.0518   25.0844 C.ar    1  UNL1        0.0073
     22 C          -0.9868    1.9997   26.0513 C.ar    1  UNL1        0.0018
     23 C           0.1620    1.1029   25.6964 C.ar    1  UNL1        0.0154
     24 C           0.8541    1.2580   24.3748 C.ar    1  UNL1        0.0622
     25 C           0.3976    2.3099   23.4080 C.ar    1  UNL1        0.0154
     26 C          -0.7512    3.2068   23.7628 C.ar    1  UNL1        0.0018
     27 C          -4.3839    6.7540   27.4354 C.3     1  UNL1        0.0594
     28 C          -3.9438    5.6504   26.5199 C.ar    1  UNL1        0.0882
     29 N          -4.7762    5.0073   25.4505 N.ar    1  UNL1       -0.2470
     30 C          -3.9408    3.9556   24.7826 C.ar    1  UNL1        0.0655
     31 C          -4.3775    3.0667   23.6560 C.3     1  UNL1        0.0526
     32 C          -2.5921    3.9487   25.4392 C.ar    1  UNL1        0.0441
     33 S          -2.5940    4.9961   26.5129 S.2     1  UNL1       -0.0711
     34 C           7.4649   -3.3288   25.8820 C.3     1  UNL1        0.1183
     35 C           7.5885   -4.8029   25.6339 C.ar    1  UNL1        0.0712
     36 N           8.2762   -5.3002   24.3970 N.ar    1  UNL1       -0.2471
     37 C           8.3998   -6.7745   24.1489 C.ar    1  UNL1        0.0985
     38 C           7.8357   -7.7513   25.1376 C.ar    1  UNL1        0.0203
     39 C           7.1481   -7.2540   26.3745 C.ar    1  UNL1       -0.0015
     40 C           7.0244   -5.7799   26.6226 C.ar    1  UNL1       -0.0069
     41 C           6.3368   -5.2826   27.8595 C.3     1  UNL1        0.0323
@<TRIPOS>BOND
     1    27    28    1
     2    28    29   ar
     3    29    30   ar
     4    30    31    1
     5    30    32   ar
     6    32    21    1
     7    21    22   ar
     8    22    23   ar
     9    23    24   ar
    10    24     1    1
    11     1     2   am
    12     2     3    2
    13     2     4   am
    14     4    13    1
    15    13    14   ar
    16    14    15   ar
    17    15    16    1
    18    15    17   ar
    19    17    18   ar
    20    18    19   ar
    21     4     5    1
    22     5     6    1
    23     6     7    1
    24     7     8    1
    25     8    34    1
    26    34    35    1
    27    35    36   ar
    28    36    37   ar
    29    37    38   ar
    30    38    39   ar
    31    39    40   ar
    32    40    41    1
    33     8     9    1
    34     9    10    1
    35     5    11    1
    36    11    12    2
    37    24    25   ar
    38    25    26   ar
    39    32    33   ar
    40    33    28   ar
    41    26    21   ar
    42    11     1   am
    43    19    13   ar
    44    10     5    1
    45    40    35   ar
    46    16    20    1
@<TRIPOS>MOLECULE
*****
 41 46 0 0 0
SMALL
GASTEIGER

@<TRIPOS>ATOM
      1 N           4.7725   -0.9479   27.9193 N.am    1  UNL1       -0.1907
      2 C           5.9537   -1.8213   27.6160 C.2     1  UNL1        0.3219
      3 O           6.9848   -2.2835   28.6024 O.2     1  UNL1       -0.2512
      4 N           5.9228   -2.1514   26.1530 N.am    1  UNL1       -0.2222
      5 C           4.7224   -1.4819   25.5521 C.3     1  UNL1        0.1391
      6 C           3.4913   -0.7572   25.0949 C.3     1  UNL1        0.0449
      7 C           3.0749   -0.8204   23.6553 C.3     1  UNL1        0.0746
      8 N           3.8897   -1.6084   22.6728 N.3     1  UNL1       -0.2676
      9 C           5.1208   -2.3331   23.1300 C.3     1  UNL1        0.0746
     10 C           5.5371   -2.2699   24.5696 C.3     1  UNL1        0.0449
     11 C           4.0115   -0.7382   26.6437 C.2     1  UNL1        0.2529
     12 O           2.7594    0.0729   26.4872 O.2     1  UNL1       -0.2724
     13 C           6.9174   -3.0015   25.4197 C.ar    1  UNL1        0.1453
     14 C           6.7809   -4.4952   25.4319 C.ar    1  UNL1        0.0922
     15 C           7.7756   -5.3453   24.6985 C.ar    1  UNL1        0.2259
     16 O           7.6390   -6.8390   24.7107 O.3     1  UNL1       -0.4919
     17 N           8.9070   -4.7017   23.9529 N.ar    1  UNL1       -0.1894
     18 C           9.0436   -3.2080   23.9407 C.ar    1  UNL1        0.2027
     19 N           8.0488   -2.3579   24.6741 N.ar    1  UNL1       -0.2084
     20 H           6.9323   -7.2410   25.1765 H       1  UNL1        0.2938
     21 C           3.7002    0.7456   31.9481 C.ar    1  UNL1        0.0073
     22 C           2.7663   -0.2071   31.2623 C.ar    1  UNL1        0.0018
     23 C           3.1237   -0.7716   29.9193 C.ar    1  UNL1        0.0154
     24 C           4.4151   -0.3834   29.2622 C.ar    1  UNL1        0.0622
     25 C           5.3489    0.5692   29.9480 C.ar    1  UNL1        0.0154
     26 C           4.9914    1.1337   31.2910 C.ar    1  UNL1        0.0018
     27 C           3.7450    1.8188   37.1179 C.3     1  UNL1        0.0594
     28 C           3.3633    1.8034   35.6674 C.ar    1  UNL1        0.0882
     29 N           2.2220    2.5542   35.0480 N.ar    1  UNL1       -0.2470
     30 C           2.2092    2.2493   33.5794 C.ar    1  UNL1        0.0655
     31 C           1.2342    2.7889   32.5753 C.3     1  UNL1        0.0526
     32 C           3.3427    1.3101   33.2911 C.ar    1  UNL1        0.0441
     33 S           4.0560    1.0345   34.5815 S.2     1  UNL1       -0.0711
     34 C           3.4733   -1.6716   21.2331 C.3     1  UNL1        0.1183
     35 C           4.5129   -1.7380   20.1539 C.ar    1  UNL1        0.0712
     36 N           5.5205   -0.6357   20.0143 N.ar    1  UNL1       -0.2471
     37 C           6.5602   -0.7022   18.9350 C.ar    1  UNL1        0.0985
     38 C           6.5922   -1.8710   17.9954 C.ar    1  UNL1        0.0203
     39 C           5.5846   -2.9733   18.1351 C.ar    1  UNL1       -0.0015
     40 C           4.5449   -2.9069   19.2143 C.ar    1  UNL1       -0.0069
     41 C           3.5373   -4.0092   19.3539 C.3     1  UNL1        0.0323
@<TRIPOS>BOND
     1    27    28    1
     2    28    29   ar
     3    29    30   ar
     4    30    31    1
     5    30    32   ar
     6    32    21    1
     7    21    22   ar
     8    22    23   ar
     9    23    24   ar
    10    24     1    1
    11     1     2   am
    12     2     3    2
    13     2     4   am
    14     4    13    1
    15    13    14   ar
    16    14    15   ar
    17    15    16    1
    18    15    17   ar
    19    17    18   ar
    20    18    19   ar
    21     4     5    1
    22     5     6    1
    23     6     7    1
    24     7     8    1
    25     8    34    1
    26    34    35    1
    27    35    36   ar
    28    36    37   ar
    29    37    38   ar
    30    38    39   ar
    31    39    40   ar
    32    40    41    1
    33     8     9    1
    34     9    10    1
    35     5    11    1
    36    11    12    2
    37    24    25   ar
    38    25    26   ar
    39    32    33   ar
    40    33    28   ar
    41    26    21   ar
    42    11     1   am
    43    19    13   ar
    44    10     5    1
    45    40    35   ar
    46    16    20    1
@<TRIPOS>MOLECULE
*****
 41 46 0 0 0
SMALL
GASTEIGER

@<TRIPOS>ATOM
      1 N           2.2482    0.1992   23.1517 N.am    1  UNL1       -0.1907
      2 C           2.3999   -0.3624   21.7690 C.2     1  UNL1        0.3219
      3 O           1.4595   -0.1449   20.6210 O.2     1  UNL1       -0.2512
      4 N           3.6573   -1.1796   21.7361 N.am    1  UNL1       -0.2222
      5 C           4.2827   -1.1232   23.0984 C.3     1  UNL1        0.1391
      6 C           4.7877   -0.9753   24.5031 C.3     1  UNL1        0.0449
      7 C           6.0604   -1.6521   24.9176 C.3     1  UNL1        0.0746
      8 N           6.8282   -2.4769   23.9276 N.3     1  UNL1       -0.2676
      9 C           6.3233   -2.6248   22.5229 C.3     1  UNL1        0.0746
     10 C           5.0505   -1.9479   22.1083 C.3     1  UNL1        0.0449
     11 C           3.4118   -0.2710   23.9733 C.2     1  UNL1        0.2529
     12 O           3.6608    0.0539   25.4163 O.2     1  UNL1       -0.2724
     13 C           4.1950   -1.9229   20.5493 C.ar    1  UNL1        0.1453
     14 C           5.0650   -1.2159   19.5527 C.ar    1  UNL1        0.0922
     15 C           5.6026   -1.9592   18.3660 C.ar    1  UNL1        0.2259
     16 O           6.4727   -1.2522   17.3694 O.3     1  UNL1       -0.4919
     17 N           5.2703   -3.4095   18.1757 N.ar    1  UNL1       -0.1894
     18 C           4.4003   -4.1165   19.1723 C.ar    1  UNL1        0.2027
     19 N           3.8626   -3.3732   20.3591 N.ar    1  UNL1       -0.2084
     20 H           6.6803   -0.3463   17.4882 H       1  UNL1        0.2938
     21 C          -1.1085    2.8322   24.5835 C.ar    1  UNL1        0.0073
     22 C          -0.5356    1.7860   25.4931 C.ar    1  UNL1        0.0018
     23 C           0.5832    0.9083   25.0158 C.ar    1  UNL1        0.0154
     24 C           1.1293    1.0769   23.6289 C.ar    1  UNL1        0.0622
     25 C           0.5565    2.1230   22.7194 C.ar    1  UNL1        0.0154
     26 C          -0.5624    3.0006   23.1966 C.ar    1  UNL1        0.0018
     27 C          -5.8889    4.9913   25.1889 C.3     1  UNL1        0.0594
     28 C          -4.4247    4.7023   25.3390 C.ar    1  UNL1        0.0882
     29 N          -3.4737    5.4186   26.2513 N.ar    1  UNL1       -0.2470
     30 C          -2.1156    4.8053   26.0793 C.ar    1  UNL1        0.0655
     31 C          -0.8654    5.2154   26.7995 C.3     1  UNL1        0.0526
     32 C          -2.2274    3.7098   25.0607 C.ar    1  UNL1        0.0441
     33 S          -3.6544    3.6462   24.6032 S.2     1  UNL1       -0.0711
     34 C           8.1011   -3.1537   24.3422 C.3     1  UNL1        0.1183
     35 C           8.2231   -4.6456   24.2454 C.ar    1  UNL1        0.0712
     36 N           8.8853   -5.2681   23.0521 N.ar    1  UNL1       -0.2471
     37 C           9.0073   -6.7601   22.9554 C.ar    1  UNL1        0.0985
     38 C           8.4672   -7.6294   24.0519 C.ar    1  UNL1        0.0203
     39 C           7.8051   -7.0069   25.2453 C.ar    1  UNL1       -0.0015
     40 C           7.6831   -5.5150   25.3420 C.ar    1  UNL1       -0.0069
     41 C           7.0209   -4.8925   26.5354 C.3     1  UNL1        0.0323
@<TRIPOS>BOND
     1    27    28    1
     2    28    29   ar
     3    29    30   ar
     4    30    31    1
     5    30    32   ar
     6    32    21    1
     7    21    22   ar
     8    22    23   ar
     9    23    24   ar
    10    24     1    1
    11     1     2   am
    12     2     3    2
    13     2     4   am
    14     4    13    1
    15    13    14   ar
    16    14    15   ar
    17    15    16    1
    18    15    17   ar
    19    17    18   ar
    20    18    19   ar
    21     4     5    1
    22     5     6    1
    23     6     7    1
    24     7     8    1
    25     8    34    1
    26    34    35    1
    27    35    36   ar
    28    36    37   ar
    29    37    38   ar
    30    38    39   ar
    31    39    40   ar
    32    40    41    1
    33     8     9    1
    34     9    10    1
    35     5    11    1
    36    11    12    2
    37    24    25   ar
    38    25    26   ar
    39    32    33   ar
    40    33    28   ar
    41    26    21   ar
    42    11     1   am
    43    19    13   ar
    44    10     5    1
    45    40    35   ar
    46    16    20    1
@<TRIPOS>MOLECULE
*****
 41 46 0 0 0
SMALL
GASTEIGER

@<TRIPOS>ATOM
      1 N           2.7594    0.6885   26.5379 N.am    1  UNL1       -0.1907
      2 C           1.9965    1.8881   26.0591 C.2     1  UNL1        0.3219
      3 O           1.4965    3.0141   26.9146 O.2     1  UNL1       -0.2512
      4 N           1.8215    1.7639   24.5745 N.am    1  UNL1       -0.2222
      5 C           2.4762    0.4875   24.1357 C.3     1  UNL1        0.1391
      6 C           3.1687   -0.8114   23.8477 C.3     1  UNL1        0.0449
      7 C           3.2326   -1.3318   22.4423 C.3     1  UNL1        0.0746
      8 N           2.6039   -0.5531   21.3250 N.3     1  UNL1       -0.2676
      9 C           1.9113    0.7459   21.6130 C.3     1  UNL1        0.0746
     10 C           1.8475    1.2662   23.0184 C.3     1  UNL1        0.0449
     11 C           3.0558   -0.1771   25.3491 C.2     1  UNL1        0.2529
     12 O           3.8010   -1.4787   25.3702 O.2     1  UNL1       -0.2724
     13 C           1.1158    2.7438   23.6848 C.ar    1  UNL1        0.1453
     14 C          -0.3673    2.6419   23.4844 C.ar    1  UNL1        0.0922
     15 C          -1.0729    3.6219   22.5947 C.ar    1  UNL1        0.2259
     16 O          -2.5560    3.5200   22.3943 O.3     1  UNL1       -0.4919
     17 N          -0.2956    4.7039   21.9054 N.ar    1  UNL1       -0.1894
     18 C           1.1874    4.8058   22.1058 C.ar    1  UNL1        0.2027
     19 N           1.8931    3.8258   22.9955 N.ar    1  UNL1       -0.2084
     20 H          -3.0416    2.8442   22.8249 H       1  UNL1        0.2938
     21 C           3.9495   -0.1638   30.7931 C.ar    1  UNL1        0.0073
     22 C           2.6164   -0.6226   30.2809 C.ar    1  UNL1        0.0018
     23 C           2.2197   -0.3385   28.8625 C.ar    1  UNL1        0.0154
     24 C           3.1561    0.4044   27.9563 C.ar    1  UNL1        0.0622
     25 C           4.4891    0.8632   28.4685 C.ar    1  UNL1        0.0154
     26 C           4.8858    0.5791   29.8869 C.ar    1  UNL1        0.0018
     27 C           4.4705    0.2149   36.0339 C.3     1  UNL1        0.0594
     28 C           4.5857   -0.2738   34.6204 C.ar    1  UNL1        0.0882
     29 N           5.3278   -1.4963   34.1680 N.ar    1  UNL1       -0.2470
     30 C           5.1798   -1.6039   32.6792 C.ar    1  UNL1        0.0655
     31 C           5.7631   -2.6788   31.8106 C.3     1  UNL1        0.0526
     32 C           4.3462   -0.4478   32.2115 C.ar    1  UNL1        0.0441
     33 S           3.9791    0.3742   33.4112 S.2     1  UNL1       -0.0711
     34 C           2.6677   -1.0735   19.9195 C.3     1  UNL1        0.1183
     35 C           3.9950   -1.3905   19.2967 C.ar    1  UNL1        0.0712
     36 N           4.9782   -0.2905   19.0258 N.ar    1  UNL1       -0.2471
     37 C           6.3055   -0.6076   18.4030 C.ar    1  UNL1        0.0985
     38 C           6.6495   -2.0245   18.0511 C.ar    1  UNL1        0.0203
     39 C           5.6663   -3.1245   18.3219 C.ar    1  UNL1       -0.0015
     40 C           4.3390   -2.8075   18.9447 C.ar    1  UNL1       -0.0069
     41 C           3.3558   -3.9074   19.2156 C.3     1  UNL1        0.0323
@<TRIPOS>BOND
     1    27    28    1
     2    28    29   ar
     3    29    30   ar
     4    30    31    1
     5    30    32   ar
     6    32    21    1
     7    21    22   ar
     8    22    23   ar
     9    23    24   ar
    10    24     1    1
    11     1     2   am
    12     2     3    2
    13     2     4   am
    14     4    13    1
    15    13    14   ar
    16    14    15   ar
    17    15    16    1
    18    15    17   ar
    19    17    18   ar
    20    18    19   ar
    21     4     5    1
    22     5     6    1
    23     6     7    1
    24     7     8    1
    25     8    34    1
    26    34    35    1
    27    35    36   ar
    28    36    37   ar
    29    37    38   ar
    30    38    39   ar
    31    39    40   ar
    32    40    41    1
    33     8     9    1
    34     9    10    1
    35     5    11    1
    36    11    12    2
    37    24    25   ar
    38    25    26   ar
    39    32    33   ar
    40    33    28   ar
    41    26    21   ar
    42    11     1   am
    43    19    13   ar
    44    10     5    1
    45    40    35   ar
    46    16    20    1
@<TRIPOS>MOLECULE
*****
 41 46 0 0 0
SMALL
GASTEIGER

@<TRIPOS>ATOM
      1 N           1.9550    0.8298   28.8813 N.am    1  UNL1       -0.1907
      2 C           2.1782    0.7482   30.3624 C.2     1  UNL1        0.3219
      3 O           1.3047    1.3546   31.4203 O.2     1  UNL1       -0.2512
      4 N           3.4282   -0.0463   30.5998 N.am    1  UNL1       -0.2222
      5 C           3.9777   -0.4557   29.2654 C.3     1  UNL1        0.1391
      6 C           4.4053   -0.7895   27.8670 C.3     1  UNL1        0.0449
      7 C           5.6472   -1.5983   27.6354 C.3     1  UNL1        0.0746
      8 N           6.4613   -2.0733   28.8022 N.3     1  UNL1       -0.2676
      9 C           6.0336   -1.7396   30.2006 C.3     1  UNL1        0.0746
     10 C           4.7918   -0.9308   30.4322 C.3     1  UNL1        0.0449
     11 C           3.0672    0.0857   28.2033 C.2     1  UNL1        0.2529
     12 O           3.2388   -0.0866   26.7232 O.2     1  UNL1       -0.2724
     13 C           4.0242   -0.3738   31.9367 C.ar    1  UNL1        0.1453
     14 C           4.9370    0.6067   32.6116 C.ar    1  UNL1        0.0922
     15 C           5.5329    0.2791   33.9485 C.ar    1  UNL1        0.2259
     16 O           6.4457    1.2596   34.6234 O.3     1  UNL1       -0.4919
     17 N           5.2161   -1.0291   34.6107 N.ar    1  UNL1       -0.1894
     18 C           4.3033   -2.0096   33.9359 C.ar    1  UNL1        0.2027
     19 N           3.7074   -1.6819   32.5990 N.ar    1  UNL1       -0.2084
     20 H           6.6436    2.0767   34.2097 H       1  UNL1        0.2938
     21 C          -1.4524    2.9366   26.8319 C.ar    1  UNL1        0.0073
     22 C          -1.6934    1.6399   27.5463 C.ar    1  UNL1        0.0018
     23 C          -0.5576    0.9376   28.2294 C.ar    1  UNL1        0.0154
     24 C           0.8192    1.5321   28.1982 C.ar    1  UNL1        0.0622
     25 C           1.0602    2.8287   27.4838 C.ar    1  UNL1        0.0154
     26 C          -0.0756    3.5310   26.8007 C.ar    1  UNL1        0.0018
     27 C          -6.0174    5.4490   25.9782 C.3     1  UNL1        0.0594
     28 C          -4.6865    4.7938   25.7563 C.ar    1  UNL1        0.0882
     29 N          -3.9855    4.6456   24.4385 N.ar    1  UNL1       -0.2470
     30 C          -2.6887    3.9319   24.6810 C.ar    1  UNL1        0.0655
     31 C          -1.6710    3.5739   23.6388 C.3     1  UNL1        0.0526
     32 C          -2.5882    3.6389   26.1487 C.ar    1  UNL1        0.0441
     33 S          -3.8229    4.1716   26.8133 S.2     1  UNL1       -0.0711
     34 C           7.7032   -2.8822   28.5705 C.3     1  UNL1        0.1183
     35 C           7.6883   -4.0140   27.5863 C.ar    1  UNL1        0.0712
     36 N           8.1238   -3.7820   26.1698 N.ar    1  UNL1       -0.2471
     37 C           8.1089   -4.9139   25.1856 C.ar    1  UNL1        0.0985
     38 C           7.6586   -6.2778   25.6180 C.ar    1  UNL1        0.0203
     39 C           7.2230   -6.5098   27.0345 C.ar    1  UNL1       -0.0015
     40 C           7.2379   -5.3780   28.0186 C.ar    1  UNL1       -0.0069
     41 C           6.8024   -5.6100   29.4352 C.3     1  UNL1        0.0323
@<TRIPOS>BOND
     1    27    28    1
     2    28    29   ar
     3    29    30   ar
     4    30    31    1
     5    30    32   ar
     6    32    21    1
     7    21    22   ar
     8    22    23   ar
     9    23    24   ar
    10    24     1    1
    11     1     2   am
    12     2     3    2
    13     2     4   am
    14     4    13    1
    15    13    14   ar
    16    14    15   ar
    17    15    16    1
    18    15    17   ar
    19    17    18   ar
    20    18    19   ar
    21     4     5    1
    22     5     6    1
    23     6     7    1
    24     7     8    1
    25     8    34    1
    26    34    35    1
    27    35    36   ar
    28    36    37   ar
    29    37    38   ar
    30    38    39   ar
    31    39    40   ar
    32    40    41    1
    33     8     9    1
    34     9    10    1
    35     5    11    1
    36    11    12    2
    37    24    25   ar
    38    25    26   ar
    39    32    33   ar
    40    33    28   ar
    41    26    21   ar
    42    11     1   am
    43    19    13   ar
    44    10     5    1
    45    40    35   ar
    46    16    20    1
