@<TRIPOS>MOLECULE
*****
 29 33 0 0 0
SMALL
GASTEIGER

@<TRIPOS>ATOM
      1 N           1.9938    1.0258   26.0241 N.ar    1  UNL1       -0.3256
      2 C           2.1962    0.6018   24.5996 C.ar    1  UNL1        0.0367
      3 C           1.0462    1.1266   23.7920 C.ar    1  UNL1        0.0108
      4 C           0.1332    1.8750   24.7173 C.ar    1  UNL1        0.0145
      5 C          -1.1558    2.6051   24.4820 C.ar    1  UNL1        0.0012
      6 C          -1.8591    3.2730   25.6262 C.ar    1  UNL1        0.0001
      7 C          -1.2735    3.2107   27.0057 C.ar    1  UNL1        0.0015
      8 C           0.0155    2.4806   27.2411 C.ar    1  UNL1        0.0172
      9 C           0.7188    1.8127   26.0969 C.ar    1  UNL1        0.0597
     10 C           0.9791    0.8551   22.3183 C.3     1  UNL1        0.1216
     11 N           2.0619    0.0589   21.6523 N.am    1  UNL1       -0.2715
     12 C           1.9947   -0.2126   20.1785 C.2     1  UNL1        0.2493
     13 O           0.8448    0.3122   19.3708 O.2     1  UNL1       -0.2699
     14 C           3.2118   -0.4659   22.4599 C.3     1  UNL1        0.1003
     15 C           3.2789   -0.1945   23.9336 C.3     1  UNL1        0.0650
     16 C           3.0775   -1.0088   19.5125 C.ar    1  UNL1        0.0536
     17 C           3.0816   -2.5050   19.6185 C.ar    1  UNL1        0.0045
     18 C           4.1645   -3.3012   18.9525 C.ar    1  UNL1        0.0001
     19 C           5.2433   -2.6011   18.1805 C.ar    1  UNL1        0.0000
     20 C           5.2393   -1.1048   18.0744 C.ar    1  UNL1        0.0001
     21 C           6.3181   -0.4047   17.3024 C.ar    1  UNL1        0.0000
     22 C           6.3140    1.0915   17.1964 C.ar    1  UNL1        0.0000
     23 C           5.2311    1.8877   17.8624 C.ar    1  UNL1        0.0000
     24 C           4.1523    1.1876   18.6344 C.ar    1  UNL1        0.0001
     25 C           4.1564   -0.3086   18.7404 C.ar    1  UNL1        0.0044
     26 C           2.9062    0.7172   27.1740 C.3     1  UNL1        0.1474
     27 O           1.8354   -0.5560   29.1696 O.co2   1  UNL1       -0.5472
     28 C           2.7218   -0.5472   27.9594 C.2     1  UNL1        0.0732
     29 O           3.4236   -1.8031   27.5348 O.co2   1  UNL1       -0.5472
@<TRIPOS>UNITY_ATOM_ATTR
27 1
charge -1
@<TRIPOS>BOND
     1    27    28   ar
     2    28    29   ar
     3    28    26    1
     4    26     1    1
     5     1     2   ar
     6     2     3   ar
     7     3     4   ar
     8     4     5   ar
     9     5     6   ar
    10     6     7   ar
    11     7     8   ar
    12     8     9   ar
    13     3    10    1
    14    10    11    1
    15    11    12   am
    16    12    13    2
    17    12    16    1
    18    16    17   ar
    19    17    18   ar
    20    18    19   ar
    21    19    20   ar
    22    20    21   ar
    23    21    22   ar
    24    22    23   ar
    25    23    24   ar
    26    24    25   ar
    27    11    14    1
    28    14    15    1
    29     9     1   ar
    30    25    16   ar
    31    15     2    1
    32     9     4   ar
    33    25    20   ar
@<TRIPOS>MOLECULE
*****
 29 33 0 0 0
SMALL
GASTEIGER

@<TRIPOS>ATOM
      1 N           3.1862   -1.4816   19.7414 N.ar    1  UNL1       -0.3256
      2 C           2.2573   -0.3053   19.6833 C.ar    1  UNL1        0.0367
      3 C           2.0705    0.2072   21.0806 C.ar    1  UNL1        0.0108
      4 C           2.8839   -0.6524   22.0022 C.ar    1  UNL1        0.0145
      5 C           3.0858   -0.6196   23.4882 C.ar    1  UNL1        0.0012
      6 C           3.9772   -1.6304   24.1465 C.ar    1  UNL1        0.0001
      7 C           4.6668   -2.6742   23.3188 C.ar    1  UNL1        0.0015
      8 C           4.4649   -2.7071   21.8328 C.ar    1  UNL1        0.0172
      9 C           3.5735   -1.6962   21.1745 C.ar    1  UNL1        0.0597
     10 C           1.1838    1.3903   21.3331 C.3     1  UNL1        0.1216
     11 N           0.4839    2.0610   20.1884 N.am    1  UNL1       -0.2715
     12 C          -0.4028    3.2443   20.4411 C.2     1  UNL1        0.2493
     13 O          -0.5896    3.7568   21.8384 O.2     1  UNL1       -0.2699
     14 C           0.6707    1.5486   18.7911 C.3     1  UNL1        0.1003
     15 C           1.5574    0.3654   18.5385 C.3     1  UNL1        0.0650
     16 C          -1.1027    3.9149   19.2963 C.ar    1  UNL1        0.0536
     17 C          -0.3042    4.5907   18.2212 C.ar    1  UNL1        0.0045
     18 C          -1.0042    5.2614   17.0765 C.ar    1  UNL1        0.0001
     19 C          -2.5025    5.2562   17.0068 C.ar    1  UNL1        0.0000
     20 C          -3.3010    4.5803   18.0819 C.ar    1  UNL1        0.0001
     21 C          -4.7994    4.5751   18.0122 C.ar    1  UNL1        0.0000
     22 C          -5.5978    3.8993   19.0873 C.ar    1  UNL1        0.0000
     23 C          -4.8979    3.2287   20.2320 C.ar    1  UNL1        0.0000
     24 C          -3.3995    3.2339   20.3017 C.ar    1  UNL1        0.0001
     25 C          -2.6011    3.9097   19.2266 C.ar    1  UNL1        0.0044
     26 C           3.6470   -2.2998   18.5716 C.3     1  UNL1        0.1474
     27 O           3.9575   -0.9684   16.3624 O.co2   1  UNL1       -0.5472
     28 C           4.5468   -1.6903   17.5379 C.2     1  UNL1        0.0732
     29 O           6.0359   -1.8025   17.6795 O.co2   1  UNL1       -0.5472
@<TRIPOS>UNITY_ATOM_ATTR
27 1
charge -1
@<TRIPOS>BOND
     1    27    28   ar
     2    28    29   ar
     3    28    26    1
     4    26     1    1
     5     1     2   ar
     6     2     3   ar
     7     3     4   ar
     8     4     5   ar
     9     5     6   ar
    10     6     7   ar
    11     7     8   ar
    12     8     9   ar
    13     3    10    1
    14    10    11    1
    15    11    12   am
    16    12    13    2
    17    12    16    1
    18    16    17   ar
    19    17    18   ar
    20    18    19   ar
    21    19    20   ar
    22    20    21   ar
    23    21    22   ar
    24    22    23   ar
    25    23    24   ar
    26    24    25   ar
    27    11    14    1
    28    14    15    1
    29     9     1   ar
    30    25    16   ar
    31    15     2    1
    32     9     4   ar
    33    25    20   ar
@<TRIPOS>MOLECULE
*****
 29 33 0 0 0
SMALL
GASTEIGER

@<TRIPOS>ATOM
      1 N          -4.4964  -17.6771   22.8635 N.ar    1  UNL1       -0.3256
      2 C          -5.9152  -17.7765   22.3868 C.ar    1  UNL1        0.0367
      3 C          -5.9698  -18.8178   21.3085 C.ar    1  UNL1        0.0108
      4 C          -4.5849  -19.3620   21.1188 C.ar    1  UNL1        0.0145
      5 C          -4.0355  -20.4083   20.1952 C.ar    1  UNL1        0.0012
      6 C          -2.5753  -20.7496   20.2326 C.ar    1  UNL1        0.0001
      7 C          -1.6647  -20.0446   21.1937 C.ar    1  UNL1        0.0015
      8 C          -2.2142  -18.9983   22.1174 C.ar    1  UNL1        0.0172
      9 C          -3.6743  -18.6570   22.0799 C.ar    1  UNL1        0.0597
     10 C          -7.2737  -19.1360   20.6386 C.3     1  UNL1        0.1216
     11 N          -8.5228  -18.4129   21.0470 N.am    1  UNL1       -0.2715
     12 C          -9.8267  -18.7311   20.3771 C.2     1  UNL1        0.2493
     13 O          -9.8814  -19.7724   19.2988 O.2     1  UNL1       -0.2699
     14 C          -8.4681  -17.3716   22.1253 C.3     1  UNL1        0.1003
     15 C          -7.1643  -17.0534   22.7952 C.3     1  UNL1        0.0650
     16 C         -11.0758  -18.0079   20.7856 C.ar    1  UNL1        0.0536
     17 C         -11.7073  -17.0165   19.8538 C.ar    1  UNL1        0.0045
     18 C         -12.9564  -16.2934   20.2624 C.ar    1  UNL1        0.0001
     19 C         -13.5740  -16.5617   21.6027 C.ar    1  UNL1        0.0000
     20 C         -12.9424  -17.5531   22.5346 C.ar    1  UNL1        0.0001
     21 C         -13.5600  -17.8214   23.8750 C.ar    1  UNL1        0.0000
     22 C         -12.9285  -18.8129   24.8068 C.ar    1  UNL1        0.0000
     23 C         -11.6794  -19.5360   24.3982 C.ar    1  UNL1        0.0000
     24 C         -11.0618  -19.2677   23.0578 C.ar    1  UNL1        0.0001
     25 C         -11.6934  -18.2763   22.1260 C.ar    1  UNL1        0.0044
     26 C          -3.9889  -16.7591   23.9357 C.3     1  UNL1        0.1474
     27 O          -4.5818  -14.4562   22.8893 O.co2   1  UNL1       -0.5472
     28 C          -4.5584  -15.3782   24.0723 C.2     1  UNL1        0.0732
     29 O          -5.1046  -14.9193   25.3918 O.co2   1  UNL1       -0.5472
@<TRIPOS>UNITY_ATOM_ATTR
27 1
charge -1
@<TRIPOS>BOND
     1    27    28   ar
     2    28    29   ar
     3    28    26    1
     4    26     1    1
     5     1     2   ar
     6     2     3   ar
     7     3     4   ar
     8     4     5   ar
     9     5     6   ar
    10     6     7   ar
    11     7     8   ar
    12     8     9   ar
    13     3    10    1
    14    10    11    1
    15    11    12   am
    16    12    13    2
    17    12    16    1
    18    16    17   ar
    19    17    18   ar
    20    18    19   ar
    21    19    20   ar
    22    20    21   ar
    23    21    22   ar
    24    22    23   ar
    25    23    24   ar
    26    24    25   ar
    27    11    14    1
    28    14    15    1
    29     9     1   ar
    30    25    16   ar
    31    15     2    1
    32     9     4   ar
    33    25    20   ar
@<TRIPOS>MOLECULE
*****
 29 33 0 0 0
SMALL
GASTEIGER

@<TRIPOS>ATOM
      1 N           2.9005   -0.1704   21.2351 N.ar    1  UNL1       -0.3256
      2 C           3.0889   -0.0316   22.7167 C.ar    1  UNL1        0.0367
      3 C           3.7079   -1.2994   23.2260 C.ar    1  UNL1        0.0108
      4 C           3.9020   -2.2218   22.0592 C.ar    1  UNL1        0.0145
      5 C           4.4687   -3.6070   21.9583 C.ar    1  UNL1        0.0012
      6 C           4.5364   -4.2943   20.6268 C.ar    1  UNL1        0.0001
      7 C           4.0374   -3.5966   19.3963 C.ar    1  UNL1        0.0015
      8 C           3.4707   -2.2115   19.4973 C.ar    1  UNL1        0.0172
      9 C           3.4030   -1.5241   20.8287 C.ar    1  UNL1        0.0597
     10 C           4.0148   -1.4501   24.6865 C.3     1  UNL1        0.1216
     11 N           3.7027   -0.3330   25.6377 N.am    1  UNL1       -0.2715
     12 C           4.0096   -0.4838   27.0983 C.2     1  UNL1        0.2493
     13 O           4.6286   -1.7516   27.6076 O.2     1  UNL1       -0.2699
     14 C           3.0837    0.9348   25.1284 C.3     1  UNL1        0.1003
     15 C           2.7768    1.0855   23.6679 C.3     1  UNL1        0.0650
     16 C           3.6975    0.6334   28.0494 C.ar    1  UNL1        0.0536
     17 C           4.7607    1.6262   28.4151 C.ar    1  UNL1        0.0045
     18 C           4.4485    2.7434   29.3662 C.ar    1  UNL1        0.0001
     19 C           3.0731    2.8676   29.9515 C.ar    1  UNL1        0.0000
     20 C           2.0098    1.8748   29.5858 C.ar    1  UNL1        0.0001
     21 C           0.6343    1.9990   30.1712 C.ar    1  UNL1        0.0000
     22 C          -0.4289    1.0061   29.8055 C.ar    1  UNL1        0.0000
     23 C          -0.1167   -0.1110   28.8544 C.ar    1  UNL1        0.0000
     24 C           1.2588   -0.2353   28.2690 C.ar    1  UNL1        0.0001
     25 C           2.3220    0.7576   28.6348 C.ar    1  UNL1        0.0044
     26 C           2.3127    0.8629   20.3204 C.3     1  UNL1        0.1474
     27 O           0.8441    0.6043   18.1928 O.co2   1  UNL1       -0.5472
     28 C           0.9733    0.6292   19.6871 C.2     1  UNL1        0.0732
     29 O          -0.2372    0.4205   20.5480 O.co2   1  UNL1       -0.5472
@<TRIPOS>UNITY_ATOM_ATTR
27 1
charge -1
@<TRIPOS>BOND
     1    27    28   ar
     2    28    29   ar
     3    28    26    1
     4    26     1    1
     5     1     2   ar
     6     2     3   ar
     7     3     4   ar
     8     4     5   ar
     9     5     6   ar
    10     6     7   ar
    11     7     8   ar
    12     8     9   ar
    13     3    10    1
    14    10    11    1
    15    11    12   am
    16    12    13    2
    17    12    16    1
    18    16    17   ar
    19    17    18   ar
    20    18    19   ar
    21    19    20   ar
    22    20    21   ar
    23    21    22   ar
    24    22    23   ar
    25    23    24   ar
    26    24    25   ar
    27    11    14    1
    28    14    15    1
    29     9     1   ar
    30    25    16   ar
    31    15     2    1
    32     9     4   ar
    33    25    20   ar
@<TRIPOS>MOLECULE
*****
 29 33 0 0 0
SMALL
GASTEIGER

@<TRIPOS>ATOM
      1 N           3.8771   -1.5304   19.9841 N.ar    1  UNL1       -0.3256
      2 C           4.7602   -2.3229   20.9018 C.ar    1  UNL1        0.0367
      3 C           6.1854   -2.0596   20.5153 C.ar    1  UNL1        0.0108
      4 C           6.1832   -1.1044   19.3588 C.ar    1  UNL1        0.0145
      5 C           7.2959   -0.4902   18.5622 C.ar    1  UNL1        0.0012
      6 C           6.9819    0.4512   17.4374 C.ar    1  UNL1        0.0001
      7 C           5.5553    0.7783   17.1091 C.ar    1  UNL1        0.0015
      8 C           4.4426    0.1640   17.9057 C.ar    1  UNL1        0.0172
      9 C           4.7565   -0.7773   19.0305 C.ar    1  UNL1        0.0597
     10 C           7.3011   -2.7238   21.2664 C.3     1  UNL1        0.1216
     11 N           6.9915   -3.6512   22.4040 N.am    1  UNL1       -0.2715
     12 C           8.1073   -4.3153   23.1551 C.2     1  UNL1        0.2493
     13 O           9.5325   -4.0520   22.7686 O.2     1  UNL1       -0.2699
     14 C           5.5663   -3.9145   22.7905 C.3     1  UNL1        0.1003
     15 C           4.4506   -3.2504   22.0394 C.3     1  UNL1        0.0650
     16 C           7.7977   -5.2427   24.2927 C.ar    1  UNL1        0.0536
     17 C           8.0032   -6.7200   24.1334 C.ar    1  UNL1        0.0045
     18 C           7.6936   -7.6473   25.2710 C.ar    1  UNL1        0.0001
     19 C           7.1784   -7.0973   26.5680 C.ar    1  UNL1        0.0000
     20 C           6.9728   -5.6200   26.7273 C.ar    1  UNL1        0.0001
     21 C           6.4576   -5.0700   28.0243 C.ar    1  UNL1        0.0000
     22 C           6.2520   -3.5927   28.1836 C.ar    1  UNL1        0.0000
     23 C           6.5617   -2.6654   27.0459 C.ar    1  UNL1        0.0000
     24 C           7.0769   -3.2154   25.7490 C.ar    1  UNL1        0.0001
     25 C           7.2824   -4.6927   25.5897 C.ar    1  UNL1        0.0044
     26 C           2.3778   -1.4968   20.0147 C.3     1  UNL1        0.1474
     27 O           2.4508    0.8442   21.1391 O.co2   1  UNL1       -0.5472
     28 C           1.6654   -0.2925   20.5549 C.2     1  UNL1        0.0732
     29 O           0.1676   -0.2246   20.5108 O.co2   1  UNL1       -0.5472
@<TRIPOS>UNITY_ATOM_ATTR
27 1
charge -1
@<TRIPOS>BOND
     1    27    28   ar
     2    28    29   ar
     3    28    26    1
     4    26     1    1
     5     1     2   ar
     6     2     3   ar
     7     3     4   ar
     8     4     5   ar
     9     5     6   ar
    10     6     7   ar
    11     7     8   ar
    12     8     9   ar
    13     3    10    1
    14    10    11    1
    15    11    12   am
    16    12    13    2
    17    12    16    1
    18    16    17   ar
    19    17    18   ar
    20    18    19   ar
    21    19    20   ar
    22    20    21   ar
    23    21    22   ar
    24    22    23   ar
    25    23    24   ar
    26    24    25   ar
    27    11    14    1
    28    14    15    1
    29     9     1   ar
    30    25    16   ar
    31    15     2    1
    32     9     4   ar
    33    25    20   ar
@<TRIPOS>MOLECULE
*****
 29 33 0 0 0
SMALL
GASTEIGER

@<TRIPOS>ATOM
      1 N         -14.7178   -5.0533   19.7227 N.ar    1  UNL1       -0.3256
      2 C         -15.2218   -3.6414   19.6740 C.ar    1  UNL1        0.0367
      3 C         -16.7138   -3.6867   19.5260 C.ar    1  UNL1        0.0108
      4 C         -17.1319   -5.1267   19.4832 C.ar    1  UNL1        0.0145
      5 C         -18.4765   -5.7779   19.3493 C.ar    1  UNL1        0.0012
      6 C         -18.5874   -7.2737   19.3369 C.ar    1  UNL1        0.0001
      7 C         -17.3538   -8.1183   19.4584 C.ar    1  UNL1        0.0015
      8 C         -16.0092   -7.4671   19.5924 C.ar    1  UNL1        0.0172
      9 C         -15.8982   -5.9713   19.6048 C.ar    1  UNL1        0.0597
     10 C         -17.4990   -2.4110   19.4494 C.3     1  UNL1        0.1216
     11 N         -16.7921   -1.0899   19.5207 N.am    1  UNL1       -0.2715
     12 C         -17.5773    0.1860   19.4440 C.2     1  UNL1        0.2493
     13 O         -19.0693    0.1406   19.2960 O.2     1  UNL1       -0.2699
     14 C         -15.3001   -1.0445   19.6687 C.3     1  UNL1        0.1003
     15 C         -14.5150   -2.3203   19.7454 C.3     1  UNL1        0.0650
     16 C         -16.8704    1.5070   19.5154 C.ar    1  UNL1        0.0536
     17 C         -16.2466    2.0915   18.2828 C.ar    1  UNL1        0.0045
     18 C         -15.5397    3.4126   18.3542 C.ar    1  UNL1        0.0001
     19 C         -15.4566    4.1492   19.6583 C.ar    1  UNL1        0.0000
     20 C         -16.0804    3.5647   20.8909 C.ar    1  UNL1        0.0001
     21 C         -15.9974    4.3014   22.1949 C.ar    1  UNL1        0.0000
     22 C         -16.6212    3.7169   23.4275 C.ar    1  UNL1        0.0000
     23 C         -17.3281    2.3958   23.3561 C.ar    1  UNL1        0.0000
     24 C         -17.4112    1.6592   22.0521 C.ar    1  UNL1        0.0001
     25 C         -16.7874    2.2437   20.8195 C.ar    1  UNL1        0.0044
     26 C         -13.2848   -5.4736   19.8644 C.3     1  UNL1        0.1474
     27 O         -12.7507   -4.9191   17.3830 O.co2   1  UNL1       -0.5472
     28 C         -12.2915   -5.1239   18.7963 C.2     1  UNL1        0.0732
     29 O         -10.8389   -4.9790   19.1413 O.co2   1  UNL1       -0.5472
@<TRIPOS>UNITY_ATOM_ATTR
27 1
charge -1
@<TRIPOS>BOND
     1    27    28   ar
     2    28    29   ar
     3    28    26    1
     4    26     1    1
     5     1     2   ar
     6     2     3   ar
     7     3     4   ar
     8     4     5   ar
     9     5     6   ar
    10     6     7   ar
    11     7     8   ar
    12     8     9   ar
    13     3    10    1
    14    10    11    1
    15    11    12   am
    16    12    13    2
    17    12    16    1
    18    16    17   ar
    19    17    18   ar
    20    18    19   ar
    21    19    20   ar
    22    20    21   ar
    23    21    22   ar
    24    22    23   ar
    25    23    24   ar
    26    24    25   ar
    27    11    14    1
    28    14    15    1
    29     9     1   ar
    30    25    16   ar
    31    15     2    1
    32     9     4   ar
    33    25    20   ar
@<TRIPOS>MOLECULE
*****
 29 33 0 0 0
SMALL
GASTEIGER

@<TRIPOS>ATOM
      1 N          -3.1840    3.7744   23.9009 N.ar    1  UNL1       -0.3256
      2 C          -2.2403    3.5864   22.7503 C.ar    1  UNL1        0.0367
      3 C          -3.0238    3.7326   21.4796 C.ar    1  UNL1        0.0108
      4 C          -4.4518    4.0110   21.8449 C.ar    1  UNL1        0.0145
      5 C          -5.6746    4.2443   21.0082 C.ar    1  UNL1        0.0012
      6 C          -6.9965    4.5035   21.6681 C.ar    1  UNL1        0.0001
      7 C          -7.0955    4.5294   23.1646 C.ar    1  UNL1        0.0015
      8 C          -5.8726    4.2960   24.0013 C.ar    1  UNL1        0.0172
      9 C          -4.5507    4.0369   23.3414 C.ar    1  UNL1        0.0597
     10 C          -2.3358    3.5933   20.1540 C.3     1  UNL1        0.1216
     11 N          -0.8642    3.3078   20.0991 N.am    1  UNL1       -0.2715
     12 C          -0.1762    3.1686   18.7734 C.2     1  UNL1        0.2493
     13 O          -0.9597    3.3148   17.5027 O.2     1  UNL1       -0.2699
     14 C          -0.0807    3.1616   21.3698 C.3     1  UNL1        0.1003
     15 C          -0.7687    3.3009   22.6954 C.3     1  UNL1        0.0650
     16 C           1.2954    2.8831   18.7186 C.ar    1  UNL1        0.0536
     17 C           2.2522    3.9560   18.2905 C.ar    1  UNL1        0.0045
     18 C           3.7238    3.6704   18.2357 C.ar    1  UNL1        0.0001
     19 C           4.2385    2.3119   18.6091 C.ar    1  UNL1        0.0000
     20 C           3.2817    1.2388   19.0372 C.ar    1  UNL1        0.0001
     21 C           3.7964   -0.1197   19.4106 C.ar    1  UNL1        0.0000
     22 C           2.8396   -1.1926   19.8387 C.ar    1  UNL1        0.0000
     23 C           1.3680   -0.9070   19.8934 C.ar    1  UNL1        0.0000
     24 C           0.8533    0.4515   19.5201 C.ar    1  UNL1        0.0001
     25 C           1.8101    1.5244   19.0920 C.ar    1  UNL1        0.0044
     26 C          -2.8241    3.7111   25.3558 C.3     1  UNL1        0.1474
     27 O          -4.3835    4.3176   27.3433 O.co2   1  UNL1       -0.5472
     28 C          -3.3766    4.7280   26.3100 C.2     1  UNL1        0.0732
     29 O          -2.9222    6.1554   26.2310 O.co2   1  UNL1       -0.5472
@<TRIPOS>UNITY_ATOM_ATTR
27 1
charge -1
@<TRIPOS>BOND
     1    27    28   ar
     2    28    29   ar
     3    28    26    1
     4    26     1    1
     5     1     2   ar
     6     2     3   ar
     7     3     4   ar
     8     4     5   ar
     9     5     6   ar
    10     6     7   ar
    11     7     8   ar
    12     8     9   ar
    13     3    10    1
    14    10    11    1
    15    11    12   am
    16    12    13    2
    17    12    16    1
    18    16    17   ar
    19    17    18   ar
    20    18    19   ar
    21    19    20   ar
    22    20    21   ar
    23    21    22   ar
    24    22    23   ar
    25    23    24   ar
    26    24    25   ar
    27    11    14    1
    28    14    15    1
    29     9     1   ar
    30    25    16   ar
    31    15     2    1
    32     9     4   ar
    33    25    20   ar
@<TRIPOS>MOLECULE
*****
 29 33 0 0 0
SMALL
GASTEIGER

@<TRIPOS>ATOM
      1 N         -12.3066   -4.8438   18.8313 N.ar    1  UNL1       -0.3256
      2 C         -13.1230   -3.5889   18.7383 C.ar    1  UNL1        0.0367
      3 C         -14.5382   -3.9786   18.4293 C.ar    1  UNL1        0.0108
      4 C         -14.5964   -5.4742   18.3314 C.ar    1  UNL1        0.0145
      5 C         -15.7270   -6.4183   18.0480 C.ar    1  UNL1        0.0012
      6 C         -15.4784   -7.8971   18.0132 C.ar    1  UNL1        0.0001
      7 C         -14.0992   -8.4319   18.2616 C.ar    1  UNL1        0.0015
      8 C         -12.9685   -7.4878   18.5449 C.ar    1  UNL1        0.0172
      9 C         -13.2171   -6.0090   18.5798 C.ar    1  UNL1        0.0597
     10 C         -15.5911   -2.9211   18.2771 C.3     1  UNL1        0.1216
     11 N         -15.2288   -1.4739   18.4338 N.am    1  UNL1       -0.2715
     12 C         -16.2817   -0.4164   18.2816 C.2     1  UNL1        0.2493
     13 O         -17.6968   -0.8061   17.9726 O.2     1  UNL1       -0.2699
     14 C         -13.8136   -1.0843   18.7428 C.3     1  UNL1        0.1003
     15 C         -12.7607   -2.1418   18.8951 C.3     1  UNL1        0.0650
     16 C         -15.9193    1.0307   18.4383 C.ar    1  UNL1        0.0536
     17 C         -15.2258    1.7554   17.3230 C.ar    1  UNL1        0.0045
     18 C         -14.8634    3.2025   17.4799 C.ar    1  UNL1        0.0001
     19 C         -15.1946    3.9249   18.7520 C.ar    1  UNL1        0.0000
     20 C         -15.8881    3.2003   19.8674 C.ar    1  UNL1        0.0001
     21 C         -16.2193    3.9227   21.1396 C.ar    1  UNL1        0.0000
     22 C         -16.9128    3.1980   22.2549 C.ar    1  UNL1        0.0000
     23 C         -17.2751    1.7509   22.0980 C.ar    1  UNL1        0.0000
     24 C         -16.9440    1.0285   20.8258 C.ar    1  UNL1        0.0001
     25 C         -16.2505    1.7531   19.7106 C.ar    1  UNL1        0.0044
     26 C         -10.8375   -4.9201   19.1244 C.3     1  UNL1        0.1474
     27 O          -9.5620   -6.9890   18.2063 O.co2   1  UNL1       -0.5472
     28 C          -9.9034   -5.5307   18.1221 C.2     1  UNL1        0.0732
     29 O          -9.3108   -4.6833   17.0356 O.co2   1  UNL1       -0.5472
@<TRIPOS>UNITY_ATOM_ATTR
27 1
charge -1
@<TRIPOS>BOND
     1    27    28   ar
     2    28    29   ar
     3    28    26    1
     4    26     1    1
     5     1     2   ar
     6     2     3   ar
     7     3     4   ar
     8     4     5   ar
     9     5     6   ar
    10     6     7   ar
    11     7     8   ar
    12     8     9   ar
    13     3    10    1
    14    10    11    1
    15    11    12   am
    16    12    13    2
    17    12    16    1
    18    16    17   ar
    19    17    18   ar
    20    18    19   ar
    21    19    20   ar
    22    20    21   ar
    23    21    22   ar
    24    22    23   ar
    25    23    24   ar
    26    24    25   ar
    27    11    14    1
    28    14    15    1
    29     9     1   ar
    30    25    16   ar
    31    15     2    1
    32     9     4   ar
    33    25    20   ar
@<TRIPOS>MOLECULE
*****
 29 33 0 0 0
SMALL
GASTEIGER

@<TRIPOS>ATOM
      1 N           3.6671   -2.1385   19.4102 N.ar    1  UNL1       -0.3256
      2 C           2.8199   -0.9432   19.7322 C.ar    1  UNL1        0.0367
      3 C           3.6921    0.2752   19.6633 C.ar    1  UNL1        0.0108
      4 C           5.0783   -0.1670   19.2987 C.ar    1  UNL1        0.0145
      5 C           6.3526    0.5959   19.0889 C.ar    1  UNL1        0.0012
      6 C           7.6114   -0.1328   18.7227 C.ar    1  UNL1        0.0001
      7 C           7.5960   -1.6246   18.5663 C.ar    1  UNL1        0.0015
      8 C           6.3217   -2.3875   18.7761 C.ar    1  UNL1        0.0172
      9 C           5.0629   -1.6588   19.1423 C.ar    1  UNL1        0.0597
     10 C           3.1113    1.6299   19.9414 C.3     1  UNL1        0.1216
     11 N           1.6584    1.7662   20.2885 N.am    1  UNL1       -0.2715
     12 C           1.0777    3.1211   20.5666 C.2     1  UNL1        0.2493
     13 O           1.9498    4.3395   20.4977 O.2     1  UNL1       -0.2699
     14 C           0.7862    0.5478   20.3574 C.3     1  UNL1        0.1003
     15 C           1.3670   -0.8069   20.0793 C.3     1  UNL1        0.0650
     16 C          -0.3753    3.2573   20.9137 C.ar    1  UNL1        0.0536
     17 C          -1.3964    3.4009   19.8244 C.ar    1  UNL1        0.0045
     18 C          -2.8493    3.5371   20.1716 C.ar    1  UNL1        0.0001
     19 C          -3.2811    3.5297   21.6081 C.ar    1  UNL1        0.0000
     20 C          -2.2599    3.3861   22.6975 C.ar    1  UNL1        0.0001
     21 C          -2.6917    3.3787   24.1340 C.ar    1  UNL1        0.0000
     22 C          -1.6705    3.2351   25.2233 C.ar    1  UNL1        0.0000
     23 C          -0.2176    3.0989   24.8761 C.ar    1  UNL1        0.0000
     24 C           0.2142    3.1063   23.4396 C.ar    1  UNL1        0.0001
     25 C          -0.8070    3.2499   22.3503 C.ar    1  UNL1        0.0044
     26 C           3.2005   -3.5633   19.3642 C.3     1  UNL1        0.1474
     27 O           3.9772   -6.0276   19.6365 O.co2   1  UNL1       -0.5472
     28 C           3.9296   -4.6169   20.1441 C.2     1  UNL1        0.0732
     29 O           4.6112   -4.2599   21.4318 O.co2   1  UNL1       -0.5472
@<TRIPOS>UNITY_ATOM_ATTR
27 1
charge -1
@<TRIPOS>BOND
     1    27    28   ar
     2    28    29   ar
     3    28    26    1
     4    26     1    1
     5     1     2   ar
     6     2     3   ar
     7     3     4   ar
     8     4     5   ar
     9     5     6   ar
    10     6     7   ar
    11     7     8   ar
    12     8     9   ar
    13     3    10    1
    14    10    11    1
    15    11    12   am
    16    12    13    2
    17    12    16    1
    18    16    17   ar
    19    17    18   ar
    20    18    19   ar
    21    19    20   ar
    22    20    21   ar
    23    21    22   ar
    24    22    23   ar
    25    23    24   ar
    26    24    25   ar
    27    11    14    1
    28    14    15    1
    29     9     1   ar
    30    25    16   ar
    31    15     2    1
    32     9     4   ar
    33    25    20   ar
