@<TRIPOS>MOLECULE
*****
 23 26 0 0 0
SMALL
GASTEIGER

@<TRIPOS>ATOM
      1 N          -9.3279  -17.5462   22.0255 N.pl3   1  UNL1       -0.3066
      2 C         -10.3756  -16.7563   21.2988 C.3     1  UNL1        0.1078
      3 C         -11.0390  -17.3311   20.0824 C.3     1  UNL1        0.0903
      4 N         -10.6547  -18.6958   19.5928 N.3     1  UNL1       -0.2947
      5 C          -9.6070  -19.4858   20.3196 C.3     1  UNL1        0.0885
      6 C          -8.9436  -18.9109   21.5360 C.3     1  UNL1        0.0885
      7 H         -10.3259  -18.5829   18.6339 H       1  UNL1        0.1233
      8 C          -9.3534  -17.0352   24.5727 C.2     1  UNL1        0.0155
      9 C          -8.6900  -16.4603   25.7891 C.2     1  UNL1        0.0184
     10 C          -7.3376  -15.8216   25.6744 C.2     1  UNL1        0.0900
     11 N          -6.4437  -15.1749   26.6907 N.2     1  UNL1       -0.1519
     12 N          -5.2023  -14.7114   25.9878 N.2     1  UNL1       -0.1507
     13 C          -5.3289  -15.0716   24.5372 C.2     1  UNL1        0.1058
     14 C          -6.6487  -15.7577   24.3435 C.3     1  UNL1        0.1083
     15 C          -7.3121  -16.3326   23.1272 C.2     1  UNL1        0.0001
     16 C          -8.6645  -16.9713   23.2419 C.2     1  UNL1        0.0443
     17 C          -7.8958  -19.7009   22.2627 C.3     1  UNL1        0.0213
     18 C          -6.4963  -19.7623   21.7264 C.3     1  UNL1        0.0067
     19 C          -5.4151  -18.9345   22.3555 C.3     1  UNL1        0.0322
     20 C          -4.0156  -18.9959   21.8193 C.3     1  UNL1        0.1422
     21 O          -3.6972  -19.8851   20.6540 O.3     1  UNL1       -0.3538
     22 C          -4.7785  -20.7129   20.0249 C.3     1  UNL1        0.1422
     23 C          -6.1779  -20.6515   20.5611 C.3     1  UNL1        0.0322
@<TRIPOS>BOND
     1     8     9    2
     2     9    10    1
     3    10    11    2
     4    11    12    1
     5    12    13    2
     6    13    14    1
     7    14    15    1
     8    15    16    2
     9    16     1    1
    10     1     2    1
    11     2     3    1
    12     3     4    1
    13     4     5    1
    14     5     6    1
    15     6    17    1
    16    17    18    1
    17    18    19    1
    18    19    20    1
    19    20    21    1
    20    21    22    1
    21    22    23    1
    22    16     8    1
    23     6     1    1
    24    23    18    1
    25    14    10    1
    26     4     7    1
@<TRIPOS>MOLECULE
*****
 23 26 0 0 0
SMALL
GASTEIGER

@<TRIPOS>ATOM
      1 N          -9.7662  -16.8460   21.9194 N.pl3   1  UNL1       -0.3066
      2 C         -10.7882  -15.9077   21.3495 C.3     1  UNL1        0.1078
      3 C         -11.6672  -16.3531   20.2186 C.3     1  UNL1        0.0903
      4 N         -11.5241  -17.7369   19.6576 N.3     1  UNL1       -0.2947
      5 C         -10.5021  -18.6753   20.2276 C.3     1  UNL1        0.0885
      6 C          -9.6231  -18.2297   21.3586 C.3     1  UNL1        0.0885
      7 H         -11.3071  -17.6319   18.6665 H       1  UNL1        0.1233
      8 C          -7.6681  -15.5724   22.7714 C.2     1  UNL1        0.0155
      9 C          -6.7891  -15.1268   23.9024 C.2     1  UNL1        0.0184
     10 C          -7.1293  -15.5095   25.3123 C.2     1  UNL1        0.0900
     11 N          -6.4568  -15.2190   26.6212 N.2     1  UNL1       -0.1519
     12 N          -7.2603  -15.8677   27.7091 N.2     1  UNL1       -0.1507
     13 C          -8.4295  -16.5590   27.0726 C.2     1  UNL1        0.1058
     14 C          -8.3485  -16.3376   25.5912 C.3     1  UNL1        0.1083
     15 C          -9.2274  -16.7831   24.4603 C.2     1  UNL1        0.0001
     16 C          -8.8872  -16.4005   23.0504 C.2     1  UNL1        0.0443
     17 C          -8.6010  -19.1681   21.9285 C.3     1  UNL1        0.0213
     18 C          -7.1619  -19.0459   21.5233 C.3     1  UNL1        0.0067
     19 C          -6.7725  -19.2025   20.0832 C.3     1  UNL1        0.0322
     20 C          -5.3335  -19.0803   19.6779 C.3     1  UNL1        0.1422
     21 O          -4.2839  -18.8015   20.7126 O.3     1  UNL1       -0.3538
     22 C          -4.6734  -18.6448   22.1527 C.3     1  UNL1        0.1422
     23 C          -6.1124  -18.7670   22.5580 C.3     1  UNL1        0.0322
@<TRIPOS>BOND
     1     8     9    2
     2     9    10    1
     3    10    11    2
     4    11    12    1
     5    12    13    2
     6    13    14    1
     7    14    15    1
     8    15    16    2
     9    16     1    1
    10     1     2    1
    11     2     3    1
    12     3     4    1
    13     4     5    1
    14     5     6    1
    15     6    17    1
    16    17    18    1
    17    18    19    1
    18    19    20    1
    19    20    21    1
    20    21    22    1
    21    22    23    1
    22    16     8    1
    23     6     1    1
    24    23    18    1
    25    14    10    1
    26     4     7    1
@<TRIPOS>MOLECULE
*****
 23 26 0 0 0
SMALL
GASTEIGER

@<TRIPOS>ATOM
      1 N          -8.2811  -16.1727   25.3431 N.pl3   1  UNL1       -0.3066
      2 C          -8.5395  -15.8922   26.7938 C.3     1  UNL1        0.1078
      3 C          -7.4759  -15.2506   27.6347 C.3     1  UNL1        0.0903
      4 N          -6.1539  -14.8895   27.0249 N.3     1  UNL1       -0.2947
      5 C          -5.8955  -15.1700   25.5742 C.3     1  UNL1        0.0885
      6 C          -6.9592  -15.8117   24.7333 C.3     1  UNL1        0.0885
      7 H          -5.4393  -15.3899   27.5534 H       1  UNL1        0.1233
      8 C          -9.7681  -18.2268   24.7777 C.2     1  UNL1        0.0155
      9 C         -10.8318  -18.8684   23.9368 C.2     1  UNL1        0.0184
     10 C         -11.4720  -18.0976   22.8206 C.2     1  UNL1        0.0900
     11 N         -12.5385  -18.4632   21.8311 N.2     1  UNL1       -0.1519
     12 N         -12.7741  -17.2766   20.9442 N.2     1  UNL1       -0.1507
     13 C         -11.8534  -16.1778   21.3856 C.2     1  UNL1        0.1058
     14 C         -11.0486  -16.6852   22.5453 C.3     1  UNL1        0.1083
     15 C          -9.9850  -16.0436   23.3861 C.2     1  UNL1        0.0001
     16 C          -9.3448  -16.8144   24.5023 C.2     1  UNL1        0.0443
     17 C          -6.7007  -16.0922   23.2827 C.3     1  UNL1        0.0213
     18 C          -6.0896  -17.3980   22.8685 C.3     1  UNL1        0.0067
     19 C          -4.6320  -17.6547   23.1125 C.3     1  UNL1        0.0322
     20 C          -4.0208  -18.9604   22.6983 C.3     1  UNL1        0.1422
     21 O          -4.8672  -20.0094   22.0401 O.3     1  UNL1       -0.3538
     22 C          -6.3248  -19.7526   21.7961 C.3     1  UNL1        0.1422
     23 C          -6.9359  -18.4470   22.2102 C.3     1  UNL1        0.0322
@<TRIPOS>BOND
     1     8     9    2
     2     9    10    1
     3    10    11    2
     4    11    12    1
     5    12    13    2
     6    13    14    1
     7    14    15    1
     8    15    16    2
     9    16     1    1
    10     1     2    1
    11     2     3    1
    12     3     4    1
    13     4     5    1
    14     5     6    1
    15     6    17    1
    16    17    18    1
    17    18    19    1
    18    19    20    1
    19    20    21    1
    20    21    22    1
    21    22    23    1
    22    16     8    1
    23     6     1    1
    24    23    18    1
    25    14    10    1
    26     4     7    1
@<TRIPOS>MOLECULE
*****
 23 26 0 0 0
SMALL
GASTEIGER

@<TRIPOS>ATOM
      1 N          -5.3563  -16.5707   23.9235 N.pl3   1  UNL1       -0.3066
      2 C          -4.9081  -15.8163   25.1400 C.3     1  UNL1        0.1078
      3 C          -5.9127  -15.0891   25.9838 C.3     1  UNL1        0.0903
      4 N          -7.3654  -15.1162   25.6110 N.3     1  UNL1       -0.2947
      5 C          -7.8135  -15.8706   24.3945 C.3     1  UNL1        0.0885
      6 C          -6.8089  -16.5979   23.5507 C.3     1  UNL1        0.0885
      7 H          -7.6537  -14.1468   25.4791 H       1  UNL1        0.1233
      8 C          -4.4660  -18.7813   22.8887 C.2     1  UNL1        0.0155
      9 C          -3.4613  -19.5086   22.0449 C.2     1  UNL1        0.0184
     10 C          -2.3424  -18.7524   21.3922 C.2     1  UNL1        0.0900
     11 N          -1.2117  -19.1948   20.5115 N.2     1  UNL1       -0.1519
     12 N          -0.3985  -17.9849   20.1582 N.2     1  UNL1       -0.1507
     13 C          -1.0266  -16.7946   20.8206 C.2     1  UNL1        0.1058
     14 C          -2.2280  -17.2690   21.5833 C.3     1  UNL1        0.1083
     15 C          -3.2327  -16.5418   22.4270 C.2     1  UNL1        0.0001
     16 C          -4.3516  -17.2980   23.0797 C.2     1  UNL1        0.0443
     17 C          -7.2570  -17.3523   22.3341 C.3     1  UNL1        0.0213
     18 C          -8.5914  -18.0376   22.3257 C.3     1  UNL1        0.0067
     19 C          -8.7680  -19.3440   23.0413 C.3     1  UNL1        0.0322
     20 C         -10.1023  -20.0293   23.0329 C.3     1  UNL1        0.1422
     21 O         -11.2599  -19.4082   22.3091 O.3     1  UNL1       -0.3538
     22 C         -11.0832  -18.1017   21.5935 C.3     1  UNL1        0.1422
     23 C          -9.7490  -17.4164   21.6019 C.3     1  UNL1        0.0322
@<TRIPOS>BOND
     1     8     9    2
     2     9    10    1
     3    10    11    2
     4    11    12    1
     5    12    13    2
     6    13    14    1
     7    14    15    1
     8    15    16    2
     9    16     1    1
    10     1     2    1
    11     2     3    1
    12     3     4    1
    13     4     5    1
    14     5     6    1
    15     6    17    1
    16    17    18    1
    17    18    19    1
    18    19    20    1
    19    20    21    1
    20    21    22    1
    21    22    23    1
    22    16     8    1
    23     6     1    1
    24    23    18    1
    25    14    10    1
    26     4     7    1
@<TRIPOS>MOLECULE
*****
 23 26 0 0 0
SMALL
GASTEIGER

@<TRIPOS>ATOM
      1 N          -9.0376  -18.2710   22.0698 N.pl3   1  UNL1       -0.3066
      2 C         -10.1736  -19.2393   21.9226 C.3     1  UNL1        0.1078
      3 C         -11.5452  -18.8645   22.4004 C.3     1  UNL1        0.0903
      4 N         -11.7807  -17.5214   23.0254 N.3     1  UNL1       -0.2947
      5 C         -10.6447  -16.5531   23.1726 C.3     1  UNL1        0.0885
      6 C          -9.2730  -16.9280   22.6948 C.3     1  UNL1        0.0885
      7 H         -12.1450  -17.6926   23.9626 H       1  UNL1        0.1233
      8 C          -7.4483  -19.0204   20.1560 C.2     1  UNL1        0.0155
      9 C          -6.0767  -19.3952   19.6782 C.2     1  UNL1        0.0184
     10 C          -4.9228  -19.3955   20.6365 C.2     1  UNL1        0.0900
     11 N          -3.4688  -19.7173   20.4566 N.2     1  UNL1       -0.1519
     12 N          -2.7878  -19.5416   21.7815 N.2     1  UNL1       -0.1507
     13 C          -3.8209  -19.1113   22.7803 C.2     1  UNL1        0.1058
     14 C          -5.1404  -19.0210   22.0726 C.3     1  UNL1        0.1083
     15 C          -6.5120  -18.6462   22.5504 C.2     1  UNL1        0.0001
     16 C          -7.6659  -18.6459   21.5920 C.2     1  UNL1        0.0443
     17 C          -8.1370  -15.9596   22.8420 C.3     1  UNL1        0.0213
     18 C          -7.5246  -15.7211   24.1904 C.3     1  UNL1        0.0067
     19 C          -8.3851  -15.7405   25.4189 C.3     1  UNL1        0.0322
     20 C          -7.7728  -15.5020   26.7673 C.3     1  UNL1        0.1422
     21 O          -6.3000  -15.2441   26.8873 O.3     1  UNL1       -0.3538
     22 C          -5.4396  -15.2247   25.6587 C.3     1  UNL1        0.1422
     23 C          -6.0518  -15.4632   24.3104 C.3     1  UNL1        0.0322
@<TRIPOS>BOND
     1     8     9    2
     2     9    10    1
     3    10    11    2
     4    11    12    1
     5    12    13    2
     6    13    14    1
     7    14    15    1
     8    15    16    2
     9    16     1    1
    10     1     2    1
    11     2     3    1
    12     3     4    1
    13     4     5    1
    14     5     6    1
    15     6    17    1
    16    17    18    1
    17    18    19    1
    18    19    20    1
    19    20    21    1
    20    21    22    1
    21    22    23    1
    22    16     8    1
    23     6     1    1
    24    23    18    1
    25    14    10    1
    26     4     7    1
@<TRIPOS>MOLECULE
*****
 23 26 0 0 0
SMALL
GASTEIGER

@<TRIPOS>ATOM
      1 N          -7.7278  -18.7173   22.2657 N.pl3   1  UNL1       -0.3066
      2 C          -7.1985  -20.0495   21.8236 C.3     1  UNL1        0.1078
      3 C          -5.7203  -20.3038   21.8149 C.3     1  UNL1        0.0903
      4 N          -4.7713  -19.2260   22.2482 N.3     1  UNL1       -0.2947
      5 C          -5.3005  -17.8939   22.6902 C.3     1  UNL1        0.0885
      6 C          -6.7788  -17.6396   22.6989 C.3     1  UNL1        0.0885
      7 H          -4.1478  -19.0485   21.4606 H       1  UNL1        0.1233
      8 C          -9.8917  -17.9822   21.0300 C.2     1  UNL1        0.0155
      9 C         -11.3701  -17.7279   21.0387 C.2     1  UNL1        0.0184
     10 C         -12.1626  -17.9546   22.2919 C.2     1  UNL1        0.0900
     11 N         -13.6214  -17.7908   22.6003 N.2     1  UNL1       -0.1519
     12 N         -13.8373  -18.1706   24.0352 N.2     1  UNL1       -0.1507
     13 C         -12.5119  -18.5690   24.6138 C.2     1  UNL1        0.1058
     14 C         -11.4769  -18.4355   23.5363 C.3     1  UNL1        0.1083
     15 C          -9.9986  -18.6898   23.5275 C.2     1  UNL1        0.0001
     16 C          -9.2061  -18.4631   22.2744 C.2     1  UNL1        0.0443
     17 C          -7.3080  -16.3075   23.1410 C.3     1  UNL1        0.0213
     18 C          -7.1844  -15.8901   24.5764 C.3     1  UNL1        0.0067
     19 C          -8.3937  -15.8889   25.4639 C.3     1  UNL1        0.0322
     20 C          -8.2702  -15.4715   26.8993 C.3     1  UNL1        0.1422
     21 O          -6.9374  -15.0553   27.4473 O.3     1  UNL1       -0.3538
     22 C          -5.7281  -15.0565   26.5598 C.3     1  UNL1        0.1422
     23 C          -5.8516  -15.4739   25.1244 C.3     1  UNL1        0.0322
@<TRIPOS>BOND
     1     8     9    2
     2     9    10    1
     3    10    11    2
     4    11    12    1
     5    12    13    2
     6    13    14    1
     7    14    15    1
     8    15    16    2
     9    16     1    1
    10     1     2    1
    11     2     3    1
    12     3     4    1
    13     4     5    1
    14     5     6    1
    15     6    17    1
    16    17    18    1
    17    18    19    1
    18    19    20    1
    19    20    21    1
    20    21    22    1
    21    22    23    1
    22    16     8    1
    23     6     1    1
    24    23    18    1
    25    14    10    1
    26     4     7    1
@<TRIPOS>MOLECULE
*****
 23 26 0 0 0
SMALL
GASTEIGER

@<TRIPOS>ATOM
      1 N          -7.0161  -18.6132   22.4121 N.pl3   1  UNL1       -0.3066
      2 C          -6.4011  -19.9272   22.0310 C.3     1  UNL1        0.1078
      3 C          -4.9132  -20.1056   22.0954 C.3     1  UNL1        0.0903
      4 N          -4.0402  -18.9700   22.5408 N.3     1  UNL1       -0.2947
      5 C          -4.6551  -17.6560   22.9218 C.3     1  UNL1        0.0885
      6 C          -6.1432  -17.4776   22.8574 C.3     1  UNL1        0.0885
      7 H          -3.3908  -18.7808   21.7773 H       1  UNL1        0.1233
      8 C          -9.3811  -19.0691   23.3861 C.2     1  UNL1        0.0155
      9 C         -10.8692  -18.8907   23.3217 C.2     1  UNL1        0.0184
     10 C         -11.4800  -18.0780   22.2189 C.2     1  UNL1        0.0900
     11 N         -12.9035  -17.7298   21.8989 N.2     1  UNL1       -0.1519
     12 N         -12.9062  -16.8802   20.6627 N.2     1  UNL1       -0.1507
     13 C         -11.4843  -16.7034   20.2186 C.2     1  UNL1        0.1058
     14 C         -10.6029  -17.4436   21.1805 C.3     1  UNL1        0.1083
     15 C          -9.1150  -17.6220   21.2449 C.2     1  UNL1        0.0001
     16 C          -8.5041  -18.4348   22.3477 C.2     1  UNL1        0.0443
     17 C          -6.7581  -16.1636   23.2385 C.3     1  UNL1        0.0213
     18 C          -7.0077  -15.8428   24.6824 C.3     1  UNL1        0.0067
     19 C          -5.8695  -15.4243   25.5652 C.3     1  UNL1        0.0322
     20 C          -6.1189  -15.1035   27.0091 C.3     1  UNL1        0.1422
     21 O          -7.5066  -15.2013   27.5702 O.3     1  UNL1       -0.3538
     22 C          -8.6448  -15.6199   26.6873 C.3     1  UNL1        0.1422
     23 C          -8.3953  -15.9406   25.2435 C.3     1  UNL1        0.0322
@<TRIPOS>BOND
     1     8     9    2
     2     9    10    1
     3    10    11    2
     4    11    12    1
     5    12    13    2
     6    13    14    1
     7    14    15    1
     8    15    16    2
     9    16     1    1
    10     1     2    1
    11     2     3    1
    12     3     4    1
    13     4     5    1
    14     5     6    1
    15     6    17    1
    16    17    18    1
    17    18    19    1
    18    19    20    1
    19    20    21    1
    20    21    22    1
    21    22    23    1
    22    16     8    1
    23     6     1    1
    24    23    18    1
    25    14    10    1
    26     4     7    1
@<TRIPOS>MOLECULE
*****
 23 26 0 0 0
SMALL
GASTEIGER

@<TRIPOS>ATOM
      1 N          -6.9348  -16.9082   23.5133 N.pl3   1  UNL1       -0.3066
      2 C          -6.1163  -15.8717   24.2243 C.3     1  UNL1        0.1078
      3 C          -6.7754  -14.9208   25.1790 C.3     1  UNL1        0.0903
      4 N          -8.2529  -15.0066   25.4227 N.3     1  UNL1       -0.2947
      5 C          -9.0714  -16.0432   24.7118 C.3     1  UNL1        0.0885
      6 C          -8.4123  -16.9940   23.7570 C.3     1  UNL1        0.0885
      7 H          -8.6457  -14.0990   25.1729 H       1  UNL1        0.1233
      8 C          -7.0629  -18.4538   21.4289 C.2     1  UNL1        0.0155
      9 C          -6.4038  -19.4046   20.4741 C.2     1  UNL1        0.0184
     10 C          -4.9572  -19.7607   20.6492 C.2     1  UNL1        0.0900
     11 N          -4.0443  -20.6620   19.8719 N.2     1  UNL1       -0.1519
     12 N          -2.6927  -20.6243   20.5213 N.2     1  UNL1       -0.1507
     13 C          -2.7702  -19.6997   21.6999 C.2     1  UNL1        0.1058
     14 C          -4.1698  -19.1659   21.7789 C.3     1  UNL1        0.1083
     15 C          -4.8290  -18.2151   22.7336 C.2     1  UNL1        0.0001
     16 C          -6.2756  -17.8591   22.5585 C.2     1  UNL1        0.0443
     17 C          -9.2308  -18.0306   23.0460 C.3     1  UNL1        0.0213
     18 C         -10.4327  -17.6197   22.2481 C.3     1  UNL1        0.0067
     19 C         -11.7458  -18.3135   22.4589 C.3     1  UNL1        0.0322
     20 C         -12.9477  -17.9027   21.6610 C.3     1  UNL1        0.1422
     21 O         -12.8366  -16.7981   20.6524 O.3     1  UNL1       -0.3538
     22 C         -11.5234  -16.1043   20.4416 C.3     1  UNL1        0.1422
     23 C         -10.3215  -16.5151   21.2394 C.3     1  UNL1        0.0322
@<TRIPOS>BOND
     1     8     9    2
     2     9    10    1
     3    10    11    2
     4    11    12    1
     5    12    13    2
     6    13    14    1
     7    14    15    1
     8    15    16    2
     9    16     1    1
    10     1     2    1
    11     2     3    1
    12     3     4    1
    13     4     5    1
    14     5     6    1
    15     6    17    1
    16    17    18    1
    17    18    19    1
    18    19    20    1
    19    20    21    1
    20    21    22    1
    21    22    23    1
    22    16     8    1
    23     6     1    1
    24    23    18    1
    25    14    10    1
    26     4     7    1
@<TRIPOS>MOLECULE
*****
 23 26 0 0 0
SMALL
GASTEIGER

@<TRIPOS>ATOM
      1 N          -8.0308  -16.1110   25.0225 N.pl3   1  UNL1       -0.3066
      2 C          -8.6443  -15.9629   26.3833 C.3     1  UNL1        0.1078
      3 C          -7.8364  -15.3949   27.5123 C.3     1  UNL1        0.0903
      4 N          -6.4152  -14.9750   27.2806 N.3     1  UNL1       -0.2947
      5 C          -5.8017  -15.1232   25.9199 C.3     1  UNL1        0.0885
      6 C          -6.6096  -15.6912   24.7908 C.3     1  UNL1        0.0885
      7 H          -5.8392  -15.5179   27.9240 H       1  UNL1        0.1233
      8 C          -9.2398  -15.8036   22.7435 C.2     1  UNL1        0.0155
      9 C         -10.0477  -16.3716   21.6145 C.2     1  UNL1        0.0184
     10 C         -10.4545  -17.8153   21.6355 C.2     1  UNL1        0.0900
     11 N         -11.2454  -18.6493   20.6717 N.2     1  UNL1       -0.1519
     12 N         -11.3331  -20.0403   21.2261 N.2     1  UNL1       -0.1507
     13 C         -10.5964  -20.0660   22.5325 C.2     1  UNL1        0.1058
     14 C         -10.0533  -18.6908   22.7855 C.3     1  UNL1        0.1083
     15 C          -9.2455  -18.1227   23.9145 C.2     1  UNL1        0.0001
     16 C          -8.8387  -16.6791   23.8935 C.2     1  UNL1        0.0443
     17 C          -5.9961  -15.8394   23.4301 C.3     1  UNL1        0.0213
     18 C          -5.1937  -17.0625   23.0981 C.3     1  UNL1        0.0067
     19 C          -5.8721  -18.2724   22.5273 C.3     1  UNL1        0.0322
     20 C          -5.0697  -19.4955   22.1954 C.3     1  UNL1        0.1422
     21 O          -3.5890  -19.5088   22.4343 O.3     1  UNL1       -0.3538
     22 C          -2.9106  -18.2988   23.0052 C.3     1  UNL1        0.1422
     23 C          -3.7129  -17.0757   23.3371 C.3     1  UNL1        0.0322
@<TRIPOS>BOND
     1     8     9    2
     2     9    10    1
     3    10    11    2
     4    11    12    1
     5    12    13    2
     6    13    14    1
     7    14    15    1
     8    15    16    2
     9    16     1    1
    10     1     2    1
    11     2     3    1
    12     3     4    1
    13     4     5    1
    14     5     6    1
    15     6    17    1
    16    17    18    1
    17    18    19    1
    18    19    20    1
    19    20    21    1
    20    21    22    1
    21    22    23    1
    22    16     8    1
    23     6     1    1
    24    23    18    1
    25    14    10    1
    26     4     7    1
