@<TRIPOS>MOLECULE
*****
 29 30 0 0 0
SMALL
GASTEIGER

@<TRIPOS>ATOM
      1 N          -4.0220  -19.5196   20.6559 N.3     1  UNL1       -0.2698
      2 C          -4.5952  -20.8551   20.2842 C.3     1  UNL1        0.0739
      3 C          -6.0795  -20.6973   20.1353 C.3     1  UNL1        0.0383
      4 C          -6.4235  -19.2643   20.4150 C.3     1  UNL1        0.0892
      5 C          -5.1520  -18.5365   20.7367 C.3     1  UNL1        0.0920
      6 N          -7.7980  -18.6645   20.3792 N.am    1  UNL1       -0.3011
      7 C          -8.6781  -18.7332   21.5918 C.2     1  UNL1        0.2459
      8 O          -8.1839  -19.4018   22.8403 O.2     1  UNL1       -0.2701
      9 H          -8.1224  -18.2257   19.5597 H       1  UNL1        0.1497
     10 C         -10.0525  -18.1334   21.5560 C.ar    1  UNL1        0.0550
     11 C         -10.4484  -17.2324   20.4240 C.ar    1  UNL1        0.0160
     12 C         -11.8228  -16.6327   20.3882 C.ar    1  UNL1        0.0587
     13 CL        -12.2187  -15.7316   19.2562 Cl      1  UNL1       -0.0822
     14 C         -12.8013  -16.9339   21.4845 C.ar    1  UNL1        0.0228
     15 C         -12.4055  -17.8349   22.6165 C.ar    1  UNL1        0.0587
     16 CL        -13.3840  -18.1361   23.7127 Cl      1  UNL1       -0.0822
     17 C         -11.0311  -18.4347   22.6522 C.ar    1  UNL1        0.0160
     18 C          -2.5733  -19.2199   20.9033 C.3     1  UNL1        0.0937
     19 C          -2.1778  -18.2982   22.0186 C.3     1  UNL1        0.1082
     20 N          -4.7927  -15.7111   23.5082 N.am    1  UNL1       -0.2921
     21 C          -4.0294  -16.9819   23.2790 C.2     1  UNL1        0.3007
     22 O          -4.3546  -18.2070   24.0809 O.2     1  UNL1       -0.2528
     23 N          -2.9410  -17.0275   22.2478 N.am    1  UNL1       -0.2875
     24 H          -4.5793  -14.9069   22.9819 H       1  UNL1        0.1508
     25 H          -2.7276  -16.2233   21.7215 H       1  UNL1        0.1510
     26 C          -6.8847  -16.0621   23.4975 C.3     1  UNL1        0.0197
     27 C          -5.8811  -15.6655   24.5393 C.3     1  UNL1        0.0583
     28 C          -4.8775  -15.2689   25.5812 C.3     1  UNL1        0.0197
     29 C          -6.9695  -15.6199   25.5705 C.3     1  UNL1        0.0197
@<TRIPOS>BOND
     1    26    27    1
     2    27    28    1
     3    27    29    1
     4    27    20    1
     5    20    21   am
     6    21    22    2
     7    21    23   am
     8    23    19    1
     9    19    18    1
    10    18     1    1
    11     1     2    1
    12     2     3    1
    13     3     4    1
    14     4     6    1
    15     6     7   am
    16     7     8    2
    17     7    10    1
    18    10    11   ar
    19    11    12   ar
    20    12    13    1
    21    12    14   ar
    22    14    15   ar
    23    15    16    1
    24    15    17   ar
    25     4     5    1
    26     5     1    1
    27    17    10   ar
    28    20    24    1
    29    23    25    1
    30     6     9    1
@<TRIPOS>MOLECULE
*****
 29 30 0 0 0
SMALL
GASTEIGER

@<TRIPOS>ATOM
      1 N         -10.6447  -18.8560   20.9854 N.3     1  UNL1       -0.2698
      2 C         -10.5160  -19.7575   19.7934 C.3     1  UNL1        0.0739
      3 C          -9.0952  -19.6952   19.3163 C.3     1  UNL1        0.0383
      4 C          -8.3459  -18.7552   20.2135 C.3     1  UNL1        0.0892
      5 C          -9.3035  -18.2366   21.2450 C.3     1  UNL1        0.0920
      6 N          -6.8938  -18.3968   20.0992 N.am    1  UNL1       -0.3011
      7 C          -5.8523  -19.2785   20.7220 C.2     1  UNL1        0.2459
      8 O          -6.2629  -20.5186   21.4593 O.2     1  UNL1       -0.2701
      9 H          -6.6243  -17.5829   19.6153 H       1  UNL1        0.1497
     10 C          -4.4002  -18.9201   20.6077 C.ar    1  UNL1        0.0550
     11 C          -3.5379  -18.8834   21.8345 C.ar    1  UNL1        0.0160
     12 C          -2.0859  -18.5250   21.7201 C.ar    1  UNL1        0.0587
     13 CL         -1.2235  -18.4882   22.9469 Cl      1  UNL1       -0.0822
     14 C          -1.4962  -18.2033   20.3789 C.ar    1  UNL1        0.0228
     15 C          -2.3585  -18.2400   19.1521 C.ar    1  UNL1        0.0587
     16 CL         -1.7688  -17.9183   17.8110 Cl      1  UNL1       -0.0822
     17 C          -3.8105  -18.5984   19.2665 C.ar    1  UNL1        0.0160
     18 C         -11.8950  -18.6161   21.7785 C.3     1  UNL1        0.0937
     19 C         -11.8051  -18.0809   23.1769 C.3     1  UNL1        0.1082
     20 N          -9.0870  -15.4691   24.4180 N.am    1  UNL1       -0.2921
     21 C          -9.7875  -16.7695   24.1561 C.2     1  UNL1        0.3007
     22 O          -9.1705  -18.0586   24.6115 O.2     1  UNL1       -0.2528
     23 N         -11.1048  -16.7806   23.4388 N.am    1  UNL1       -0.2875
     24 H          -9.4919  -14.6230   24.1191 H       1  UNL1        0.1508
     25 H         -11.5096  -15.9345   23.1399 H       1  UNL1        0.1510
     26 C          -8.4871  -15.4560   26.4527 C.3     1  UNL1        0.0197
     27 C          -7.7698  -15.4580   25.1353 C.3     1  UNL1        0.0583
     28 C          -7.0524  -15.4599   23.8180 C.3     1  UNL1        0.0197
     29 C          -6.4525  -15.4468   25.8527 C.3     1  UNL1        0.0197
@<TRIPOS>BOND
     1    26    27    1
     2    27    28    1
     3    27    29    1
     4    27    20    1
     5    20    21   am
     6    21    22    2
     7    21    23   am
     8    23    19    1
     9    19    18    1
    10    18     1    1
    11     1     2    1
    12     2     3    1
    13     3     4    1
    14     4     6    1
    15     6     7   am
    16     7     8    2
    17     7    10    1
    18    10    11   ar
    19    11    12   ar
    20    12    13    1
    21    12    14   ar
    22    14    15   ar
    23    15    16    1
    24    15    17   ar
    25     4     5    1
    26     5     1    1
    27    17    10   ar
    28    20    24    1
    29    23    25    1
    30     6     9    1
@<TRIPOS>MOLECULE
*****
 29 30 0 0 0
SMALL
GASTEIGER

@<TRIPOS>ATOM
      1 N           8.0595   -8.0096   27.6940 N.3     1  UNL1       -0.2698
      2 C           7.1973   -7.3130   26.6833 C.3     1  UNL1        0.0739
      3 C           6.8785   -5.9452   27.2101 C.3     1  UNL1        0.0383
      4 C           7.5437   -5.7965   28.5463 C.3     1  UNL1        0.0892
      5 C           8.2735   -7.0724   28.8454 C.3     1  UNL1        0.0920
      6 N           7.4886   -4.5846   29.4286 N.am    1  UNL1       -0.3011
      7 C           7.0887   -4.7221   30.8677 C.2     1  UNL1        0.2459
      8 O           6.7438   -6.0715   31.4246 O.2     1  UNL1       -0.2701
      9 H           7.7149   -3.6989   29.0630 H       1  UNL1        0.1497
     10 C           7.0336   -3.5102   31.7499 C.ar    1  UNL1        0.0550
     11 C           5.7111   -2.9967   32.2371 C.ar    1  UNL1        0.0160
     12 C           5.6561   -1.7849   33.1193 C.ar    1  UNL1        0.0587
     13 CL          4.3336   -1.2713   33.6066 Cl      1  UNL1       -0.0822
     14 C           6.9235   -1.0865   33.5144 C.ar    1  UNL1        0.0228
     15 C           8.2459   -1.6001   33.0272 C.ar    1  UNL1        0.0587
     16 CL          9.5133   -0.9018   33.4222 Cl      1  UNL1       -0.0822
     17 C           8.3010   -2.8119   32.1450 C.ar    1  UNL1        0.0160
     18 C           8.6108   -9.3994   27.5743 C.3     1  UNL1        0.0937
     19 C           7.7887  -10.5732   28.0174 C.3     1  UNL1        0.1082
     20 N           4.0716  -11.9163   27.6580 N.am    1  UNL1       -0.2921
     21 C           5.5417  -11.8757   27.9537 C.2     1  UNL1        0.3007
     22 O           6.2345  -13.0969   28.4814 O.2     1  UNL1       -0.2528
     23 N           6.3188  -10.6139   27.7217 N.am    1  UNL1       -0.2875
     24 H           3.6169  -11.1148   27.3116 H       1  UNL1        0.1508
     25 H           5.8640   -9.8123   27.3753 H       1  UNL1        0.1510
     26 C           2.9027  -12.6865   29.2518 C.3     1  UNL1        0.0197
     27 C           3.2945  -13.1782   27.8900 C.3     1  UNL1        0.0583
     28 C           3.6863  -13.6699   26.5281 C.3     1  UNL1        0.0197
     29 C           2.5174  -14.4400   28.1220 C.3     1  UNL1        0.0197
@<TRIPOS>BOND
     1    26    27    1
     2    27    28    1
     3    27    29    1
     4    27    20    1
     5    20    21   am
     6    21    22    2
     7    21    23   am
     8    23    19    1
     9    19    18    1
    10    18     1    1
    11     1     2    1
    12     2     3    1
    13     3     4    1
    14     4     6    1
    15     6     7   am
    16     7     8    2
    17     7    10    1
    18    10    11   ar
    19    11    12   ar
    20    12    13    1
    21    12    14   ar
    22    14    15   ar
    23    15    16    1
    24    15    17   ar
    25     4     5    1
    26     5     1    1
    27    17    10   ar
    28    20    24    1
    29    23    25    1
    30     6     9    1
@<TRIPOS>MOLECULE
*****
 29 30 0 0 0
SMALL
GASTEIGER

@<TRIPOS>ATOM
      1 N           8.5850   -7.0915   26.7494 N.3     1  UNL1       -0.2698
      2 C           8.9286   -5.9425   27.6504 C.3     1  UNL1        0.0739
      3 C           8.0978   -4.7642   27.2363 C.3     1  UNL1        0.0383
      4 C           7.2408   -5.1851   26.0794 C.3     1  UNL1        0.0892
      5 C           7.5419   -6.6234   25.7785 C.3     1  UNL1        0.0920
      6 N           6.2556   -4.3194   25.3512 N.am    1  UNL1       -0.3011
      7 C           6.3196   -4.2039   23.8571 C.2     1  UNL1        0.2459
      8 O           7.3687   -4.9539   23.0910 O.2     1  UNL1       -0.2701
      9 H           5.5670   -3.8272   25.8540 H       1  UNL1        0.1497
     10 C           5.3344   -3.3383   23.1289 C.ar    1  UNL1        0.0550
     11 C           5.0882   -3.5506   21.6646 C.ar    1  UNL1        0.0160
     12 C           4.1030   -2.6850   20.9365 C.ar    1  UNL1        0.0587
     13 CL          3.8568   -2.8973   19.4721 Cl      1  UNL1       -0.0822
     14 C           3.3640   -1.6071   21.6727 C.ar    1  UNL1        0.0228
     15 C           3.6102   -1.3948   23.1370 C.ar    1  UNL1        0.0587
     16 CL          2.8712   -0.3168   23.8732 Cl      1  UNL1       -0.0822
     17 C           4.5954   -2.2603   23.8651 C.ar    1  UNL1        0.0160
     18 C           9.1801   -8.4671   26.8089 C.3     1  UNL1        0.0937
     19 C           8.4873   -9.5513   27.5800 C.3     1  UNL1        0.1082
     20 N           4.8904  -11.2277   27.6195 N.am    1  UNL1       -0.2921
     21 C           6.3764  -11.0579   27.7342 C.2     1  UNL1        0.3007
     22 O           7.2371  -12.2249   28.1177 O.2     1  UNL1       -0.2528
     23 N           7.0014   -9.7211   27.4653 N.am    1  UNL1       -0.2875
     24 H           4.3254  -10.4618   27.3678 H       1  UNL1        0.1508
     25 H           6.4364   -8.9552   27.2136 H       1  UNL1        0.1510
     26 C           4.3843  -12.9126   26.4342 C.3     1  UNL1        0.0197
     27 C           4.2653  -12.5645   27.8883 C.3     1  UNL1        0.0583
     28 C           4.1463  -12.2164   29.3425 C.3     1  UNL1        0.0197
     29 C           3.6403  -13.9013   28.1572 C.3     1  UNL1        0.0197
@<TRIPOS>BOND
     1    26    27    1
     2    27    28    1
     3    27    29    1
     4    27    20    1
     5    20    21   am
     6    21    22    2
     7    21    23   am
     8    23    19    1
     9    19    18    1
    10    18     1    1
    11     1     2    1
    12     2     3    1
    13     3     4    1
    14     4     6    1
    15     6     7   am
    16     7     8    2
    17     7    10    1
    18    10    11   ar
    19    11    12   ar
    20    12    13    1
    21    12    14   ar
    22    14    15   ar
    23    15    16    1
    24    15    17   ar
    25     4     5    1
    26     5     1    1
    27    17    10   ar
    28    20    24    1
    29    23    25    1
    30     6     9    1
@<TRIPOS>MOLECULE
*****
 29 30 0 0 0
SMALL
GASTEIGER

@<TRIPOS>ATOM
      1 N           8.7993   -7.2678   28.9879 N.3     1  UNL1       -0.2698
      2 C           9.4813   -7.2235   30.3232 C.3     1  UNL1        0.0739
      3 C           8.7190   -6.2764   31.2019 C.3     1  UNL1        0.0383
      4 C           7.5659   -5.7355   30.4095 C.3     1  UNL1        0.0892
      5 C           7.6155   -6.3482   29.0413 C.3     1  UNL1        0.0920
      6 N           6.5427   -4.7540   30.8996 N.am    1  UNL1       -0.3011
      7 C           6.9569   -3.3607   31.2696 C.2     1  UNL1        0.2459
      8 O           8.3942   -2.9487   31.1497 O.2     1  UNL1       -0.2701
      9 H           5.5994   -5.0244   30.9783 H       1  UNL1        0.1497
     10 C           5.9337   -2.3793   31.7597 C.ar    1  UNL1        0.0550
     11 C           5.8288   -2.0737   33.2244 C.ar    1  UNL1        0.0160
     12 C           4.8057   -1.0924   33.7144 C.ar    1  UNL1        0.0587
     13 CL          4.7007   -0.7868   35.1792 Cl      1  UNL1       -0.0822
     14 C           3.8875   -0.4165   32.7396 C.ar    1  UNL1        0.0228
     15 C           3.9925   -0.7221   31.2748 C.ar    1  UNL1        0.0587
     16 CL          3.0744   -0.0462   30.3000 Cl      1  UNL1       -0.0822
     17 C           5.0156   -1.7034   30.7849 C.ar    1  UNL1        0.0160
     18 C           9.2261   -8.0878   27.8067 C.3     1  UNL1        0.0937
     19 C           8.6309   -9.4463   27.5822 C.3     1  UNL1        0.1082
     20 N           5.0350  -11.1231   27.6675 N.am    1  UNL1       -0.2921
     21 C           6.5243  -10.9589   27.7373 C.2     1  UNL1        0.3007
     22 O           7.3963  -12.1432   28.0322 O.2     1  UNL1       -0.2528
     23 N           7.1416   -9.6105   27.5124 N.am    1  UNL1       -0.2875
     24 H           4.4626  -10.3458   27.4740 H       1  UNL1        0.1508
     25 H           6.5692   -8.8332   27.3188 H       1  UNL1        0.1510
     26 C           4.3781  -12.2071   29.3684 C.3     1  UNL1        0.0197
     27 C           4.4177  -12.4715   27.8925 C.3     1  UNL1        0.0583
     28 C           4.4573  -12.7359   26.4165 C.3     1  UNL1        0.0197
     29 C           3.8004  -13.8200   28.1174 C.3     1  UNL1        0.0197
@<TRIPOS>BOND
     1    26    27    1
     2    27    28    1
     3    27    29    1
     4    27    20    1
     5    20    21   am
     6    21    22    2
     7    21    23   am
     8    23    19    1
     9    19    18    1
    10    18     1    1
    11     1     2    1
    12     2     3    1
    13     3     4    1
    14     4     6    1
    15     6     7   am
    16     7     8    2
    17     7    10    1
    18    10    11   ar
    19    11    12   ar
    20    12    13    1
    21    12    14   ar
    22    14    15   ar
    23    15    16    1
    24    15    17   ar
    25     4     5    1
    26     5     1    1
    27    17    10   ar
    28    20    24    1
    29    23    25    1
    30     6     9    1
@<TRIPOS>MOLECULE
*****
 29 30 0 0 0
SMALL
GASTEIGER

@<TRIPOS>ATOM
      1 N          -4.5983  -16.4630   24.4032 N.3     1  UNL1       -0.2698
      2 C          -4.9839  -15.4960   25.4832 C.3     1  UNL1        0.0739
      3 C          -6.4296  -15.1429   25.2947 C.3     1  UNL1        0.0383
      4 C          -6.9374  -15.8917   24.0982 C.3     1  UNL1        0.0892
      5 C          -5.8056  -16.7075   23.5473 C.3     1  UNL1        0.0920
      6 N          -8.3321  -15.8346   23.5491 N.am    1  UNL1       -0.3011
      7 C          -9.0621  -17.1036   23.2225 C.2     1  UNL1        0.2459
      8 O          -8.3974  -18.4298   23.4451 O.2     1  UNL1       -0.2701
      9 H          -8.7684  -14.9642   23.4030 H       1  UNL1        0.1497
     10 C         -10.4569  -17.0465   22.6734 C.ar    1  UNL1        0.0550
     11 C         -11.6016  -17.5906   23.4757 C.ar    1  UNL1        0.0160
     12 C         -12.9963  -17.5335   22.9265 C.ar    1  UNL1        0.0587
     13 CL        -14.1411  -18.0775   23.7288 Cl      1  UNL1       -0.0822
     14 C         -13.2462  -16.9323   21.5752 C.ar    1  UNL1        0.0228
     15 C         -12.1015  -16.3883   20.7729 C.ar    1  UNL1        0.0587
     16 CL        -12.3515  -15.7872   19.4216 Cl      1  UNL1       -0.0822
     17 C         -10.7068  -16.4454   21.3221 C.ar    1  UNL1        0.0160
     18 C          -3.2434  -17.0775   24.2127 C.3     1  UNL1        0.0937
     19 C          -2.5410  -16.9506   22.8934 C.3     1  UNL1        0.1082
     20 N          -4.7055  -18.9843   20.2612 N.am    1  UNL1       -0.2921
     21 C          -3.9921  -18.6187   21.5290 C.2     1  UNL1        0.3007
     22 O          -4.0164  -19.5555   22.7001 O.2     1  UNL1       -0.2528
     23 N          -3.2544  -17.3162   21.6257 N.am    1  UNL1       -0.2875
     24 H          -4.6895  -18.3694   19.4925 H       1  UNL1        0.1508
     25 H          -3.2384  -16.7013   20.8570 H       1  UNL1        0.1510
     26 C          -4.1614  -20.9875   19.8243 C.3     1  UNL1        0.0197
     27 C          -5.4432  -20.2867   20.1645 C.3     1  UNL1        0.0583
     28 C          -6.7250  -19.5860   20.5048 C.3     1  UNL1        0.0197
     29 C          -6.1809  -21.5892   20.0679 C.3     1  UNL1        0.0197
@<TRIPOS>BOND
     1    26    27    1
     2    27    28    1
     3    27    29    1
     4    27    20    1
     5    20    21   am
     6    21    22    2
     7    21    23   am
     8    23    19    1
     9    19    18    1
    10    18     1    1
    11     1     2    1
    12     2     3    1
    13     3     4    1
    14     4     6    1
    15     6     7   am
    16     7     8    2
    17     7    10    1
    18    10    11   ar
    19    11    12   ar
    20    12    13    1
    21    12    14   ar
    22    14    15   ar
    23    15    16    1
    24    15    17   ar
    25     4     5    1
    26     5     1    1
    27    17    10   ar
    28    20    24    1
    29    23    25    1
    30     6     9    1
@<TRIPOS>MOLECULE
*****
 29 30 0 0 0
SMALL
GASTEIGER

@<TRIPOS>ATOM
      1 N           8.5310   -7.7189   27.1333 N.3     1  UNL1       -0.2698
      2 C           9.1632   -6.5491   27.8276 C.3     1  UNL1        0.0739
      3 C           8.4172   -5.3119   27.4237 C.3     1  UNL1        0.0383
      4 C           7.3241   -5.7171   26.4799 C.3     1  UNL1        0.0892
      5 C           7.3944   -7.2047   26.3004 C.3     1  UNL1        0.0920
      6 N           6.3344   -4.7963   25.8297 N.am    1  UNL1       -0.3011
      7 C           6.5764   -4.2989   24.4355 C.2     1  UNL1        0.2459
      8 O           7.8082   -4.7221   23.6914 O.2     1  UNL1       -0.2701
      9 H           5.5260   -4.5185   26.3180 H       1  UNL1        0.1497
     10 C           5.5867   -3.3781   23.7853 C.ar    1  UNL1        0.0550
     11 C           4.9802   -2.2534   24.5709 C.ar    1  UNL1        0.0160
     12 C           3.9905   -1.3327   23.9207 C.ar    1  UNL1        0.0587
     13 CL          3.3840   -0.2080   24.7063 Cl      1  UNL1       -0.0822
     14 C           3.6074   -1.5367   22.4848 C.ar    1  UNL1        0.0228
     15 C           4.2139   -2.6613   21.6992 C.ar    1  UNL1        0.0587
     16 CL          3.8308   -2.8652   20.2634 Cl      1  UNL1       -0.0822
     17 C           5.2036   -3.5820   22.3494 C.ar    1  UNL1        0.0160
     18 C           8.9601   -9.1512   27.2512 C.3     1  UNL1        0.0937
     19 C           8.0981  -10.1344   27.9864 C.3     1  UNL1        0.1082
     20 N           4.5010  -11.7431   27.5152 N.am    1  UNL1       -0.2921
     21 C           5.9450  -11.5849   27.8893 C.2     1  UNL1        0.3007
     22 O           6.6795  -12.7190   28.5405 O.2     1  UNL1       -0.2528
     23 N           6.6543  -10.2926   27.6123 N.am    1  UNL1       -0.2875
     24 H           4.0188  -10.9988   27.0878 H       1  UNL1        0.1508
     25 H           6.1721   -9.5482   27.1849 H       1  UNL1        0.1510
     26 C           4.2272  -13.5609   26.4566 C.3     1  UNL1        0.0197
     27 C           3.7917  -13.0354   27.7923 C.3     1  UNL1        0.0583
     28 C           3.3561  -12.5100   29.1280 C.3     1  UNL1        0.0197
     29 C           3.0824  -14.3278   28.0693 C.3     1  UNL1        0.0197
@<TRIPOS>BOND
     1    26    27    1
     2    27    28    1
     3    27    29    1
     4    27    20    1
     5    20    21   am
     6    21    22    2
     7    21    23   am
     8    23    19    1
     9    19    18    1
    10    18     1    1
    11     1     2    1
    12     2     3    1
    13     3     4    1
    14     4     6    1
    15     6     7   am
    16     7     8    2
    17     7    10    1
    18    10    11   ar
    19    11    12   ar
    20    12    13    1
    21    12    14   ar
    22    14    15   ar
    23    15    16    1
    24    15    17   ar
    25     4     5    1
    26     5     1    1
    27    17    10   ar
    28    20    24    1
    29    23    25    1
    30     6     9    1
@<TRIPOS>MOLECULE
*****
 29 30 0 0 0
SMALL
GASTEIGER

@<TRIPOS>ATOM
      1 N          -4.6334  -16.4833   24.4058 N.3     1  UNL1       -0.2698
      2 C          -5.0127  -15.5196   25.4909 C.3     1  UNL1        0.0739
      3 C          -6.4605  -15.1689   25.3141 C.3     1  UNL1        0.0383
      4 C          -6.9758  -15.9158   24.1198 C.3     1  UNL1        0.0892
      5 C          -5.8467  -16.7282   23.5584 C.3     1  UNL1        0.0920
      6 N          -8.3748  -15.8602   23.5814 N.am    1  UNL1       -0.3011
      7 C          -9.0941  -17.1286   23.2298 C.2     1  UNL1        0.2459
      8 O          -8.4145  -18.4527   23.4166 O.2     1  UNL1       -0.2701
      9 H          -8.8208  -14.9911   23.4588 H       1  UNL1        0.1497
     10 C         -10.4931  -17.0729   22.6914 C.ar    1  UNL1        0.0550
     11 C         -10.7547  -16.4677   21.3441 C.ar    1  UNL1        0.0160
     12 C         -12.1536  -16.4120   20.8057 C.ar    1  UNL1        0.0587
     13 CL        -12.4152  -15.8068   19.4584 Cl      1  UNL1       -0.0822
     14 C         -13.2909  -16.9616   21.6147 C.ar    1  UNL1        0.0228
     15 C         -13.0294  -17.5669   22.9620 C.ar    1  UNL1        0.0587
     16 CL        -14.1667  -18.1164   23.7709 Cl      1  UNL1       -0.0822
     17 C         -11.6304  -17.6225   23.5003 C.ar    1  UNL1        0.0160
     18 C          -3.2788  -17.0947   24.2035 C.3     1  UNL1        0.0937
     19 C          -2.5801  -16.9504   22.8841 C.3     1  UNL1        0.1082
     20 N          -4.7338  -18.9987   20.2543 N.am    1  UNL1       -0.2921
     21 C          -4.0253  -18.6262   21.5229 C.2     1  UNL1        0.3007
     22 O          -4.0538  -19.5569   22.6988 O.2     1  UNL1       -0.2528
     23 N          -3.2885  -17.3229   21.6155 N.am    1  UNL1       -0.2875
     24 H          -4.7151  -18.3878   19.4824 H       1  UNL1        0.1508
     25 H          -3.2698  -16.7121   20.8437 H       1  UNL1        0.1510
     26 C          -4.1863  -21.0048   19.8354 C.3     1  UNL1        0.0197
     27 C          -5.4706  -20.3019   20.1616 C.3     1  UNL1        0.0583
     28 C          -6.7549  -19.5990   20.4879 C.3     1  UNL1        0.0197
     29 C          -6.2075  -21.6051   20.0690 C.3     1  UNL1        0.0197
@<TRIPOS>BOND
     1    26    27    1
     2    27    28    1
     3    27    29    1
     4    27    20    1
     5    20    21   am
     6    21    22    2
     7    21    23   am
     8    23    19    1
     9    19    18    1
    10    18     1    1
    11     1     2    1
    12     2     3    1
    13     3     4    1
    14     4     6    1
    15     6     7   am
    16     7     8    2
    17     7    10    1
    18    10    11   ar
    19    11    12   ar
    20    12    13    1
    21    12    14   ar
    22    14    15   ar
    23    15    16    1
    24    15    17   ar
    25     4     5    1
    26     5     1    1
    27    17    10   ar
    28    20    24    1
    29    23    25    1
    30     6     9    1
@<TRIPOS>MOLECULE
*****
 29 30 0 0 0
SMALL
GASTEIGER

@<TRIPOS>ATOM
      1 N          -9.4078  -18.9346   22.1051 N.3     1  UNL1       -0.2698
      2 C          -8.6731  -20.0324   22.8158 C.3     1  UNL1        0.0739
      3 C          -7.2534  -20.0293   22.3312 C.3     1  UNL1        0.0383
      4 C          -7.1108  -18.9296   21.3212 C.3     1  UNL1        0.0892
      5 C          -8.4423  -18.2530   21.1814 C.3     1  UNL1        0.0920
      6 N          -5.8569  -18.5696   20.5808 N.am    1  UNL1       -0.3011
      7 C          -4.5170  -18.8667   21.1862 C.2     1  UNL1        0.2459
      8 O          -4.4311  -19.5238   22.5319 O.2     1  UNL1       -0.2701
      9 H          -5.9133  -18.1383   19.6976 H       1  UNL1        0.1497
     10 C          -3.2630  -18.5068   20.4459 C.ar    1  UNL1        0.0550
     11 C          -3.3279  -18.1478   18.9909 C.ar    1  UNL1        0.0160
     12 C          -2.0739  -17.7879   18.2507 C.ar    1  UNL1        0.0587
     13 CL         -2.1387  -17.4289   16.7956 Cl      1  UNL1       -0.0822
     14 C          -0.7551  -17.7869   18.9653 C.ar    1  UNL1        0.0228
     15 C          -0.6903  -18.1459   20.4203 C.ar    1  UNL1        0.0587
     16 CL          0.6285  -18.1449   21.1350 Cl      1  UNL1       -0.0822
     17 C          -1.9442  -18.5058   21.1605 C.ar    1  UNL1        0.0160
     18 C         -10.8540  -18.5805   22.2863 C.3     1  UNL1        0.0937
     19 C         -11.2443  -17.4772   23.2246 C.3     1  UNL1        0.1082
     20 N          -8.3066  -15.3075   24.7776 N.am    1  UNL1       -0.2921
     21 C          -9.2470  -16.4496   24.5302 C.2     1  UNL1        0.3007
     22 O          -9.1305  -17.7061   25.3411 O.2     1  UNL1       -0.2528
     23 N         -10.3039  -16.3352   23.4720 N.am    1  UNL1       -0.2875
     24 H          -8.3830  -14.4828   24.2454 H       1  UNL1        0.1508
     25 H         -10.3804  -15.5105   22.9398 H       1  UNL1        0.1510
     26 C          -8.2947  -15.2498   26.8981 C.3     1  UNL1        0.0197
     27 C          -7.2497  -15.4220   25.8358 C.3     1  UNL1        0.0583
     28 C          -6.2048  -15.5941   24.7736 C.3     1  UNL1        0.0197
     29 C          -6.1928  -15.5364   26.8940 C.3     1  UNL1        0.0197
@<TRIPOS>BOND
     1    26    27    1
     2    27    28    1
     3    27    29    1
     4    27    20    1
     5    20    21   am
     6    21    22    2
     7    21    23   am
     8    23    19    1
     9    19    18    1
    10    18     1    1
    11     1     2    1
    12     2     3    1
    13     3     4    1
    14     4     6    1
    15     6     7   am
    16     7     8    2
    17     7    10    1
    18    10    11   ar
    19    11    12   ar
    20    12    13    1
    21    12    14   ar
    22    14    15   ar
    23    15    16    1
    24    15    17   ar
    25     4     5    1
    26     5     1    1
    27    17    10   ar
    28    20    24    1
    29    23    25    1
    30     6     9    1
