@<TRIPOS>MOLECULE
*****
 41 45 0 0 0
SMALL
GASTEIGER

@<TRIPOS>ATOM
      1 C           2.4421    2.4207   20.8809 C.ar    1  UNL1        0.0383
      2 C           3.6582    1.7350   20.3323 C.ar    1  UNL1        0.0433
      3 N           4.0956    0.7009   21.3270 N.ar    1  UNL1       -0.3260
      4 C           3.1498    0.7475   22.4903 C.ar    1  UNL1        0.0606
      5 C           3.0871   -0.0406   23.7650 C.ar    1  UNL1        0.0203
      6 C           2.0024    0.2343   24.7641 C.ar    1  UNL1        0.0384
      7 C           0.9806    1.2972   24.4884 C.ar    1  UNL1        0.1392
      8 C           1.0433    2.0852   23.2136 C.ar    1  UNL1        0.0389
      9 C           2.1279    1.8104   22.2146 C.ar    1  UNL1        0.0256
     10 S           1.6749    3.5231   20.2130 S.3     1  UNL1       -0.1142
     11 C           0.0485    2.2309   19.7827 C.3     1  UNL1        0.0112
     12 C           0.8456    3.2304   18.9979 C.3     1  UNL1        0.0434
     13 C           1.6426    4.2298   18.2131 C.3     1  UNL1        0.0112
     14 C           0.0163    2.9376   17.7827 C.3     1  UNL1        0.0112
     15 C           4.3206    2.0313   19.0195 C.3     1  UNL1        0.0495
     16 C           4.6569    0.9118   18.0795 C.3     1  UNL1        0.0376
     17 C           6.1166    1.2204   18.2341 C.3     1  UNL1        0.0059
     18 C           3.1971    0.6032   17.9248 C.3     1  UNL1        0.0059
     19 C           4.9931   -0.2077   17.1395 C.2     1  UNL1        0.0500
     20 O           6.4226   -0.6172   16.9418 O.co2   1  UNL1       -0.5492
     21 O           3.9000   -0.9177   16.3972 O.co2   1  UNL1       -0.5492
     22 C           5.2721   -0.2184   21.1835 C.3     1  UNL1        0.1324
     23 C           5.0993   -1.5631   20.5418 C.ar    1  UNL1        0.0004
     24 C           3.7271   -2.0541   20.1868 C.ar    1  UNL1       -0.0015
     25 C           3.5545   -3.3988   19.5450 C.ar    1  UNL1        0.0111
     26 C           4.7540   -4.2526   19.2583 C.ar    1  UNL1        0.0577
     27 CL          4.5812   -5.5973   18.6165 Cl      1  UNL1       -0.0822
     28 C           6.1262   -3.7616   19.6132 C.ar    1  UNL1        0.0111
     29 C           6.2989   -2.4169   20.2550 C.ar    1  UNL1       -0.0015
     30 O          -0.1040    1.5719   25.4874 O.3     1  UNL1       -0.4690
     31 C          -0.5870    2.9756   25.7031 C.3     1  UNL1        0.2508
     32 C          -2.0224    3.3235   25.4410 C.ar    1  UNL1        0.1026
     33 C          -2.9177    3.7194   26.5775 C.ar    1  UNL1        0.0184
     34 C          -4.3531    4.0673   26.3155 C.ar    1  UNL1        0.0028
     35 C          -4.8932    4.0192   24.9169 C.ar    1  UNL1        0.0177
     36 C          -6.3285    4.3670   24.6548 C.ar    1  UNL1        0.0015
     37 C          -6.8686    4.3189   23.2563 C.ar    1  UNL1        0.0001
     38 C          -5.9733    3.9229   22.1198 C.ar    1  UNL1        0.0015
     39 C          -4.5379    3.5751   22.3818 C.ar    1  UNL1        0.0191
     40 C          -3.9979    3.6232   23.7804 C.ar    1  UNL1        0.0810
     41 N          -2.5625    3.2753   24.0425 N.ar    1  UNL1       -0.2460
@<TRIPOS>UNITY_ATOM_ATTR
20 1
charge -1
@<TRIPOS>BOND
     1    11    12    1
     2    12    13    1
     3    12    14    1
     4    12    10    1
     5    10     1    1
     6     1     2   ar
     7     2    15    1
     8    15    16    1
     9    16    17    1
    10    16    18    1
    11    16    19    1
    12    19    20   ar
    13    19    21   ar
    14     2     3   ar
    15     3    22    1
    16    22    23    1
    17    23    24   ar
    18    24    25   ar
    19    25    26   ar
    20    26    27    1
    21    26    28   ar
    22    28    29   ar
    23     3     4   ar
    24     4     5   ar
    25     5     6   ar
    26     6     7   ar
    27     7    30    1
    28    30    31    1
    29    31    32    1
    30    32    33   ar
    31    33    34   ar
    32    34    35   ar
    33    35    36   ar
    34    36    37   ar
    35    37    38   ar
    36    38    39   ar
    37    39    40   ar
    38    40    41   ar
    39     7     8   ar
    40     8     9   ar
    41     9     1   ar
    42    29    23   ar
    43     9     4   ar
    44    41    32   ar
    45    40    35   ar
@<TRIPOS>MOLECULE
*****
 41 45 0 0 0
SMALL
GASTEIGER

@<TRIPOS>ATOM
      1 C           5.1230   -2.7141   23.2406 C.ar    1  UNL1        0.0383
      2 C           4.5359   -2.7042   21.8603 C.ar    1  UNL1        0.0433
      3 N           3.4313   -1.6898   21.8337 N.ar    1  UNL1       -0.3260
      4 C           3.3357   -1.0728   23.1976 C.ar    1  UNL1        0.0606
      5 C           2.4316   -0.0163   23.7601 C.ar    1  UNL1        0.0203
      6 C           2.5731    0.4072   25.1922 C.ar    1  UNL1        0.0384
      7 C           3.6187   -0.2259   26.0616 C.ar    1  UNL1        0.1392
      8 C           4.5227   -1.2824   25.4991 C.ar    1  UNL1        0.0389
      9 C           4.3812   -1.7059   24.0671 C.ar    1  UNL1        0.0256
     10 S           6.2535   -3.5802   23.7117 S.3     1  UNL1       -0.1142
     11 C           7.6888   -4.8041   22.7412 C.3     1  UNL1        0.0112
     12 C           7.6365   -3.3680   23.1712 C.3     1  UNL1        0.0434
     13 C           7.5842   -1.9319   23.6013 C.3     1  UNL1        0.0112
     14 C           9.0196   -3.1557   22.6308 C.3     1  UNL1        0.0112
     15 C           4.9762   -3.5587   20.7088 C.3     1  UNL1        0.0495
     16 C           5.2790   -2.9299   19.3810 C.3     1  UNL1        0.0376
     17 C           6.3841   -2.1341   20.0099 C.3     1  UNL1        0.0059
     18 C           4.1740   -3.7258   18.7521 C.3     1  UNL1        0.0059
     19 C           5.5818   -2.3011   18.0533 C.2     1  UNL1        0.0500
     20 O           6.9817   -2.3232   17.5148 O.co2   1  UNL1       -0.5492
     21 O           4.4848   -1.6503   17.2640 O.co2   1  UNL1       -0.5492
     22 C           2.5729   -1.3518   20.6510 C.3     1  UNL1        0.1324
     23 C           2.7360   -0.0310   19.9589 C.ar    1  UNL1        0.0004
     24 C           4.0619    0.6702   19.9839 C.ar    1  UNL1       -0.0015
     25 C           4.2249    1.9910   19.2918 C.ar    1  UNL1        0.0111
     26 C           3.0622    2.6105   18.5748 C.ar    1  UNL1        0.0577
     27 CL          3.2253    3.9313   17.8828 Cl      1  UNL1       -0.0822
     28 C           1.7364    1.9094   18.5498 C.ar    1  UNL1        0.0111
     29 C           1.5732    0.5886   19.2419 C.ar    1  UNL1       -0.0015
     30 O           3.7602    0.1976   27.4936 O.3     1  UNL1       -0.4690
     31 C           5.1154    0.2305   28.1356 C.3     1  UNL1        0.2508
     32 C           5.5144   -0.8463   29.1008 C.ar    1  UNL1        0.1026
     33 C           5.5324   -0.5639   30.5739 C.ar    1  UNL1        0.0184
     34 C           5.9314   -1.6405   31.5391 C.ar    1  UNL1        0.0028
     35 C           6.3123   -2.9996   31.0313 C.ar    1  UNL1        0.0177
     36 C           6.7112   -4.0762   31.9965 C.ar    1  UNL1        0.0015
     37 C           7.0921   -5.4352   31.4886 C.ar    1  UNL1        0.0001
     38 C           7.0741   -5.7176   30.0155 C.ar    1  UNL1        0.0015
     39 C           6.6752   -4.6410   29.0503 C.ar    1  UNL1        0.0191
     40 C           6.2943   -3.2820   29.5582 C.ar    1  UNL1        0.0810
     41 N           5.8953   -2.2053   28.5930 N.ar    1  UNL1       -0.2460
@<TRIPOS>UNITY_ATOM_ATTR
20 1
charge -1
@<TRIPOS>BOND
     1    11    12    1
     2    12    13    1
     3    12    14    1
     4    12    10    1
     5    10     1    1
     6     1     2   ar
     7     2    15    1
     8    15    16    1
     9    16    17    1
    10    16    18    1
    11    16    19    1
    12    19    20   ar
    13    19    21   ar
    14     2     3   ar
    15     3    22    1
    16    22    23    1
    17    23    24   ar
    18    24    25   ar
    19    25    26   ar
    20    26    27    1
    21    26    28   ar
    22    28    29   ar
    23     3     4   ar
    24     4     5   ar
    25     5     6   ar
    26     6     7   ar
    27     7    30    1
    28    30    31    1
    29    31    32    1
    30    32    33   ar
    31    33    34   ar
    32    34    35   ar
    33    35    36   ar
    34    36    37   ar
    35    37    38   ar
    36    38    39   ar
    37    39    40   ar
    38    40    41   ar
    39     7     8   ar
    40     8     9   ar
    41     9     1   ar
    42    29    23   ar
    43     9     4   ar
    44    41    32   ar
    45    40    35   ar
@<TRIPOS>MOLECULE
*****
 41 45 0 0 0
SMALL
GASTEIGER

@<TRIPOS>ATOM
      1 C           4.8459   -2.4841   23.2147 C.ar    1  UNL1        0.0383
      2 C           4.3474   -2.5478   21.8013 C.ar    1  UNL1        0.0433
      3 N           3.2331   -1.5541   21.6576 N.ar    1  UNL1       -0.3260
      4 C           3.0428   -0.8762   22.9821 C.ar    1  UNL1        0.0606
      5 C           2.0907    0.1902   23.4362 C.ar    1  UNL1        0.0203
      6 C           2.1354    0.6818   24.8527 C.ar    1  UNL1        0.0384
      7 C           3.1322    0.1071   25.8150 C.ar    1  UNL1        0.1392
      8 C           4.0843   -0.9593   25.3608 C.ar    1  UNL1        0.0389
      9 C           4.0397   -1.4510   23.9444 C.ar    1  UNL1        0.0256
     10 S           5.9558   -3.3087   23.7961 S.3     1  UNL1       -0.1142
     11 C           7.4310   -4.5761   22.9489 C.3     1  UNL1        0.0112
     12 C           7.3627   -3.1219   23.3104 C.3     1  UNL1        0.0434
     13 C           7.2944   -1.6677   23.6720 C.3     1  UNL1        0.0112
     14 C           8.7696   -2.9350   22.8248 C.3     1  UNL1        0.0112
     15 C           4.8714   -3.4474   20.7213 C.3     1  UNL1        0.0495
     16 C           5.2228   -2.8804   19.3778 C.3     1  UNL1        0.0376
     17 C           4.2168   -3.7865   18.7322 C.3     1  UNL1        0.0059
     18 C           6.2289   -1.9742   20.0234 C.3     1  UNL1        0.0059
     19 C           5.5742   -2.3133   18.0343 C.2     1  UNL1        0.0500
     20 O           4.5086   -1.6933   17.1799 O.co2   1  UNL1       -0.5492
     21 O           6.9912   -2.3664   17.5452 O.co2   1  UNL1       -0.5492
     22 C           2.4469   -1.2854   20.4087 C.3     1  UNL1        0.1324
     23 C           2.5039    0.0673   19.7631 C.ar    1  UNL1        0.0004
     24 C           1.2558    0.6859   19.2066 C.ar    1  UNL1       -0.0015
     25 C           1.3128    2.0387   18.5610 C.ar    1  UNL1        0.0111
     26 C           2.6178    2.7728   18.4720 C.ar    1  UNL1        0.0577
     27 CL          2.6747    4.1256   17.8264 Cl      1  UNL1       -0.0822
     28 C           3.8658    2.1543   19.0285 C.ar    1  UNL1        0.0111
     29 C           3.8089    0.8015   19.6741 C.ar    1  UNL1       -0.0015
     30 O           3.1768    0.5987   27.2314 O.3     1  UNL1       -0.4690
     31 C           2.3056   -0.0370   28.2738 C.3     1  UNL1        0.2508
     32 C           2.1680    0.5984   29.6256 C.ar    1  UNL1        0.1026
     33 C           1.0793    1.5994   29.8765 C.ar    1  UNL1        0.0184
     34 C           0.9417    2.2349   31.2282 C.ar    1  UNL1        0.0028
     35 C           1.8928    1.8694   32.3291 C.ar    1  UNL1        0.0177
     36 C           1.7552    2.5049   33.6808 C.ar    1  UNL1        0.0015
     37 C           2.7062    2.1394   34.7817 C.ar    1  UNL1        0.0001
     38 C           3.7949    1.1384   34.5308 C.ar    1  UNL1        0.0015
     39 C           3.9325    0.5030   33.1791 C.ar    1  UNL1        0.0191
     40 C           2.9814    0.8684   32.0782 C.ar    1  UNL1        0.0810
     41 N           3.1190    0.2330   30.7264 N.ar    1  UNL1       -0.2460
@<TRIPOS>UNITY_ATOM_ATTR
20 1
charge -1
@<TRIPOS>BOND
     1    11    12    1
     2    12    13    1
     3    12    14    1
     4    12    10    1
     5    10     1    1
     6     1     2   ar
     7     2    15    1
     8    15    16    1
     9    16    17    1
    10    16    18    1
    11    16    19    1
    12    19    20   ar
    13    19    21   ar
    14     2     3   ar
    15     3    22    1
    16    22    23    1
    17    23    24   ar
    18    24    25   ar
    19    25    26   ar
    20    26    27    1
    21    26    28   ar
    22    28    29   ar
    23     3     4   ar
    24     4     5   ar
    25     5     6   ar
    26     6     7   ar
    27     7    30    1
    28    30    31    1
    29    31    32    1
    30    32    33   ar
    31    33    34   ar
    32    34    35   ar
    33    35    36   ar
    34    36    37   ar
    35    37    38   ar
    36    38    39   ar
    37    39    40   ar
    38    40    41   ar
    39     7     8   ar
    40     8     9   ar
    41     9     1   ar
    42    29    23   ar
    43     9     4   ar
    44    41    32   ar
    45    40    35   ar
@<TRIPOS>MOLECULE
*****
 41 45 0 0 0
SMALL
GASTEIGER

@<TRIPOS>ATOM
      1 C           4.4898   -2.1589   23.1460 C.ar    1  UNL1        0.0383
      2 C           4.1121   -2.2750   21.6989 C.ar    1  UNL1        0.0433
      3 N           3.0170   -1.2873   21.4250 N.ar    1  UNL1       -0.3260
      4 C           2.7179   -0.5606   22.7027 C.ar    1  UNL1        0.0606
      5 C           1.7343    0.5220   23.0351 C.ar    1  UNL1        0.0203
      6 C           1.6610    1.0659   24.4312 C.ar    1  UNL1        0.0384
      7 C           2.5713    0.5272   25.4947 C.ar    1  UNL1        0.1392
      8 C           3.5549   -0.5554   25.1623 C.ar    1  UNL1        0.0389
      9 C           3.6282   -1.0993   23.7664 C.ar    1  UNL1        0.0256
     10 S           5.5441   -2.9614   23.8491 S.3     1  UNL1       -0.1142
     11 C           6.9941   -4.3220   23.1101 C.3     1  UNL1        0.0112
     12 C           6.9778   -2.8547   23.4211 C.3     1  UNL1        0.0434
     13 C           6.9615   -1.3874   23.7321 C.3     1  UNL1        0.0112
     14 C           8.4116   -2.7480   22.9932 C.3     1  UNL1        0.0112
     15 C           4.7223   -3.2142   20.7010 C.3     1  UNL1        0.0495
     16 C           5.1292   -2.7101   19.3481 C.3     1  UNL1        0.0376
     17 C           4.2228   -3.7150   18.7011 C.3     1  UNL1        0.0059
     18 C           6.0356   -1.7052   19.9951 C.3     1  UNL1        0.0059
     19 C           5.5361   -2.2060   17.9952 C.2     1  UNL1        0.0500
     20 O           4.5221   -1.5565   17.1008 O.co2   1  UNL1       -0.5492
     21 O           6.9568   -2.3515   17.5368 O.co2   1  UNL1       -0.5492
     22 C           2.3398   -1.0651   20.1052 C.3     1  UNL1        0.1324
     23 C           2.2768    0.3134   19.5172 C.ar    1  UNL1        0.0004
     24 C           0.9549    0.8980   19.1161 C.ar    1  UNL1       -0.0015
     25 C           0.8919    2.2765   18.5281 C.ar    1  UNL1        0.0111
     26 C           2.1508    3.0704   18.3412 C.ar    1  UNL1        0.0577
     27 CL          2.0878    4.4489   17.7532 Cl      1  UNL1       -0.0822
     28 C           3.4727    2.4858   18.7423 C.ar    1  UNL1        0.0111
     29 C           3.5357    1.1073   19.3303 C.ar    1  UNL1       -0.0015
     30 O           2.4980    1.0712   26.8907 O.3     1  UNL1       -0.4690
     31 C           3.7588    1.3688   27.6468 C.3     1  UNL1        0.2508
     32 C           4.2329    0.4279   28.7146 C.ar    1  UNL1        0.1026
     33 C           5.2280   -0.6440   28.3818 C.ar    1  UNL1        0.0184
     34 C           5.7020   -1.5849   29.4495 C.ar    1  UNL1        0.0028
     35 C           5.1810   -1.4539   30.8500 C.ar    1  UNL1        0.0177
     36 C           5.6550   -2.3948   31.9177 C.ar    1  UNL1        0.0015
     37 C           5.1340   -2.2638   33.3181 C.ar    1  UNL1        0.0001
     38 C           4.1388   -1.1919   33.6509 C.ar    1  UNL1        0.0015
     39 C           3.6648   -0.2510   32.5832 C.ar    1  UNL1        0.0191
     40 C           4.1858   -0.3820   31.1828 C.ar    1  UNL1        0.0810
     41 N           3.7118    0.5589   30.1150 N.ar    1  UNL1       -0.2460
@<TRIPOS>UNITY_ATOM_ATTR
20 1
charge -1
@<TRIPOS>BOND
     1    11    12    1
     2    12    13    1
     3    12    14    1
     4    12    10    1
     5    10     1    1
     6     1     2   ar
     7     2    15    1
     8    15    16    1
     9    16    17    1
    10    16    18    1
    11    16    19    1
    12    19    20   ar
    13    19    21   ar
    14     2     3   ar
    15     3    22    1
    16    22    23    1
    17    23    24   ar
    18    24    25   ar
    19    25    26   ar
    20    26    27    1
    21    26    28   ar
    22    28    29   ar
    23     3     4   ar
    24     4     5   ar
    25     5     6   ar
    26     6     7   ar
    27     7    30    1
    28    30    31    1
    29    31    32    1
    30    32    33   ar
    31    33    34   ar
    32    34    35   ar
    33    35    36   ar
    34    36    37   ar
    35    37    38   ar
    36    38    39   ar
    37    39    40   ar
    38    40    41   ar
    39     7     8   ar
    40     8     9   ar
    41     9     1   ar
    42    29    23   ar
    43     9     4   ar
    44    41    32   ar
    45    40    35   ar
@<TRIPOS>MOLECULE
*****
 41 45 0 0 0
SMALL
GASTEIGER

@<TRIPOS>ATOM
      1 C          -2.5400    4.4372   22.2307 C.ar    1  UNL1        0.0383
      2 C          -2.2571    4.9480   23.6124 C.ar    1  UNL1        0.0433
      3 N          -1.0143    4.2722   24.1110 N.ar    1  UNL1       -0.3260
      4 C          -0.5291    3.3437   23.0375 C.ar    1  UNL1        0.0606
      5 C           0.6496    2.4186   22.9680 C.ar    1  UNL1        0.0203
      6 C           0.8853    1.5954   21.7364 C.ar    1  UNL1        0.0384
      7 C          -0.0576    1.6973   20.5743 C.ar    1  UNL1        0.1392
      8 C          -1.2363    2.6225   20.6438 C.ar    1  UNL1        0.0389
      9 C          -1.4720    3.4457   21.8753 C.ar    1  UNL1        0.0256
     10 S          -3.6891    4.8461   21.3576 S.3     1  UNL1       -0.1142
     11 C          -5.4072    6.0258   21.7535 C.3     1  UNL1        0.0112
     12 C          -5.0971    4.5586   21.7875 C.3     1  UNL1        0.0434
     13 C          -4.7871    3.0913   21.8215 C.3     1  UNL1        0.0112
     14 C          -6.5052    4.2709   22.2174 C.3     1  UNL1        0.0112
     15 C          -3.0738    5.9575   24.3635 C.3     1  UNL1        0.0495
     16 C          -3.5217    5.6665   25.7652 C.3     1  UNL1        0.0376
     17 C          -2.8756    6.9360   26.2352 C.3     1  UNL1        0.0059
     18 C          -4.1678    4.3970   25.2952 C.3     1  UNL1        0.0059
     19 C          -3.9696    5.3756   27.1669 C.2     1  UNL1        0.0500
     20 O          -4.8121    4.1670   27.4494 O.co2   1  UNL1       -0.5492
     21 O          -3.5751    6.2931   28.2860 O.co2   1  UNL1       -0.5492
     22 C          -0.3699    4.4871   25.4483 C.3     1  UNL1        0.1324
     23 C          -0.1292    3.3213   26.3609 C.ar    1  UNL1        0.0004
     24 C           1.2712    2.9487   26.7483 C.ar    1  UNL1       -0.0015
     25 C           1.5119    1.7828   27.6609 C.ar    1  UNL1        0.0111
     26 C           0.3521    0.9895   28.1861 C.ar    1  UNL1        0.0577
     27 CL          0.5929   -0.1763   29.0986 Cl      1  UNL1       -0.0822
     28 C          -1.0482    1.3621   27.7986 C.ar    1  UNL1        0.0111
     29 C          -1.2890    2.5280   26.8860 C.ar    1  UNL1       -0.0015
     30 O           0.1781    0.8742   19.3427 O.3     1  UNL1       -0.4690
     31 C           1.4490    1.0380   18.5630 C.3     1  UNL1        0.2508
     32 C           2.5138   -0.0162   18.6342 C.ar    1  UNL1        0.1026
     33 C           3.3574   -0.3126   17.4298 C.ar    1  UNL1        0.0184
     34 C           4.4221   -1.3668   17.5009 C.ar    1  UNL1        0.0028
     35 C           4.6432   -2.1246   18.7765 C.ar    1  UNL1        0.0177
     36 C           5.7079   -3.1787   18.8476 C.ar    1  UNL1        0.0015
     37 C           5.9290   -3.9365   20.1230 C.ar    1  UNL1        0.0001
     38 C           5.0854   -3.6401   21.3274 C.ar    1  UNL1        0.0015
     39 C           4.0207   -2.5860   21.2563 C.ar    1  UNL1        0.0191
     40 C           3.7996   -1.8282   19.9808 C.ar    1  UNL1        0.0810
     41 N           2.7349   -0.7740   19.9097 N.ar    1  UNL1       -0.2460
@<TRIPOS>UNITY_ATOM_ATTR
20 1
charge -1
@<TRIPOS>BOND
     1    11    12    1
     2    12    13    1
     3    12    14    1
     4    12    10    1
     5    10     1    1
     6     1     2   ar
     7     2    15    1
     8    15    16    1
     9    16    17    1
    10    16    18    1
    11    16    19    1
    12    19    20   ar
    13    19    21   ar
    14     2     3   ar
    15     3    22    1
    16    22    23    1
    17    23    24   ar
    18    24    25   ar
    19    25    26   ar
    20    26    27    1
    21    26    28   ar
    22    28    29   ar
    23     3     4   ar
    24     4     5   ar
    25     5     6   ar
    26     6     7   ar
    27     7    30    1
    28    30    31    1
    29    31    32    1
    30    32    33   ar
    31    33    34   ar
    32    34    35   ar
    33    35    36   ar
    34    36    37   ar
    35    37    38   ar
    36    38    39   ar
    37    39    40   ar
    38    40    41   ar
    39     7     8   ar
    40     8     9   ar
    41     9     1   ar
    42    29    23   ar
    43     9     4   ar
    44    41    32   ar
    45    40    35   ar
@<TRIPOS>MOLECULE
*****
 41 45 0 0 0
SMALL
GASTEIGER

@<TRIPOS>ATOM
      1 C           3.1413   -0.5386   24.1848 C.ar    1  UNL1        0.0383
      2 C           3.3826   -1.2947   22.9119 C.ar    1  UNL1        0.0433
      3 N           2.5129   -0.6971   21.8459 N.ar    1  UNL1       -0.3260
      4 C           1.7341    0.4283   22.4598 C.ar    1  UNL1        0.0606
      5 C           0.7214    1.3765   21.8894 C.ar    1  UNL1        0.0203
      6 C           0.0971    2.4227   22.7646 C.ar    1  UNL1        0.0384
      7 C           0.4855    2.5206   24.2100 C.ar    1  UNL1        0.1392
      8 C           1.4982    1.5724   24.7805 C.ar    1  UNL1        0.0389
      9 C           2.1225    0.5263   23.9054 C.ar    1  UNL1        0.0256
     10 S           3.8028   -0.8012   25.5052 S.3     1  UNL1       -0.1142
     11 C           5.4912   -1.9897   25.9917 C.3     1  UNL1        0.0112
     12 C           5.2703   -0.5405   25.6740 C.3     1  UNL1        0.0434
     13 C           5.0493    0.9088   25.3562 C.3     1  UNL1        0.0112
     14 C           6.7378   -0.2796   25.8427 C.3     1  UNL1        0.0112
     15 C           4.3277   -2.4462   22.7361 C.3     1  UNL1        0.0495
     16 C           5.3987   -2.3840   21.6876 C.3     1  UNL1        0.0376
     17 C           5.8722   -1.0760   22.2489 C.3     1  UNL1        0.0059
     18 C           4.9252   -3.6920   21.1264 C.3     1  UNL1        0.0059
     19 C           6.4697   -2.3218   20.6392 C.2     1  UNL1        0.0500
     20 O           6.9869   -0.9931   20.1733 O.co2   1  UNL1       -0.5492
     21 O           7.0234   -3.5883   20.0567 O.co2   1  UNL1       -0.5492
     22 C           2.4355   -1.1461   20.4168 C.3     1  UNL1        0.1324
     23 C           3.3996   -0.5999   19.4058 C.ar    1  UNL1        0.0004
     24 C           3.8277   -1.4464   18.2438 C.ar    1  UNL1       -0.0015
     25 C           4.7918   -0.9000   17.2328 C.ar    1  UNL1        0.0111
     26 C           5.3277    0.4927   17.3838 C.ar    1  UNL1        0.0577
     27 CL          6.2918    1.0390   16.3728 Cl      1  UNL1       -0.0822
     28 C           4.8997    1.3393   18.5458 C.ar    1  UNL1        0.0111
     29 C           3.9356    0.7930   19.5568 C.ar    1  UNL1       -0.0015
     30 O          -0.1387    3.5668   25.0851 O.3     1  UNL1       -0.4690
     31 C          -1.2805    3.2054   25.9882 C.3     1  UNL1        0.2508
     32 C          -2.6833    3.5786   25.6098 C.ar    1  UNL1        0.1026
     33 C          -3.6231    4.1145   26.6488 C.ar    1  UNL1        0.0184
     34 C          -5.0257    4.4876   26.2704 C.ar    1  UNL1        0.0028
     35 C          -5.4887    4.3249   24.8529 C.ar    1  UNL1        0.0177
     36 C          -6.8913    4.6981   24.4745 C.ar    1  UNL1        0.0015
     37 C          -7.3542    4.5354   23.0571 C.ar    1  UNL1        0.0001
     38 C          -6.4145    3.9995   22.0180 C.ar    1  UNL1        0.0015
     39 C          -5.0118    3.6263   22.3964 C.ar    1  UNL1        0.0191
     40 C          -4.5489    3.7890   23.8139 C.ar    1  UNL1        0.0810
     41 N          -3.1462    3.4159   24.1923 N.ar    1  UNL1       -0.2460
@<TRIPOS>UNITY_ATOM_ATTR
20 1
charge -1
@<TRIPOS>BOND
     1    11    12    1
     2    12    13    1
     3    12    14    1
     4    12    10    1
     5    10     1    1
     6     1     2   ar
     7     2    15    1
     8    15    16    1
     9    16    17    1
    10    16    18    1
    11    16    19    1
    12    19    20   ar
    13    19    21   ar
    14     2     3   ar
    15     3    22    1
    16    22    23    1
    17    23    24   ar
    18    24    25   ar
    19    25    26   ar
    20    26    27    1
    21    26    28   ar
    22    28    29   ar
    23     3     4   ar
    24     4     5   ar
    25     5     6   ar
    26     6     7   ar
    27     7    30    1
    28    30    31    1
    29    31    32    1
    30    32    33   ar
    31    33    34   ar
    32    34    35   ar
    33    35    36   ar
    34    36    37   ar
    35    37    38   ar
    36    38    39   ar
    37    39    40   ar
    38    40    41   ar
    39     7     8   ar
    40     8     9   ar
    41     9     1   ar
    42    29    23   ar
    43     9     4   ar
    44    41    32   ar
    45    40    35   ar
@<TRIPOS>MOLECULE
*****
 41 45 0 0 0
SMALL
GASTEIGER

@<TRIPOS>ATOM
      1 C           6.0859   -1.6445   26.5738 C.ar    1  UNL1        0.0383
      2 C           6.3459   -1.3969   25.1174 C.ar    1  UNL1        0.0433
      3 N           6.9698   -2.6333   24.5412 N.ar    1  UNL1       -0.3260
      4 C           7.0953   -3.6451   25.6415 C.ar    1  UNL1        0.0606
      5 C           7.6365   -5.0439   25.6618 C.ar    1  UNL1        0.0203
      6 C           7.6314   -5.8316   26.9384 C.ar    1  UNL1        0.0384
      7 C           7.0852   -5.2204   28.1945 C.ar    1  UNL1        0.1392
      8 C           6.5440   -3.8216   28.1742 C.ar    1  UNL1        0.0389
      9 C           6.5490   -3.0339   26.8977 C.ar    1  UNL1        0.0256
     10 S           5.4707   -0.6732   27.5372 S.3     1  UNL1       -0.1142
     11 C           7.2825    0.3706   27.8948 C.3     1  UNL1        0.0112
     12 C           6.2271   -0.2501   28.7614 C.3     1  UNL1        0.0434
     13 C           5.1718   -0.8707   29.6280 C.3     1  UNL1        0.0112
     14 C           6.9835    0.1730   29.9857 C.3     1  UNL1        0.0112
     15 C           6.0363   -0.1345   24.3687 C.3     1  UNL1        0.0495
     16 C           5.0601   -0.1580   23.2301 C.3     1  UNL1        0.0376
     17 C           6.1052    0.4192   22.3220 C.3     1  UNL1        0.0059
     18 C           4.0150   -0.7352   24.1381 C.3     1  UNL1        0.0059
     19 C           4.0839   -0.1815   22.0915 C.2     1  UNL1        0.0500
     20 O           4.3543    0.6234   20.8549 O.co2   1  UNL1       -0.5492
     21 O           2.8372   -1.0099   22.1894 O.co2   1  UNL1       -0.5492
     22 C           7.3937   -2.8245   23.1151 C.3     1  UNL1        0.1324
     23 C           6.3842   -3.2230   22.0796 C.ar    1  UNL1        0.0004
     24 C           6.6907   -3.0374   20.6230 C.ar    1  UNL1       -0.0015
     25 C           5.6812   -3.4359   19.5876 C.ar    1  UNL1        0.0111
     26 C           4.3653   -4.0199   20.0087 C.ar    1  UNL1        0.0577
     27 CL          3.3559   -4.4184   18.9732 Cl      1  UNL1       -0.0822
     28 C           4.0589   -4.2055   21.4653 C.ar    1  UNL1        0.0111
     29 C           5.0683   -3.8070   22.5008 C.ar    1  UNL1       -0.0015
     30 O           7.0801   -6.0081   29.4710 O.3     1  UNL1       -0.4690
     31 C           7.9906   -5.6172   30.5972 C.3     1  UNL1        0.2508
     32 C           7.7155   -4.3714   31.3862 C.ar    1  UNL1        0.1026
     33 C           8.8362   -3.4316   31.7190 C.ar    1  UNL1        0.0184
     34 C           8.5611   -2.1859   32.5079 C.ar    1  UNL1        0.0028
     35 C           7.1652   -1.8800   32.9642 C.ar    1  UNL1        0.0177
     36 C           6.8902   -0.6342   33.7531 C.ar    1  UNL1        0.0015
     37 C           5.4944   -0.3283   34.2093 C.ar    1  UNL1        0.0001
     38 C           4.3737   -1.2681   33.8765 C.ar    1  UNL1        0.0015
     39 C           4.6487   -2.5139   33.0875 C.ar    1  UNL1        0.0191
     40 C           6.0445   -2.8198   32.6314 C.ar    1  UNL1        0.0810
     41 N           6.3197   -4.0655   31.8424 N.ar    1  UNL1       -0.2460
@<TRIPOS>UNITY_ATOM_ATTR
20 1
charge -1
@<TRIPOS>BOND
     1    11    12    1
     2    12    13    1
     3    12    14    1
     4    12    10    1
     5    10     1    1
     6     1     2   ar
     7     2    15    1
     8    15    16    1
     9    16    17    1
    10    16    18    1
    11    16    19    1
    12    19    20   ar
    13    19    21   ar
    14     2     3   ar
    15     3    22    1
    16    22    23    1
    17    23    24   ar
    18    24    25   ar
    19    25    26   ar
    20    26    27    1
    21    26    28   ar
    22    28    29   ar
    23     3     4   ar
    24     4     5   ar
    25     5     6   ar
    26     6     7   ar
    27     7    30    1
    28    30    31    1
    29    31    32    1
    30    32    33   ar
    31    33    34   ar
    32    34    35   ar
    33    35    36   ar
    34    36    37   ar
    35    37    38   ar
    36    38    39   ar
    37    39    40   ar
    38    40    41   ar
    39     7     8   ar
    40     8     9   ar
    41     9     1   ar
    42    29    23   ar
    43     9     4   ar
    44    41    32   ar
    45    40    35   ar
@<TRIPOS>MOLECULE
*****
 41 45 0 0 0
SMALL
GASTEIGER

@<TRIPOS>ATOM
      1 C           7.4942   -3.7048   26.2945 C.ar    1  UNL1        0.0383
      2 C           7.3588   -2.6095   27.3104 C.ar    1  UNL1        0.0433
      3 N           6.3079   -1.6552   26.8259 N.ar    1  UNL1       -0.3260
      4 C           5.7938   -2.1605   25.5105 C.ar    1  UNL1        0.0606
      5 C           4.7527   -1.6309   24.5694 C.ar    1  UNL1        0.0203
      6 C           4.4448   -2.3681   23.2998 C.ar    1  UNL1        0.0384
      7 C           5.1780   -3.6348   22.9714 C.ar    1  UNL1        0.1392
      8 C           6.2190   -4.1644   23.9125 C.ar    1  UNL1        0.0389
      9 C           6.5269   -3.4273   25.1821 C.ar    1  UNL1        0.0256
     10 S           8.4321   -4.8725   26.3765 S.3     1  UNL1       -0.1142
     11 C           8.8890   -6.4203   24.9998 C.3     1  UNL1        0.0112
     12 C           7.9221   -6.2624   26.1357 C.3     1  UNL1        0.0434
     13 C           6.9553   -6.1045   27.2716 C.3     1  UNL1        0.0112
     14 C           7.4121   -7.6524   25.8949 C.3     1  UNL1        0.0112
     15 C           8.1377   -2.4897   28.5868 C.3     1  UNL1        0.0495
     16 C           7.9572   -3.5075   29.6738 C.3     1  UNL1        0.0376
     17 C           9.4372   -3.7511   29.6914 C.3     1  UNL1        0.0059
     18 C           6.4773   -3.2639   29.6563 C.3     1  UNL1        0.0059
     19 C           7.7768   -4.5253   30.7608 C.2     1  UNL1        0.0500
     20 O           7.0696   -4.1504   32.0294 O.co2   1  UNL1       -0.5492
     21 O           8.3037   -5.9179   30.5792 O.co2   1  UNL1       -0.5492
     22 C           5.8513   -0.4134   27.5327 C.3     1  UNL1        0.1324
     23 C           4.4126   -0.2623   27.9295 C.ar    1  UNL1        0.0004
     24 C           3.4404    0.3895   26.9915 C.ar    1  UNL1       -0.0015
     25 C           2.0017    0.5406   27.3884 C.ar    1  UNL1        0.0111
     26 C           1.5354    0.0399   28.7232 C.ar    1  UNL1        0.0577
     27 CL          0.0968    0.1910   29.1201 Cl      1  UNL1       -0.0822
     28 C           2.5077   -0.6120   29.6612 C.ar    1  UNL1        0.0111
     29 C           3.9463   -0.7631   29.2644 C.ar    1  UNL1       -0.0015
     30 O           4.8701   -4.3719   21.7018 O.3     1  UNL1       -0.4690
     31 C           5.3128   -3.8113   20.3828 C.3     1  UNL1        0.2508
     32 C           4.6638   -2.5735   19.8382 C.ar    1  UNL1        0.1026
     33 C           5.4125   -1.6927   18.8822 C.ar    1  UNL1        0.0184
     34 C           4.7635   -0.4549   18.3376 C.ar    1  UNL1        0.0028
     35 C           3.3658   -0.0979   18.7488 C.ar    1  UNL1        0.0177
     36 C           2.7169    1.1399   18.2041 C.ar    1  UNL1        0.0015
     37 C           1.3193    1.4970   18.6154 C.ar    1  UNL1        0.0001
     38 C           0.5706    0.6162   19.5713 C.ar    1  UNL1        0.0015
     39 C           1.2196   -0.6216   20.1160 C.ar    1  UNL1        0.0191
     40 C           2.6172   -0.9786   19.7047 C.ar    1  UNL1        0.0810
     41 N           3.2662   -2.2165   20.2494 N.ar    1  UNL1       -0.2460
@<TRIPOS>UNITY_ATOM_ATTR
20 1
charge -1
@<TRIPOS>BOND
     1    11    12    1
     2    12    13    1
     3    12    14    1
     4    12    10    1
     5    10     1    1
     6     1     2   ar
     7     2    15    1
     8    15    16    1
     9    16    17    1
    10    16    18    1
    11    16    19    1
    12    19    20   ar
    13    19    21   ar
    14     2     3   ar
    15     3    22    1
    16    22    23    1
    17    23    24   ar
    18    24    25   ar
    19    25    26   ar
    20    26    27    1
    21    26    28   ar
    22    28    29   ar
    23     3     4   ar
    24     4     5   ar
    25     5     6   ar
    26     6     7   ar
    27     7    30    1
    28    30    31    1
    29    31    32    1
    30    32    33   ar
    31    33    34   ar
    32    34    35   ar
    33    35    36   ar
    34    36    37   ar
    35    37    38   ar
    36    38    39   ar
    37    39    40   ar
    38    40    41   ar
    39     7     8   ar
    40     8     9   ar
    41     9     1   ar
    42    29    23   ar
    43     9     4   ar
    44    41    32   ar
    45    40    35   ar
@<TRIPOS>MOLECULE
*****
 41 45 0 0 0
SMALL
GASTEIGER

@<TRIPOS>ATOM
      1 C           6.3835   -3.0029   27.8337 C.ar    1  UNL1        0.0383
      2 C           7.1922   -3.3040   26.6067 C.ar    1  UNL1        0.0433
      3 N           6.7087   -2.4115   25.5024 N.ar    1  UNL1       -0.3260
      4 C           5.6012   -1.5588   26.0467 C.ar    1  UNL1        0.0606
      5 C           4.7497   -0.4968   25.4166 C.ar    1  UNL1        0.0203
      6 C           3.6973    0.1997   26.2273 C.ar    1  UNL1        0.0384
      7 C           3.4963   -0.1658   27.6681 C.ar    1  UNL1        0.1392
      8 C           4.3477   -1.2278   28.2983 C.ar    1  UNL1        0.0389
      9 C           5.4002   -1.9243   27.4876 C.ar    1  UNL1        0.0256
     10 S           6.5320   -3.6643   29.1718 S.3     1  UNL1       -0.1142
     11 C           7.9656   -5.0607   29.8752 C.3     1  UNL1        0.0112
     12 C           7.8306   -3.5674   29.9163 C.3     1  UNL1        0.0434
     13 C           7.6955   -2.0740   29.9575 C.3     1  UNL1        0.0112
     14 C           9.1291   -3.4703   30.6609 C.3     1  UNL1        0.0112
     15 C           8.2915   -4.3193   26.5025 C.3     1  UNL1        0.0495
     16 C           8.1674   -5.4629   25.5398 C.3     1  UNL1        0.0376
     17 C           9.4725   -5.0747   24.9105 C.3     1  UNL1        0.0059
     18 C           6.8622   -5.8510   26.1690 C.3     1  UNL1        0.0059
     19 C           8.0433   -6.6064   24.5770 C.2     1  UNL1        0.0500
     20 O           8.0567   -6.3477   23.0995 O.co2   1  UNL1       -0.5492
     21 O           7.9057   -8.0086   25.0916 O.co2   1  UNL1       -0.5492
     22 C           7.2395   -2.3776   24.0999 C.3     1  UNL1        0.1324
     23 C           6.3155   -2.6146   22.9423 C.ar    1  UNL1        0.0004
     24 C           5.3072   -3.7235   23.0024 C.ar    1  UNL1       -0.0015
     25 C           4.3831   -3.9605   21.8447 C.ar    1  UNL1        0.0111
     26 C           4.4675   -3.0886   20.6271 C.ar    1  UNL1        0.0577
     27 CL          3.5435   -3.3257   19.4695 Cl      1  UNL1       -0.0822
     28 C           5.4758   -1.9797   20.5670 C.ar    1  UNL1        0.0111
     29 C           6.3999   -1.7427   21.7246 C.ar    1  UNL1       -0.0015
     30 O           2.4438    0.5307   28.4788 O.3     1  UNL1       -0.4690
     31 C           1.8785   -0.1305   29.7008 C.3     1  UNL1        0.2508
     32 C           2.3538    0.2796   31.0632 C.ar    1  UNL1        0.1026
     33 C           1.9327    1.5993   31.6386 C.ar    1  UNL1        0.0184
     34 C           2.4079    2.0094   33.0009 C.ar    1  UNL1        0.0028
     35 C           3.3042    1.0997   33.7879 C.ar    1  UNL1        0.0177
     36 C           3.7794    1.5098   35.1502 C.ar    1  UNL1        0.0015
     37 C           4.6757    0.6002   35.9371 C.ar    1  UNL1        0.0001
     38 C           5.0967   -0.7195   35.3617 C.ar    1  UNL1        0.0015
     39 C           4.6215   -1.1296   33.9994 C.ar    1  UNL1        0.0191
     40 C           3.7253   -0.2200   33.2125 C.ar    1  UNL1        0.0810
     41 N           3.2500   -0.6300   31.8501 N.ar    1  UNL1       -0.2460
@<TRIPOS>UNITY_ATOM_ATTR
20 1
charge -1
@<TRIPOS>BOND
     1    11    12    1
     2    12    13    1
     3    12    14    1
     4    12    10    1
     5    10     1    1
     6     1     2   ar
     7     2    15    1
     8    15    16    1
     9    16    17    1
    10    16    18    1
    11    16    19    1
    12    19    20   ar
    13    19    21   ar
    14     2     3   ar
    15     3    22    1
    16    22    23    1
    17    23    24   ar
    18    24    25   ar
    19    25    26   ar
    20    26    27    1
    21    26    28   ar
    22    28    29   ar
    23     3     4   ar
    24     4     5   ar
    25     5     6   ar
    26     6     7   ar
    27     7    30    1
    28    30    31    1
    29    31    32    1
    30    32    33   ar
    31    33    34   ar
    32    34    35   ar
    33    35    36   ar
    34    36    37   ar
    35    37    38   ar
    36    38    39   ar
    37    39    40   ar
    38    40    41   ar
    39     7     8   ar
    40     8     9   ar
    41     9     1   ar
    42    29    23   ar
    43     9     4   ar
    44    41    32   ar
    45    40    35   ar
