@<TRIPOS>MOLECULE
*****
 16 17 0 0 0
SMALL
GASTEIGER

@<TRIPOS>ATOM
      1 C          -8.8320  -19.2709   22.7468 C.3     1  UNL1        0.0331
      2 C         -10.0442  -18.4282   22.4814 C.ar    1  UNL1        0.0036
      3 C         -11.2727  -19.0482   21.8846 C.ar    1  UNL1        0.1359
      4 F         -11.2891  -20.5111   21.5531 F       1  UNL1       -0.2045
      5 C         -12.4849  -18.2055   21.6192 C.ar    1  UNL1        0.0293
      6 C         -12.4686  -16.7427   21.9507 C.ar    1  UNL1        0.0020
      7 C         -11.2401  -16.1227   22.5475 C.ar    1  UNL1       -0.0025
      8 C         -10.0279  -16.9654   22.8128 C.ar    1  UNL1        0.0018
      9 C          -8.7993  -16.3452   23.4097 C.3     1  UNL1        0.1732
     10 C          -8.6130  -15.9671   24.8492 C.3     1  UNL1        0.2371
     11 O          -7.2400  -15.3826   25.0010 O.2     1  UNL1       -0.4477
     12 C          -6.5777  -15.3994   23.6552 C.2     1  UNL1        0.2770
     13 N          -5.1945  -14.9076   23.3470 N.pl3   1  UNL1       -0.3133
     14 N          -7.5414  -15.9943   22.6717 N.2     1  UNL1       -0.2182
     15 H          -4.6347  -14.5313   24.0641 H       1  UNL1        0.1466
     16 H          -4.8465  -14.9611   22.4276 H       1  UNL1        0.1466
@<TRIPOS>BOND
     1     1     2    1
     2     2     3   ar
     3     3     4    1
     4     3     5   ar
     5     5     6   ar
     6     6     7   ar
     7     7     8   ar
     8     9     8    1
     9     9    10    1
    10    10    11    1
    11    11    12    1
    12    12    13    1
    13    12    14    2
    14     8     2   ar
    15    14     9    1
    16    13    15    1
    17    13    16    1
@<TRIPOS>MOLECULE
*****
 16 17 0 0 0
SMALL
GASTEIGER

@<TRIPOS>ATOM
      1 C          -4.5735  -17.5613   23.3574 C.3     1  UNL1        0.0331
      2 C          -4.3988  -18.5602   22.2522 C.ar    1  UNL1        0.0036
      3 C          -3.0269  -19.0488   21.8928 C.ar    1  UNL1        0.1359
      4 F          -1.8297  -18.5385   22.6387 F       1  UNL1       -0.2045
      5 C          -2.8521  -20.0478   20.7875 C.ar    1  UNL1        0.0293
      6 C          -4.0492  -20.5581   20.0416 C.ar    1  UNL1        0.0020
      7 C          -5.4211  -20.0695   20.4010 C.ar    1  UNL1       -0.0025
      8 C          -5.5959  -19.0706   21.5062 C.ar    1  UNL1        0.0018
      9 C          -6.9679  -18.5820   21.8656 C.3     1  UNL1        0.1732
     10 C          -8.0263  -19.3710   22.5776 C.3     1  UNL1        0.2371
     11 O          -9.2348  -18.4953   22.7280 O.2     1  UNL1       -0.4477
     12 C          -8.9232  -17.1649   22.1089 C.2     1  UNL1        0.2770
     13 N          -9.8499  -15.9878   22.0358 N.pl3   1  UNL1       -0.3133
     14 N          -7.5222  -17.2186   21.5759 N.2     1  UNL1       -0.2182
     15 H         -10.7557  -16.0499   22.4165 H       1  UNL1        0.1466
     16 H          -9.5524  -15.1530   21.6070 H       1  UNL1        0.1466
@<TRIPOS>BOND
     1     1     2    1
     2     2     3   ar
     3     3     4    1
     4     3     5   ar
     5     5     6   ar
     6     6     7   ar
     7     7     8   ar
     8     9     8    1
     9     9    10    1
    10    10    11    1
    11    11    12    1
    12    12    13    1
    13    12    14    2
    14     8     2   ar
    15    14     9    1
    16    13    15    1
    17    13    16    1
@<TRIPOS>MOLECULE
*****
 16 17 0 0 0
SMALL
GASTEIGER

@<TRIPOS>ATOM
      1 C         -10.0431  -19.9344   23.3895 C.3     1  UNL1        0.0331
      2 C         -10.9031  -18.8468   22.8173 C.ar    1  UNL1        0.0036
      3 C         -12.1111  -18.3720   23.5692 C.ar    1  UNL1        0.1359
      4 F         -12.4591  -18.9849   24.8934 F       1  UNL1       -0.2045
      5 C         -12.9711  -17.2844   22.9970 C.ar    1  UNL1        0.0293
      6 C         -12.6231  -16.6715   21.6729 C.ar    1  UNL1        0.0020
      7 C         -11.4152  -17.1463   20.9210 C.ar    1  UNL1       -0.0025
      8 C         -10.5551  -18.2339   21.4932 C.ar    1  UNL1        0.0018
      9 C          -9.3471  -18.7087   20.7413 C.3     1  UNL1        0.1732
     10 C          -9.3377  -19.7285   19.6414 C.3     1  UNL1        0.2371
     11 O          -7.9212  -19.8970   19.1776 O.2     1  UNL1       -0.4477
     12 C          -7.0551  -18.9813   19.9909 C.2     1  UNL1        0.2770
     13 N          -5.5688  -18.8272   19.8606 N.pl3   1  UNL1       -0.3133
     14 N          -7.9364  -18.2469   20.9573 N.2     1  UNL1       -0.2182
     15 H          -5.0757  -19.3562   19.1926 H       1  UNL1        0.1466
     16 H          -5.0863  -18.1969   20.4430 H       1  UNL1        0.1466
@<TRIPOS>BOND
     1     1     2    1
     2     2     3   ar
     3     3     4    1
     4     3     5   ar
     5     5     6   ar
     6     6     7   ar
     7     7     8   ar
     8     9     8    1
     9     9    10    1
    10    10    11    1
    11    11    12    1
    12    12    13    1
    13    12    14    2
    14     8     2   ar
    15    14     9    1
    16    13    15    1
    17    13    16    1
@<TRIPOS>MOLECULE
*****
 16 17 0 0 0
SMALL
GASTEIGER

@<TRIPOS>ATOM
      1 C         -10.0747  -18.7412   25.0408 C.3     1  UNL1        0.0331
      2 C         -10.8677  -18.3194   23.8395 C.ar    1  UNL1        0.0036
      3 C         -12.3646  -18.2583   23.9126 C.ar    1  UNL1        0.1359
      4 F         -13.0686  -18.6190   25.1871 F       1  UNL1       -0.2045
      5 C         -13.1576  -17.8365   22.7113 C.ar    1  UNL1        0.0293
      6 C         -12.4536  -17.4757   21.4368 C.ar    1  UNL1        0.0020
      7 C         -10.9567  -17.5368   21.3637 C.ar    1  UNL1       -0.0025
      8 C         -10.1637  -17.9587   22.5650 C.ar    1  UNL1        0.0018
      9 C          -8.6667  -18.0197   22.4919 C.3     1  UNL1        0.1732
     10 C          -7.7239  -16.8833   22.7560 C.3     1  UNL1        0.2371
     11 O          -6.3243  -17.3892   22.5691 O.2     1  UNL1       -0.4477
     12 C          -6.4019  -18.8384   22.1894 C.2     1  UNL1        0.2770
     13 N          -5.2366  -19.7395   21.9071 N.pl3   1  UNL1       -0.3133
     14 N          -7.8497  -19.2280   22.1417 N.2     1  UNL1       -0.2182
     15 H          -4.3183  -19.3893   21.9645 H       1  UNL1        0.1466
     16 H          -5.3900  -20.6812   21.6642 H       1  UNL1        0.1466
@<TRIPOS>BOND
     1     1     2    1
     2     2     3   ar
     3     3     4    1
     4     3     5   ar
     5     5     6   ar
     6     6     7   ar
     7     7     8   ar
     8     9     8    1
     9     9    10    1
    10    10    11    1
    11    11    12    1
    12    12    13    1
    13    12    14    2
    14     8     2   ar
    15    14     9    1
    16    13    15    1
    17    13    16    1
@<TRIPOS>MOLECULE
*****
 16 17 0 0 0
SMALL
GASTEIGER

@<TRIPOS>ATOM
      1 C          -8.8360  -19.1645   22.9701 C.3     1  UNL1        0.0331
      2 C         -10.0544  -18.3593   22.6277 C.ar    1  UNL1        0.0036
      3 C         -11.2117  -19.0100   21.9297 C.ar    1  UNL1        0.1359
      4 F         -11.1506  -20.4660   21.5739 F       1  UNL1       -0.2045
      5 C         -12.4301  -18.2048   21.5874 C.ar    1  UNL1        0.0293
      6 C         -12.4912  -16.7489   21.9431 C.ar    1  UNL1        0.0020
      7 C         -11.3340  -16.0982   22.6411 C.ar    1  UNL1       -0.0025
      8 C         -10.1156  -16.9034   22.9834 C.ar    1  UNL1        0.0018
      9 C          -8.9583  -16.2526   23.6815 C.3     1  UNL1        0.1732
     10 C          -7.7862  -15.5926   23.0177 C.3     1  UNL1        0.2371
     11 O          -6.8735  -15.0797   24.0919 O.2     1  UNL1       -0.4477
     12 C          -7.4815  -15.4227   25.4196 C.2     1  UNL1        0.2770
     13 N          -6.9026  -15.0979   26.7647 N.pl3   1  UNL1       -0.3133
     14 N          -8.7699  -16.1476   25.1659 N.2     1  UNL1       -0.2182
     15 H          -6.0465  -14.6161   26.8289 H       1  UNL1        0.1466
     16 H          -7.3789  -15.3665   27.5835 H       1  UNL1        0.1466
@<TRIPOS>BOND
     1     1     2    1
     2     2     3   ar
     3     3     4    1
     4     3     5   ar
     5     5     6   ar
     6     6     7   ar
     7     7     8   ar
     8     9     8    1
     9     9    10    1
    10    10    11    1
    11    11    12    1
    12    12    13    1
    13    12    14    2
    14     8     2   ar
    15    14     9    1
    16    13    15    1
    17    13    16    1
@<TRIPOS>MOLECULE
*****
 16 17 0 0 0
SMALL
GASTEIGER

@<TRIPOS>ATOM
      1 C          -9.9993  -15.8319   21.4963 C.3     1  UNL1        0.0331
      2 C         -10.4142  -16.8472   22.5196 C.ar    1  UNL1        0.0036
      3 C         -11.7022  -17.5975   22.3524 C.ar    1  UNL1        0.1359
      4 F         -12.5755  -17.3326   21.1619 F       1  UNL1       -0.2045
      5 C         -12.1170  -18.6127   23.3757 C.ar    1  UNL1        0.0293
      6 C         -11.2438  -18.8777   24.5662 C.ar    1  UNL1        0.0020
      7 C          -9.9558  -18.1274   24.7334 C.ar    1  UNL1       -0.0025
      8 C          -9.5410  -17.1121   23.7101 C.ar    1  UNL1        0.0018
      9 C          -8.2529  -16.3618   23.8773 C.3     1  UNL1        0.1732
     10 C          -8.0368  -15.1660   24.7567 C.3     1  UNL1        0.2371
     11 O          -6.6051  -14.7408   24.6173 O.2     1  UNL1       -0.4477
     12 C          -5.9363  -15.6737   23.6517 C.2     1  UNL1        0.2770
     13 N          -4.5012  -15.6151   23.2194 N.pl3   1  UNL1       -0.3133
     14 N          -6.9547  -16.6755   23.1943 N.2     1  UNL1       -0.2182
     15 H          -3.9074  -14.9162   23.5774 H       1  UNL1        0.1466
     16 H          -4.1530  -16.2755   22.5776 H       1  UNL1        0.1466
@<TRIPOS>BOND
     1     1     2    1
     2     2     3   ar
     3     3     4    1
     4     3     5   ar
     5     5     6   ar
     6     6     7   ar
     7     7     8   ar
     8     9     8    1
     9     9    10    1
    10    10    11    1
    11    11    12    1
    12    12    13    1
    13    12    14    2
    14     8     2   ar
    15    14     9    1
    16    13    15    1
    17    13    16    1
@<TRIPOS>MOLECULE
*****
 16 17 0 0 0
SMALL
GASTEIGER

@<TRIPOS>ATOM
      1 C          -6.5932  -20.2704   20.0797 C.3     1  UNL1        0.0331
      2 C          -5.5258  -19.6842   20.9555 C.ar    1  UNL1        0.0036
      3 C          -4.1014  -20.1284   20.8014 C.ar    1  UNL1        0.1359
      4 F          -3.7443  -21.1588   19.7714 F       1  UNL1       -0.2045
      5 C          -3.0340  -19.5423   21.6773 C.ar    1  UNL1        0.0293
      6 C          -3.3911  -18.5119   22.7073 C.ar    1  UNL1        0.0020
      7 C          -4.8154  -18.0677   22.8614 C.ar    1  UNL1       -0.0025
      8 C          -5.8828  -18.6539   21.9855 C.ar    1  UNL1        0.0018
      9 C          -7.3072  -18.2097   22.1397 C.3     1  UNL1        0.1732
     10 C          -8.3997  -18.9738   22.8271 C.3     1  UNL1        0.2371
     11 O          -9.6569  -18.1597   22.7457 O.2     1  UNL1       -0.4477
     12 C          -9.3414  -16.8923   22.0079 C.2     1  UNL1        0.2770
     13 N         -10.3084  -15.7880   21.6990 N.pl3   1  UNL1       -0.3133
     14 N          -7.8893  -16.9232   21.6334 N.2     1  UNL1       -0.2182
     15 H         -11.2466  -15.8599   21.9883 H       1  UNL1        0.1466
     16 H         -10.0047  -14.9912   21.2068 H       1  UNL1        0.1466
@<TRIPOS>BOND
     1     1     2    1
     2     2     3   ar
     3     3     4    1
     4     3     5   ar
     5     5     6   ar
     6     6     7   ar
     7     7     8   ar
     8     9     8    1
     9     9    10    1
    10    10    11    1
    11    11    12    1
    12    12    13    1
    13    12    14    2
    14     8     2   ar
    15    14     9    1
    16    13    15    1
    17    13    16    1
@<TRIPOS>MOLECULE
*****
 16 17 0 0 0
SMALL
GASTEIGER

@<TRIPOS>ATOM
      1 C         -10.3614  -18.0058   24.6810 C.3     1  UNL1        0.0331
      2 C          -9.2453  -17.0043   24.6448 C.ar    1  UNL1        0.0036
      3 C          -8.4973  -16.6691   25.9010 C.ar    1  UNL1        0.1359
      4 F          -8.8654  -17.3355   27.1935 F       1  UNL1       -0.2045
      5 C          -7.3812  -15.6677   25.8648 C.ar    1  UNL1        0.0293
      6 C          -7.0130  -15.0014   24.5723 C.ar    1  UNL1        0.0020
      7 C          -7.7610  -15.3366   23.3161 C.ar    1  UNL1       -0.0025
      8 C          -8.8771  -16.3380   23.3523 C.ar    1  UNL1        0.0018
      9 C          -9.6251  -16.6732   22.0960 C.3     1  UNL1        0.1732
     10 C          -9.3877  -17.8679   21.2206 C.3     1  UNL1        0.2371
     11 O         -10.3576  -17.8055   20.0782 O.2     1  UNL1       -0.4477
     12 C         -11.1946  -16.5722   20.2474 C.2     1  UNL1        0.2770
     13 N         -12.2916  -16.1184   19.3306 N.pl3   1  UNL1       -0.3133
     14 N         -10.7418  -15.8724   21.4945 N.2     1  UNL1       -0.2182
     15 H         -12.5166  -16.6486   18.5321 H       1  UNL1        0.1466
     16 H         -12.7865  -15.2904   19.5273 H       1  UNL1        0.1466
@<TRIPOS>BOND
     1     1     2    1
     2     2     3   ar
     3     3     4    1
     4     3     5   ar
     5     5     6   ar
     6     6     7   ar
     7     7     8   ar
     8     9     8    1
     9     9    10    1
    10    10    11    1
    11    11    12    1
    12    12    13    1
    13    12    14    2
    14     8     2   ar
    15    14     9    1
    16    13    15    1
    17    13    16    1
@<TRIPOS>MOLECULE
*****
 16 17 0 0 0
SMALL
GASTEIGER

@<TRIPOS>ATOM
      1 C          -7.3395  -16.5515   22.7995 C.3     1  UNL1        0.0331
      2 C          -7.2750  -16.1907   24.2540 C.ar    1  UNL1        0.0036
      3 C          -6.0718  -15.4789   24.7975 C.ar    1  UNL1        0.1359
      4 F          -4.9330  -15.1278   23.8865 F       1  UNL1       -0.2045
      5 C          -6.0073  -15.1181   26.2521 C.ar    1  UNL1        0.0293
      6 C          -7.1460  -15.4692   27.1631 C.ar    1  UNL1        0.0020
      7 C          -8.3493  -16.1810   26.6195 C.ar    1  UNL1       -0.0025
      8 C          -8.4138  -16.5418   25.1650 C.ar    1  UNL1        0.0018
      9 C          -9.6171  -17.2536   24.6215 C.3     1  UNL1        0.1732
     10 C         -10.0822  -18.6247   25.0136 C.3     1  UNL1        0.2371
     11 O         -11.3191  -18.9378   24.2249 O.2     1  UNL1       -0.4477
     12 C         -11.6185  -17.7601   23.3453 C.2     1  UNL1        0.2770
     13 N         -12.7679  -17.6438   22.3886 N.pl3   1  UNL1       -0.3133
     14 N         -10.5666  -16.7193   23.5904 N.2     1  UNL1       -0.2182
     15 H         -13.4095  -18.3850   22.2975 H       1  UNL1        0.1466
     16 H         -12.8807  -16.8263   21.8518 H       1  UNL1        0.1466
@<TRIPOS>BOND
     1     1     2    1
     2     2     3   ar
     3     3     4    1
     4     3     5   ar
     5     5     6   ar
     6     6     7   ar
     7     7     8   ar
     8     9     8    1
     9     9    10    1
    10    10    11    1
    11    11    12    1
    12    12    13    1
    13    12    14    2
    14     8     2   ar
    15    14     9    1
    16    13    15    1
    17    13    16    1
