@<TRIPOS>MOLECULE
*****
 44 49 0 0 0
SMALL
GASTEIGER

@<TRIPOS>ATOM
      1 N           2.9446    0.9256   31.4978 N.am    1  UNL1       -0.2222
      2 C           2.4041    0.8950   30.0988 C.2     1  UNL1        0.3220
      3 O           2.8054   -0.0660   29.0193 O.2     1  UNL1       -0.2512
      4 N           1.3917    1.9943   29.9690 N.am    1  UNL1       -0.1892
      5 C           1.3065    2.7042   31.2876 C.2     1  UNL1        0.2529
      6 O           0.4177    3.8698   31.6056 O.2     1  UNL1       -0.2724
      7 C           2.2663    2.0437   32.2325 C.3     1  UNL1        0.1391
      8 C           3.2627    1.2864   33.0593 C.3     1  UNL1        0.0449
      9 C           3.5020    1.6757   34.4880 C.3     1  UNL1        0.0746
     10 N           2.7450    2.8222   35.0898 N.3     1  UNL1       -0.2676
     11 C           1.7486    3.5795   34.2630 C.3     1  UNL1        0.0746
     12 C           1.5092    3.1903   32.8344 C.3     1  UNL1        0.0449
     13 C           6.4727   -0.5730   32.5254 C.ar    1  UNL1        0.2293
     14 C           5.4360    0.3521   31.9604 C.ar    1  UNL1        0.0924
     15 C           3.9814    0.0005   32.0628 C.ar    1  UNL1        0.1453
     16 N           3.5635   -1.2763   32.7302 N.ar    1  UNL1       -0.2084
     17 C           4.6002   -2.2014   33.2952 C.ar    1  UNL1        0.2027
     18 N           6.0549   -1.8498   33.1928 N.ar    1  UNL1       -0.1892
     19 C           8.9388   -0.9688   33.2408 C.3     1  UNL1        0.2542
     20 O           7.9273   -0.2215   32.4231 O.3     1  UNL1       -0.4560
     21 C           0.6030    2.3254   28.7369 C.ar    1  UNL1        0.0813
     22 C          -0.1623    1.2498   28.0246 C.ar    1  UNL1        0.0185
     23 C          -0.9510    1.5810   26.7924 C.ar    1  UNL1        0.0204
     24 C          -0.9745    2.9878   26.2725 C.ar    1  UNL1        0.0811
     25 N          -0.2092    4.0635   26.9848 N.ar    1  UNL1       -0.2425
     26 C           0.5795    3.7323   28.2170 C.ar    1  UNL1        0.1141
     27 C          -1.7632    3.3190   25.0403 C.ar    1  UNL1        0.0137
     28 C          -1.1160    3.2329   23.6899 C.ar    1  UNL1        0.0012
     29 C          -1.9047    3.5641   22.4577 C.ar    1  UNL1        0.0012
     30 C          -3.3407    3.9814   22.5761 C.ar    1  UNL1        0.0137
     31 C          -3.9878    4.0675   23.9265 C.ar    1  UNL1       -0.0031
     32 C          -3.1992    3.7364   25.1586 C.ar    1  UNL1       -0.0204
     33 C          -3.8464    3.8225   26.5091 C.3     1  UNL1        0.0311
     34 C          -4.1294    4.3126   21.3439 C.2     1  UNL1        0.0729
     35 O          -4.9409    5.5729   21.2891 O.co2   1  UNL1       -0.5446
     36 O          -4.1066    3.3834   20.1665 O.co2   1  UNL1       -0.5446
     37 C           2.9844    3.2115   36.5186 C.3     1  UNL1        0.1183
     38 C           2.2407    2.5161   37.6201 C.ar    1  UNL1        0.0712
     39 N           0.9435    3.0788   38.1208 N.ar    1  UNL1       -0.2471
     40 C           0.1998    2.3833   39.2223 C.ar    1  UNL1        0.0985
     41 C           0.7534    1.1253   39.8231 C.ar    1  UNL1        0.0203
     42 C           2.0506    0.5627   39.3225 C.ar    1  UNL1       -0.0015
     43 C           2.7943    1.2581   38.2210 C.ar    1  UNL1       -0.0069
     44 C           4.0915    0.6955   37.7203 C.3     1  UNL1        0.0323
@<TRIPOS>UNITY_ATOM_ATTR
35 1
charge -1
@<TRIPOS>BOND
     1    19    20    1
     2    20    13    1
     3    13    14   ar
     4    14    15   ar
     5    15     1    1
     6     1     2   am
     7     2     3    2
     8     2     4   am
     9     4    21    1
    10    21    22   ar
    11    22    23   ar
    12    23    24   ar
    13    24    27    1
    14    27    28   ar
    15    28    29   ar
    16    29    30   ar
    17    30    34    1
    18    34    35   ar
    19    34    36   ar
    20    30    31   ar
    21    31    32   ar
    22    32    33    1
    23    24    25   ar
    24    25    26   ar
    25     4     5   am
    26     5     6    2
    27     5     7    1
    28     7     8    1
    29     8     9    1
    30     9    10    1
    31    10    37    1
    32    37    38    1
    33    38    39   ar
    34    39    40   ar
    35    40    41   ar
    36    41    42   ar
    37    42    43   ar
    38    43    44    1
    39    10    11    1
    40    11    12    1
    41    15    16   ar
    42    16    17   ar
    43    17    18   ar
    44    18    13   ar
    45     7     1    1
    46    43    38   ar
    47    26    21   ar
    48    12     7    1
    49    32    27   ar
@<TRIPOS>MOLECULE
*****
 44 49 0 0 0
SMALL
GASTEIGER

@<TRIPOS>ATOM
      1 N           3.9736   -0.2779   31.4662 N.am    1  UNL1       -0.2222
      2 C           3.2053   -0.0716   30.1945 C.2     1  UNL1        0.3220
      3 O           3.4544   -0.7702   28.8907 O.2     1  UNL1       -0.2512
      4 N           2.1440    0.9559   30.4556 N.am    1  UNL1       -0.1892
      5 C           2.2565    1.3846   31.8886 C.2     1  UNL1        0.2529
      6 O           1.3903    2.3979   32.5763 O.2     1  UNL1       -0.2724
      7 C           3.3872    0.6221   32.5133 C.3     1  UNL1        0.1391
      8 C           4.5378   -0.2092   32.9981 C.3     1  UNL1        0.0449
      9 C           5.0008   -0.0922   34.4200 C.3     1  UNL1        0.0746
     10 N           4.3133    0.8561   35.3571 N.3     1  UNL1       -0.2676
     11 C           3.1628    1.6874   34.8722 C.3     1  UNL1        0.0746
     12 C           2.6997    1.5704   33.4503 C.3     1  UNL1        0.0449
     13 C           7.6581   -1.7518   31.4246 C.ar    1  UNL1        0.2293
     14 C           6.5058   -0.8107   31.2335 C.ar    1  UNL1        0.0924
     15 C           5.1260   -1.2189   31.6573 C.ar    1  UNL1        0.1453
     16 N           4.8986   -2.5680   32.2723 N.ar    1  UNL1       -0.2084
     17 C           6.0509   -3.5090   32.4634 C.ar    1  UNL1        0.2027
     18 N           7.4307   -3.1009   32.0395 N.ar    1  UNL1       -0.1892
     19 C           9.4434    0.0994   31.0561 C.3     1  UNL1        0.2542
     20 O           9.0379   -1.3437   31.0008 O.3     1  UNL1       -0.4560
     21 C           1.1456    1.4651   29.4587 C.ar    1  UNL1        0.0813
     22 C           0.0912    0.5462   28.9169 C.ar    1  UNL1        0.0185
     23 C          -0.9072    1.0555   27.9200 C.ar    1  UNL1        0.0204
     24 C          -0.8512    2.4837   27.4649 C.ar    1  UNL1        0.0811
     25 N           0.2034    3.4027   28.0068 N.ar    1  UNL1       -0.2425
     26 C           1.2017    2.8933   29.0037 C.ar    1  UNL1        0.1141
     27 C          -1.8496    2.9930   26.4680 C.ar    1  UNL1        0.0137
     28 C          -3.1768    3.5134   26.9346 C.ar    1  UNL1        0.0012
     29 C          -4.1752    4.0227   25.9376 C.ar    1  UNL1        0.0012
     30 C          -3.8463    4.0116   24.4742 C.ar    1  UNL1        0.0137
     31 C          -2.5191    3.4912   24.0076 C.ar    1  UNL1       -0.0031
     32 C          -1.5207    2.9819   25.0045 C.ar    1  UNL1       -0.0204
     33 C          -0.1935    2.4615   24.5379 C.3     1  UNL1        0.0311
     34 C          -4.8447    4.5209   23.4773 C.2     1  UNL1        0.0729
     35 O          -4.9478    5.9921   23.2036 O.co2   1  UNL1       -0.5446
     36 O          -5.7400    3.5589   22.7540 O.co2   1  UNL1       -0.5446
     37 C           4.7764    0.9731   36.7790 C.3     1  UNL1        0.1183
     38 C           4.4726    2.2126   37.5672 C.ar    1  UNL1        0.0712
     39 N           5.3402    3.4272   37.4187 N.ar    1  UNL1       -0.2471
     40 C           5.0364    4.6668   38.2070 C.ar    1  UNL1        0.0985
     41 C           3.8650    4.6917   39.1435 C.ar    1  UNL1        0.0203
     42 C           2.9974    3.4771   39.2920 C.ar    1  UNL1       -0.0015
     43 C           3.3012    2.2376   38.5038 C.ar    1  UNL1       -0.0069
     44 C           2.4336    1.0230   38.6523 C.3     1  UNL1        0.0323
@<TRIPOS>UNITY_ATOM_ATTR
35 1
charge -1
@<TRIPOS>BOND
     1    19    20    1
     2    20    13    1
     3    13    14   ar
     4    14    15   ar
     5    15     1    1
     6     1     2   am
     7     2     3    2
     8     2     4   am
     9     4    21    1
    10    21    22   ar
    11    22    23   ar
    12    23    24   ar
    13    24    27    1
    14    27    28   ar
    15    28    29   ar
    16    29    30   ar
    17    30    34    1
    18    34    35   ar
    19    34    36   ar
    20    30    31   ar
    21    31    32   ar
    22    32    33    1
    23    24    25   ar
    24    25    26   ar
    25     4     5   am
    26     5     6    2
    27     5     7    1
    28     7     8    1
    29     8     9    1
    30     9    10    1
    31    10    37    1
    32    37    38    1
    33    38    39   ar
    34    39    40   ar
    35    40    41   ar
    36    41    42   ar
    37    42    43   ar
    38    43    44    1
    39    10    11    1
    40    11    12    1
    41    15    16   ar
    42    16    17   ar
    43    17    18   ar
    44    18    13   ar
    45     7     1    1
    46    43    38   ar
    47    26    21   ar
    48    12     7    1
    49    32    27   ar
@<TRIPOS>MOLECULE
*****
 44 49 0 0 0
SMALL
GASTEIGER

@<TRIPOS>ATOM
      1 N           3.9397    0.2671   25.8813 N.am    1  UNL1       -0.2222
      2 C           3.5942    0.8376   27.2250 C.2     1  UNL1        0.3220
      3 O           2.7671    2.0634   27.4762 O.2     1  UNL1       -0.2512
      4 N           4.2213   -0.0331   28.2733 N.am    1  UNL1       -0.1892
      5 C           4.9541   -1.1416   27.5775 C.2     1  UNL1        0.2529
      6 O           5.7256   -2.2424   28.2431 O.2     1  UNL1       -0.2724
      7 C           4.7801   -0.9561   26.0992 C.3     1  UNL1        0.1391
      8 C           4.5206   -0.6435   24.6553 C.3     1  UNL1        0.0449
      9 C           5.0874   -1.5261   23.5832 C.3     1  UNL1        0.0746
     10 N           5.9139   -2.7215   23.9549 N.3     1  UNL1       -0.2676
     11 C           6.1734   -3.0341   25.3988 C.3     1  UNL1        0.0746
     12 C           5.6065   -2.1515   26.4709 C.3     1  UNL1        0.0449
     13 C           1.7834    0.9727   22.6251 C.ar    1  UNL1        0.2293
     14 C           2.2046    0.4174   23.9534 C.ar    1  UNL1        0.0924
     15 C           3.5185    0.8223   24.5530 C.ar    1  UNL1        0.1453
     16 N           4.4113    1.7825   23.8244 N.ar    1  UNL1       -0.2084
     17 C           3.9903    2.3378   22.4961 C.ar    1  UNL1        0.2027
     18 N           2.6762    1.9329   21.8965 N.ar    1  UNL1       -0.1892
     19 C           0.3397    0.4119   20.5392 C.3     1  UNL1        0.2542
     20 O           0.4695    0.5678   22.0255 O.3     1  UNL1       -0.4560
     21 C           4.1312    0.1692   29.7567 C.ar    1  UNL1        0.0813
     22 C           5.1461    1.0204   30.4606 C.ar    1  UNL1        0.0185
     23 C           5.0560    1.2228   31.9441 C.ar    1  UNL1        0.0204
     24 C           3.9511    0.5739   32.7239 C.ar    1  UNL1        0.0811
     25 N           2.9361   -0.2774   32.0201 N.ar    1  UNL1       -0.2425
     26 C           3.0263   -0.4797   30.5365 C.ar    1  UNL1        0.1141
     27 C           3.8610    0.7762   34.2075 C.ar    1  UNL1        0.0137
     28 C           4.6052   -0.1374   35.1356 C.ar    1  UNL1        0.0012
     29 C           4.5152    0.0650   36.6191 C.ar    1  UNL1        0.0012
     30 C           3.6808    1.1810   37.1745 C.ar    1  UNL1        0.0137
     31 C           2.9365    2.0946   36.2464 C.ar    1  UNL1       -0.0031
     32 C           3.0266    1.8922   34.7629 C.ar    1  UNL1       -0.0204
     33 C           2.2823    2.8058   33.8348 C.3     1  UNL1        0.0311
     34 C           3.5907    1.3833   38.6581 C.2     1  UNL1        0.0729
     35 O           4.6795    2.1182   39.3823 O.co2   1  UNL1       -0.5446
     36 O           2.4118    0.8507   39.4175 O.co2   1  UNL1       -0.5446
     37 C           6.4807   -3.6042   22.8827 C.3     1  UNL1        0.1183
     38 C           5.8276   -3.6593   21.5335 C.ar    1  UNL1        0.0712
     39 N           4.5578   -4.4354   21.3461 N.ar    1  UNL1       -0.2471
     40 C           3.9047   -4.4905   19.9968 C.ar    1  UNL1        0.0985
     41 C           4.5214   -3.7694   18.8350 C.ar    1  UNL1        0.0203
     42 C           5.7912   -2.9933   19.0225 C.ar    1  UNL1       -0.0015
     43 C           6.4443   -2.9382   20.3716 C.ar    1  UNL1       -0.0069
     44 C           7.7142   -2.1620   20.5591 C.3     1  UNL1        0.0323
@<TRIPOS>UNITY_ATOM_ATTR
35 1
charge -1
@<TRIPOS>BOND
     1    19    20    1
     2    20    13    1
     3    13    14   ar
     4    14    15   ar
     5    15     1    1
     6     1     2   am
     7     2     3    2
     8     2     4   am
     9     4    21    1
    10    21    22   ar
    11    22    23   ar
    12    23    24   ar
    13    24    27    1
    14    27    28   ar
    15    28    29   ar
    16    29    30   ar
    17    30    34    1
    18    34    35   ar
    19    34    36   ar
    20    30    31   ar
    21    31    32   ar
    22    32    33    1
    23    24    25   ar
    24    25    26   ar
    25     4     5   am
    26     5     6    2
    27     5     7    1
    28     7     8    1
    29     8     9    1
    30     9    10    1
    31    10    37    1
    32    37    38    1
    33    38    39   ar
    34    39    40   ar
    35    40    41   ar
    36    41    42   ar
    37    42    43   ar
    38    43    44    1
    39    10    11    1
    40    11    12    1
    41    15    16   ar
    42    16    17   ar
    43    17    18   ar
    44    18    13   ar
    45     7     1    1
    46    43    38   ar
    47    26    21   ar
    48    12     7    1
    49    32    27   ar
@<TRIPOS>MOLECULE
*****
 44 49 0 0 0
SMALL
GASTEIGER

@<TRIPOS>ATOM
      1 N           6.0366   -2.3536   26.3322 N.am    1  UNL1       -0.2222
      2 C           6.0804   -2.0197   27.7940 C.2     1  UNL1        0.3220
      3 O           7.0998   -2.5084   28.7799 O.2     1  UNL1       -0.2512
      4 N           4.9257   -1.1114   28.0967 N.am    1  UNL1       -0.1892
      5 C           4.1683   -0.8839   26.8221 C.2     1  UNL1        0.2529
      6 O           2.9401   -0.0373   26.6655 O.2     1  UNL1       -0.2724
      7 C           4.8549   -1.6516   25.7316 C.3     1  UNL1        0.1391
      8 C           5.6443   -2.4662   24.7501 C.3     1  UNL1        0.0449
      9 C           5.2231   -2.5221   23.3116 C.3     1  UNL1        0.0746
     10 N           4.0125   -1.7634   22.8545 N.3     1  UNL1       -0.2676
     11 C           3.2232   -0.9488   23.8359 C.3     1  UNL1        0.0746
     12 C           3.6444   -0.8929   25.2745 C.3     1  UNL1        0.0449
     13 C           7.8009   -5.6058   24.8967 C.ar    1  UNL1        0.2293
     14 C           6.8329   -4.7246   25.6291 C.ar    1  UNL1        0.0924
     15 C           7.0046   -3.2348   25.5997 C.ar    1  UNL1        0.1453
     16 N           8.1444   -2.6261   24.8379 N.ar    1  UNL1       -0.2084
     17 C           9.1124   -3.5072   24.1054 C.ar    1  UNL1        0.2027
     18 N           8.9406   -4.9971   24.1348 N.ar    1  UNL1       -0.1892
     19 C           7.3235   -7.7899   26.2201 C.3     1  UNL1        0.2542
     20 O           7.6292   -7.0956   24.9260 O.3     1  UNL1       -0.4560
     21 C           4.5878   -0.5322   29.4384 C.ar    1  UNL1        0.0813
     22 C           5.5874    0.3223   30.1598 C.ar    1  UNL1        0.0185
     23 C           5.2494    0.9015   31.5016 C.ar    1  UNL1        0.0204
     24 C           3.9118    0.6261   32.1220 C.ar    1  UNL1        0.0811
     25 N           2.9121   -0.2285   31.4006 N.ar    1  UNL1       -0.2425
     26 C           3.2501   -0.8076   30.0588 C.ar    1  UNL1        0.1141
     27 C           3.5738    1.2052   33.4638 C.ar    1  UNL1        0.0137
     28 C           2.6539    2.3860   33.5609 C.ar    1  UNL1        0.0012
     29 C           2.3160    2.9652   34.9027 C.ar    1  UNL1        0.0012
     30 C           2.8979    2.3634   36.1473 C.ar    1  UNL1        0.0137
     31 C           3.8178    1.1826   36.0503 C.ar    1  UNL1       -0.0031
     32 C           4.1558    0.6035   34.7086 C.ar    1  UNL1       -0.0204
     33 C           5.0756   -0.5774   34.6115 C.3     1  UNL1        0.0311
     34 C           2.5600    2.9426   37.4891 C.2     1  UNL1        0.0729
     35 O           1.1260    3.1545   37.8749 O.co2   1  UNL1       -0.5446
     36 O           3.6560    3.3098   38.4452 O.co2   1  UNL1       -0.5446
     37 C           3.5914   -1.8194   21.4159 C.3     1  UNL1        0.1183
     38 C           4.6275   -1.8482   20.3316 C.ar    1  UNL1        0.0712
     39 N           5.6542   -0.7580   20.2462 N.ar    1  UNL1       -0.2471
     40 C           6.6904   -0.7869   19.1619 C.ar    1  UNL1        0.0985
     41 C           6.6997   -1.9059   18.1631 C.ar    1  UNL1        0.0203
     42 C           5.6730   -2.9961   18.2485 C.ar    1  UNL1       -0.0015
     43 C           4.6369   -2.9673   19.3328 C.ar    1  UNL1       -0.0069
     44 C           3.6102   -4.0575   19.4182 C.3     1  UNL1        0.0323
@<TRIPOS>UNITY_ATOM_ATTR
35 1
charge -1
@<TRIPOS>BOND
     1    19    20    1
     2    20    13    1
     3    13    14   ar
     4    14    15   ar
     5    15     1    1
     6     1     2   am
     7     2     3    2
     8     2     4   am
     9     4    21    1
    10    21    22   ar
    11    22    23   ar
    12    23    24   ar
    13    24    27    1
    14    27    28   ar
    15    28    29   ar
    16    29    30   ar
    17    30    34    1
    18    34    35   ar
    19    34    36   ar
    20    30    31   ar
    21    31    32   ar
    22    32    33    1
    23    24    25   ar
    24    25    26   ar
    25     4     5   am
    26     5     6    2
    27     5     7    1
    28     7     8    1
    29     8     9    1
    30     9    10    1
    31    10    37    1
    32    37    38    1
    33    38    39   ar
    34    39    40   ar
    35    40    41   ar
    36    41    42   ar
    37    42    43   ar
    38    43    44    1
    39    10    11    1
    40    11    12    1
    41    15    16   ar
    42    16    17   ar
    43    17    18   ar
    44    18    13   ar
    45     7     1    1
    46    43    38   ar
    47    26    21   ar
    48    12     7    1
    49    32    27   ar
@<TRIPOS>MOLECULE
*****
 44 49 0 0 0
SMALL
GASTEIGER

@<TRIPOS>ATOM
      1 N           1.5487    1.8845   24.2467 N.am    1  UNL1       -0.2222
      2 C           1.6688    2.1397   25.7200 C.2     1  UNL1        0.3220
      3 O           1.0996    3.3132   26.4609 O.2     1  UNL1       -0.2512
      4 N           2.4582    1.0153   26.3224 N.am    1  UNL1       -0.1892
      5 C           2.8259    0.0652   25.2214 C.2     1  UNL1        0.2529
      6 O           3.6167   -1.1999   25.3760 O.2     1  UNL1       -0.2724
      7 C           2.2638    0.6024   23.9385 C.3     1  UNL1        0.1391
      8 C           1.6454    1.2593   22.7403 C.3     1  UNL1        0.0449
      9 C           1.7756    0.6257   21.3869 C.3     1  UNL1        0.0746
     10 N           2.5242   -0.6649   21.2319 N.3     1  UNL1       -0.2676
     11 C           3.1427   -1.3218   22.4302 C.3     1  UNL1        0.0746
     12 C           3.0125   -0.6881   23.7835 C.3     1  UNL1        0.0449
     13 C          -1.3189    3.3882   21.9520 C.ar    1  UNL1        0.2293
     14 C          -0.6084    2.5146   22.9431 C.ar    1  UNL1        0.0924
     15 C           0.8383    2.7580   23.2556 C.ar    1  UNL1        0.1453
     16 N           1.5746    3.8749   22.5771 N.ar    1  UNL1       -0.2084
     17 C           0.8643    4.7485   21.5861 C.ar    1  UNL1        0.2027
     18 N          -0.5826    4.5051   21.2735 N.ar    1  UNL1       -0.1892
     19 C          -3.2949    3.4337   20.2660 C.3     1  UNL1        0.2542
     20 O          -2.7656    3.1448   21.6394 O.3     1  UNL1       -0.4560
     21 C           2.8168    0.8670   27.7712 C.ar    1  UNL1        0.0813
     22 C           4.0069    1.5912   28.3272 C.ar    1  UNL1        0.0185
     23 C           4.3656    1.4429   29.7762 C.ar    1  UNL1        0.0204
     24 C           3.5340    0.5705   30.6691 C.ar    1  UNL1        0.0811
     25 N           2.3438   -0.1537   30.1132 N.ar    1  UNL1       -0.2425
     26 C           1.9852   -0.0054   28.6642 C.ar    1  UNL1        0.1141
     27 C           3.8926    0.4222   32.1181 C.ar    1  UNL1        0.0137
     28 C           3.3835    1.4137   33.1220 C.ar    1  UNL1        0.0012
     29 C           3.7421    1.2654   34.5709 C.ar    1  UNL1        0.0012
     30 C           4.6099    0.1256   35.0159 C.ar    1  UNL1        0.0137
     31 C           5.1190   -0.8658   34.0120 C.ar    1  UNL1       -0.0031
     32 C           4.7604   -0.7175   32.5631 C.ar    1  UNL1       -0.0204
     33 C           5.2696   -1.7090   31.5592 C.3     1  UNL1        0.0311
     34 C           4.9685   -0.0226   36.4648 C.2     1  UNL1        0.0729
     35 O           6.2936   -0.6085   36.8534 O.co2   1  UNL1       -0.5446
     36 O           4.0020    0.4149   37.5253 O.co2   1  UNL1       -0.5446
     37 C           2.6544   -1.2985   19.8785 C.3     1  UNL1        0.1183
     38 C           4.0130   -1.5342   19.2883 C.ar    1  UNL1        0.0712
     39 N           4.9462   -0.3803   19.0695 N.ar    1  UNL1       -0.2471
     40 C           6.3049   -0.6160   18.4792 C.ar    1  UNL1        0.0985
     41 C           6.7304   -2.0056   18.1077 C.ar    1  UNL1        0.0203
     42 C           5.7973   -3.1595   18.3265 C.ar    1  UNL1       -0.0015
     43 C           4.4387   -2.9238   18.9167 C.ar    1  UNL1       -0.0069
     44 C           3.5055   -4.0777   19.1355 C.3     1  UNL1        0.0323
@<TRIPOS>UNITY_ATOM_ATTR
35 1
charge -1
@<TRIPOS>BOND
     1    19    20    1
     2    20    13    1
     3    13    14   ar
     4    14    15   ar
     5    15     1    1
     6     1     2   am
     7     2     3    2
     8     2     4   am
     9     4    21    1
    10    21    22   ar
    11    22    23   ar
    12    23    24   ar
    13    24    27    1
    14    27    28   ar
    15    28    29   ar
    16    29    30   ar
    17    30    34    1
    18    34    35   ar
    19    34    36   ar
    20    30    31   ar
    21    31    32   ar
    22    32    33    1
    23    24    25   ar
    24    25    26   ar
    25     4     5   am
    26     5     6    2
    27     5     7    1
    28     7     8    1
    29     8     9    1
    30     9    10    1
    31    10    37    1
    32    37    38    1
    33    38    39   ar
    34    39    40   ar
    35    40    41   ar
    36    41    42   ar
    37    42    43   ar
    38    43    44    1
    39    10    11    1
    40    11    12    1
    41    15    16   ar
    42    16    17   ar
    43    17    18   ar
    44    18    13   ar
    45     7     1    1
    46    43    38   ar
    47    26    21   ar
    48    12     7    1
    49    32    27   ar
@<TRIPOS>MOLECULE
*****
 44 49 0 0 0
SMALL
GASTEIGER

@<TRIPOS>ATOM
      1 N           6.2086   -2.2160   26.8752 N.am    1  UNL1       -0.2222
      2 C           6.3608   -2.0316   28.3561 C.2     1  UNL1        0.3220
      3 O           7.4670   -2.5853   29.2045 O.2     1  UNL1       -0.2512
      4 N           5.2124   -1.1964   28.8397 N.am    1  UNL1       -0.1892
      5 C           4.3506   -0.8646   27.6577 C.2     1  UNL1        0.2529
      6 O           3.0937   -0.0463   27.6849 O.2     1  UNL1       -0.2724
      7 C           4.9662   -1.4947   26.4436 C.3     1  UNL1        0.1391
      8 C           5.6941   -2.1792   25.3249 C.3     1  UNL1        0.0449
      9 C           5.1610   -2.1017   23.9250 C.3     1  UNL1        0.0746
     10 N           3.9000   -1.3396   23.6438 N.3     1  UNL1       -0.2676
     11 C           3.1721   -0.6551   24.7625 C.3     1  UNL1        0.0746
     12 C           3.7052   -0.7326   26.1624 C.3     1  UNL1        0.0449
     13 C           7.8589   -5.2289   24.8881 C.ar    1  UNL1        0.2293
     14 C           6.9315   -4.4585   25.7806 C.ar    1  UNL1        0.0924
     15 C           7.1360   -2.9863   25.9828 C.ar    1  UNL1        0.1453
     16 N           8.2678   -2.2845   25.2925 N.ar    1  UNL1       -0.2084
     17 C           9.1951   -3.0548   24.4000 C.ar    1  UNL1        0.2027
     18 N           8.9907   -4.5271   24.1978 N.ar    1  UNL1       -0.1892
     19 C           8.7453   -7.5332   24.0795 C.3     1  UNL1        0.2542
     20 O           7.6545   -6.7010   24.6859 O.3     1  UNL1       -0.4560
     21 C           4.9688   -0.7682   30.2564 C.ar    1  UNL1        0.0813
     22 C           5.9196    0.1777   30.9281 C.ar    1  UNL1        0.0185
     23 C           5.6759    0.6059   32.3449 C.ar    1  UNL1        0.0204
     24 C           4.4814    0.0882   33.0900 C.ar    1  UNL1        0.0811
     25 N           3.5305   -0.8578   32.4183 N.ar    1  UNL1       -0.2425
     26 C           3.7743   -1.2859   31.0015 C.ar    1  UNL1        0.1141
     27 C           4.2377    0.5164   34.5068 C.ar    1  UNL1        0.0137
     28 C           4.9415   -0.1813   35.6328 C.ar    1  UNL1        0.0012
     29 C           4.6978    0.2469   37.0496 C.ar    1  UNL1        0.0012
     30 C           3.7503    1.3728   37.3402 C.ar    1  UNL1        0.0137
     31 C           3.0465    2.0705   36.2143 C.ar    1  UNL1       -0.0031
     32 C           3.2902    1.6424   34.7976 C.ar    1  UNL1       -0.0204
     33 C           2.5864    2.3401   33.6716 C.3     1  UNL1        0.0311
     34 C           3.5066    1.8010   38.7570 C.2     1  UNL1        0.0729
     35 O           4.6433    2.3107   39.5926 O.co2   1  UNL1       -0.5446
     36 O           2.1261    1.7195   39.3383 O.co2   1  UNL1       -0.5446
     37 C           3.3669   -1.2621   22.2438 C.3     1  UNL1        0.1183
     38 C           4.1940   -1.7638   21.0975 C.ar    1  UNL1        0.0712
     39 N           4.0802   -3.1941   20.6599 N.ar    1  UNL1       -0.2471
     40 C           4.9073   -3.6957   19.5135 C.ar    1  UNL1        0.0985
     41 C           5.8483   -2.7672   18.8047 C.ar    1  UNL1        0.0203
     42 C           5.9621   -1.3370   19.2423 C.ar    1  UNL1       -0.0015
     43 C           5.1350   -0.8353   20.3886 C.ar    1  UNL1       -0.0069
     44 C           5.2488    0.5950   20.8262 C.3     1  UNL1        0.0323
@<TRIPOS>UNITY_ATOM_ATTR
35 1
charge -1
@<TRIPOS>BOND
     1    19    20    1
     2    20    13    1
     3    13    14   ar
     4    14    15   ar
     5    15     1    1
     6     1     2   am
     7     2     3    2
     8     2     4   am
     9     4    21    1
    10    21    22   ar
    11    22    23   ar
    12    23    24   ar
    13    24    27    1
    14    27    28   ar
    15    28    29   ar
    16    29    30   ar
    17    30    34    1
    18    34    35   ar
    19    34    36   ar
    20    30    31   ar
    21    31    32   ar
    22    32    33    1
    23    24    25   ar
    24    25    26   ar
    25     4     5   am
    26     5     6    2
    27     5     7    1
    28     7     8    1
    29     8     9    1
    30     9    10    1
    31    10    37    1
    32    37    38    1
    33    38    39   ar
    34    39    40   ar
    35    40    41   ar
    36    41    42   ar
    37    42    43   ar
    38    43    44    1
    39    10    11    1
    40    11    12    1
    41    15    16   ar
    42    16    17   ar
    43    17    18   ar
    44    18    13   ar
    45     7     1    1
    46    43    38   ar
    47    26    21   ar
    48    12     7    1
    49    32    27   ar
@<TRIPOS>MOLECULE
*****
 44 49 0 0 0
SMALL
GASTEIGER

@<TRIPOS>ATOM
      1 N           3.7880   -0.6672   22.6867 N.am    1  UNL1       -0.2222
      2 C           2.5544    0.1858   22.6571 C.2     1  UNL1        0.3220
      3 O           1.8595    0.6886   21.4266 O.2     1  UNL1       -0.2512
      4 N           2.1378    0.4477   24.0741 N.am    1  UNL1       -0.1892
      5 C           3.1139   -0.2435   24.9795 C.2     1  UNL1        0.2529
      6 O           3.0767   -0.2453   26.4790 O.2     1  UNL1       -0.2724
      7 C           4.1338   -0.9325   24.1220 C.3     1  UNL1        0.1391
      8 C           5.0753   -1.5652   23.1406 C.3     1  UNL1        0.0449
      9 C           6.2369   -2.3769   23.6321 C.3     1  UNL1        0.0746
     10 N           6.4570   -2.5561   25.1051 N.3     1  UNL1       -0.2676
     11 C           5.5154   -1.9234   26.0865 C.3     1  UNL1        0.0746
     12 C           4.3538   -1.1116   25.5949 C.3     1  UNL1        0.0449
     13 C           4.8317   -2.8966   19.5738 C.ar    1  UNL1        0.2293
     14 C           4.0765   -2.3967   20.7695 C.ar    1  UNL1        0.0924
     15 C           4.5431   -1.1671   21.4909 C.ar    1  UNL1        0.1453
     16 N           5.7648   -0.4374   21.0166 N.ar    1  UNL1       -0.2084
     17 C           6.5200   -0.9373   19.8209 C.ar    1  UNL1        0.2027
     18 N           6.0534   -2.1669   19.0994 N.ar    1  UNL1       -0.1892
     19 C           3.5791   -5.1727   19.5850 C.3     1  UNL1        0.2542
     20 O           4.3652   -4.1261   18.8523 O.3     1  UNL1       -0.4560
     21 C           0.9532    1.2583   24.5094 C.ar    1  UNL1        0.0813
     22 C           0.4548    2.3803   23.6477 C.ar    1  UNL1        0.0185
     23 C          -0.7299    3.1910   24.0829 C.ar    1  UNL1        0.0204
     24 C          -1.4161    2.8796   25.3799 C.ar    1  UNL1        0.0811
     25 N          -0.9176    1.7575   26.2417 N.ar    1  UNL1       -0.2425
     26 C           0.2670    0.9469   25.8063 C.ar    1  UNL1        0.1141
     27 C          -2.6007    3.6903   25.8152 C.ar    1  UNL1        0.0137
     28 C          -3.9531    3.4182   25.2260 C.ar    1  UNL1        0.0012
     29 C          -5.1377    4.2288   25.6613 C.ar    1  UNL1        0.0012
     30 C          -4.9699    5.3116   26.6857 C.ar    1  UNL1        0.0137
     31 C          -3.6176    5.5838   27.2749 C.ar    1  UNL1       -0.0031
     32 C          -2.4330    4.7732   26.8396 C.ar    1  UNL1       -0.0204
     33 C          -1.0806    5.0453   27.4288 C.3     1  UNL1        0.0311
     34 C          -6.1545    6.1223   27.1210 C.2     1  UNL1        0.0729
     35 O          -7.2190    6.4872   26.1291 O.co2   1  UNL1       -0.5446
     36 O          -6.2747    6.5681   28.5482 O.co2   1  UNL1       -0.5446
     37 C           7.6187   -3.3679   25.5966 C.3     1  UNL1        0.1183
     38 C           7.9363   -4.6867   24.9565 C.ar    1  UNL1        0.0712
     39 N           8.7090   -4.7301   23.6716 N.ar    1  UNL1       -0.2471
     40 C           9.0266   -6.0490   23.0316 C.ar    1  UNL1        0.0985
     41 C           8.5715   -7.3245   23.6764 C.ar    1  UNL1        0.0203
     42 C           7.7987   -7.2812   24.9614 C.ar    1  UNL1       -0.0015
     43 C           7.4811   -5.9623   25.6014 C.ar    1  UNL1       -0.0069
     44 C           6.7084   -5.9190   26.8864 C.3     1  UNL1        0.0323
@<TRIPOS>UNITY_ATOM_ATTR
35 1
charge -1
@<TRIPOS>BOND
     1    19    20    1
     2    20    13    1
     3    13    14   ar
     4    14    15   ar
     5    15     1    1
     6     1     2   am
     7     2     3    2
     8     2     4   am
     9     4    21    1
    10    21    22   ar
    11    22    23   ar
    12    23    24   ar
    13    24    27    1
    14    27    28   ar
    15    28    29   ar
    16    29    30   ar
    17    30    34    1
    18    34    35   ar
    19    34    36   ar
    20    30    31   ar
    21    31    32   ar
    22    32    33    1
    23    24    25   ar
    24    25    26   ar
    25     4     5   am
    26     5     6    2
    27     5     7    1
    28     7     8    1
    29     8     9    1
    30     9    10    1
    31    10    37    1
    32    37    38    1
    33    38    39   ar
    34    39    40   ar
    35    40    41   ar
    36    41    42   ar
    37    42    43   ar
    38    43    44    1
    39    10    11    1
    40    11    12    1
    41    15    16   ar
    42    16    17   ar
    43    17    18   ar
    44    18    13   ar
    45     7     1    1
    46    43    38   ar
    47    26    21   ar
    48    12     7    1
    49    32    27   ar
@<TRIPOS>MOLECULE
*****
 44 49 0 0 0
SMALL
GASTEIGER

@<TRIPOS>ATOM
      1 N           2.5044    1.2305   24.5363 N.am    1  UNL1       -0.2222
      2 C           2.2038    1.9668   25.8082 C.2     1  UNL1        0.3220
      3 O           1.5108    3.2926   25.9168 O.2     1  UNL1       -0.2512
      4 N           2.7180    1.1443   26.9525 N.am    1  UNL1       -0.1892
      5 C           3.3363   -0.1002   26.3878 C.2     1  UNL1        0.2529
      6 O           3.9746   -1.2042   27.1776 O.2     1  UNL1       -0.2724
      7 C           3.2043   -0.0470   24.8945 C.3     1  UNL1        0.1391
      8 C           3.0005    0.1446   23.4208 C.3     1  UNL1        0.0449
      9 C           3.4835   -0.8967   22.4553 C.3     1  UNL1        0.0746
     10 N           4.1703   -2.1296   22.9635 N.3     1  UNL1       -0.2676
     11 C           4.3741   -2.3212   24.4371 C.3     1  UNL1        0.0746
     12 C           3.8911   -1.2799   25.4026 C.3     1  UNL1        0.0449
     13 C           0.4317    1.9768   21.2352 C.ar    1  UNL1        0.2293
     14 C           0.7715    1.5164   22.6218 C.ar    1  UNL1        0.0924
     15 C           2.1646    1.6909   23.1497 C.ar    1  UNL1        0.1453
     16 N           3.2180    2.3257   22.2910 N.ar    1  UNL1       -0.2084
     17 C           2.8784    2.7861   20.9045 C.ar    1  UNL1        0.2027
     18 N           1.4851    2.6116   20.3766 N.ar    1  UNL1       -0.1892
     19 C          -1.8323    3.0020   20.4785 C.3     1  UNL1        0.2542
     20 O          -0.9614    1.8024   20.7073 O.3     1  UNL1       -0.4560
     21 C           2.6294    1.5033   28.4061 C.ar    1  UNL1        0.0813
     22 C           3.6436    2.4265   29.0138 C.ar    1  UNL1        0.0185
     23 C           3.5550    2.7856   30.4675 C.ar    1  UNL1        0.0204
     24 C           2.4523    2.2214   31.3135 C.ar    1  UNL1        0.0811
     25 N           1.4381    1.2982   30.7059 N.ar    1  UNL1       -0.2425
     26 C           1.5267    0.9392   29.2521 C.ar    1  UNL1        0.1141
     27 C           2.3637    2.5805   32.7672 C.ar    1  UNL1        0.0137
     28 C           1.6570    3.8348   33.1883 C.ar    1  UNL1        0.0012
     29 C           1.5685    4.1939   34.6420 C.ar    1  UNL1        0.0012
     30 C           2.1866    3.2985   35.6746 C.ar    1  UNL1        0.0137
     31 C           2.8933    2.0442   35.2536 C.ar    1  UNL1       -0.0031
     32 C           2.9819    1.6852   33.7999 C.ar    1  UNL1       -0.0204
     33 C           3.6886    0.4309   33.3789 C.3     1  UNL1        0.0311
     34 C           2.0980    3.6576   37.1283 C.2     1  UNL1        0.0729
     35 O           3.1247    4.5634   37.7410 O.co2   1  UNL1       -0.5446
     36 O           0.9827    3.1107   37.9693 O.co2   1  UNL1       -0.5446
     37 C           4.6534   -3.1710   21.9979 C.3     1  UNL1        0.1183
     38 C           5.3036   -2.7567   20.7112 C.ar    1  UNL1        0.0712
     39 N           6.4855   -1.8334   20.7314 N.ar    1  UNL1       -0.2471
     40 C           7.1357   -1.4191   19.4447 C.ar    1  UNL1        0.0985
     41 C           6.6040   -1.9281   18.1378 C.ar    1  UNL1        0.0203
     42 C           5.4220   -2.8515   18.1175 C.ar    1  UNL1       -0.0015
     43 C           4.7718   -3.2658   19.4042 C.ar    1  UNL1       -0.0069
     44 C           3.5899   -4.1891   19.3840 C.3     1  UNL1        0.0323
@<TRIPOS>UNITY_ATOM_ATTR
35 1
charge -1
@<TRIPOS>BOND
     1    19    20    1
     2    20    13    1
     3    13    14   ar
     4    14    15   ar
     5    15     1    1
     6     1     2   am
     7     2     3    2
     8     2     4   am
     9     4    21    1
    10    21    22   ar
    11    22    23   ar
    12    23    24   ar
    13    24    27    1
    14    27    28   ar
    15    28    29   ar
    16    29    30   ar
    17    30    34    1
    18    34    35   ar
    19    34    36   ar
    20    30    31   ar
    21    31    32   ar
    22    32    33    1
    23    24    25   ar
    24    25    26   ar
    25     4     5   am
    26     5     6    2
    27     5     7    1
    28     7     8    1
    29     8     9    1
    30     9    10    1
    31    10    37    1
    32    37    38    1
    33    38    39   ar
    34    39    40   ar
    35    40    41   ar
    36    41    42   ar
    37    42    43   ar
    38    43    44    1
    39    10    11    1
    40    11    12    1
    41    15    16   ar
    42    16    17   ar
    43    17    18   ar
    44    18    13   ar
    45     7     1    1
    46    43    38   ar
    47    26    21   ar
    48    12     7    1
    49    32    27   ar
@<TRIPOS>MOLECULE
*****
 44 49 0 0 0
SMALL
GASTEIGER

@<TRIPOS>ATOM
      1 N           6.0321   -2.5461   26.1866 N.am    1  UNL1       -0.2222
      2 C           5.9538   -2.0505   27.6003 C.2     1  UNL1        0.3220
      3 O           6.8604   -2.4506   28.7263 O.2     1  UNL1       -0.2512
      4 N           4.8098   -1.0844   27.6901 N.am    1  UNL1       -0.1892
      5 C           4.1810   -0.9831   26.3320 C.2     1  UNL1        0.2529
      6 O           3.0036   -0.1284   25.9671 O.2     1  UNL1       -0.2724
      7 C           4.9365   -1.8865   25.4028 C.3     1  UNL1        0.1391
      8 C           5.7825   -2.8267   24.5965 C.3     1  UNL1        0.0449
      9 C           5.4931   -3.0339   23.1393 C.3     1  UNL1        0.0746
     10 N           4.3576   -2.3010   22.4885 N.3     1  UNL1       -0.2676
     11 C           3.5116   -1.3608   23.2949 C.3     1  UNL1        0.0746
     12 C           3.8010   -1.1535   24.7520 C.3     1  UNL1        0.0449
     13 C           7.7696   -5.9843   25.2330 C.ar    1  UNL1        0.2293
     14 C           6.7710   -5.0016   25.7687 C.ar    1  UNL1        0.0924
     15 C           7.0307   -3.5289   25.6510 C.ar    1  UNL1        0.1453
     16 N           8.2889   -3.0391   24.9976 N.ar    1  UNL1       -0.2084
     17 C           9.2875   -4.0217   24.4619 C.ar    1  UNL1        0.2027
     18 N           9.0279   -5.4945   24.5796 N.ar    1  UNL1       -0.1892
     19 C           7.7225   -8.1535   26.6621 C.3     1  UNL1        0.2542
     20 O           7.5101   -7.4570   25.3507 O.3     1  UNL1       -0.4560
     21 C           4.3715   -0.3490   28.9216 C.ar    1  UNL1        0.0813
     22 C           5.2905    0.6441   29.5691 C.ar    1  UNL1        0.0185
     23 C           4.8522    1.3796   30.8007 C.ar    1  UNL1        0.0204
     24 C           3.4949    1.1221   31.3849 C.ar    1  UNL1        0.0811
     25 N           2.5757    0.1290   30.7374 N.ar    1  UNL1       -0.2425
     26 C           3.0142   -0.6065   29.5058 C.ar    1  UNL1        0.1141
     27 C           3.0565    1.8576   32.6166 C.ar    1  UNL1        0.0137
     28 C           3.4418    1.3456   33.9728 C.ar    1  UNL1        0.0012
     29 C           3.0035    2.0811   35.2045 C.ar    1  UNL1        0.0012
     30 C           2.1799    3.3286   35.0797 C.ar    1  UNL1        0.0137
     31 C           1.7946    3.8405   33.7235 C.ar    1  UNL1       -0.0031
     32 C           2.2329    3.1051   32.4919 C.ar    1  UNL1       -0.0204
     33 C           1.8476    3.6170   31.1356 C.3     1  UNL1        0.0311
     34 C           1.7416    4.0641   36.3114 C.2     1  UNL1        0.0729
     35 O           1.2867    3.2999   37.5193 O.co2   1  UNL1       -0.5446
     36 O           1.7581    5.5639   36.3351 O.co2   1  UNL1       -0.5446
     37 C           4.0682   -2.5083   21.0313 C.3     1  UNL1        0.1183
     38 C           3.4723   -1.3967   20.2195 C.ar    1  UNL1        0.0712
     39 N           1.9835   -1.2221   20.1655 N.ar    1  UNL1       -0.2471
     40 C           1.3876   -0.1104   19.3536 C.ar    1  UNL1        0.0985
     41 C           2.2805    0.8267   18.5957 C.ar    1  UNL1        0.0203
     42 C           3.7694    0.6521   18.6497 C.ar    1  UNL1       -0.0015
     43 C           4.3653   -0.4595   19.4615 C.ar    1  UNL1       -0.0069
     44 C           5.8541   -0.6340   19.5155 C.3     1  UNL1        0.0323
@<TRIPOS>UNITY_ATOM_ATTR
35 1
charge -1
@<TRIPOS>BOND
     1    19    20    1
     2    20    13    1
     3    13    14   ar
     4    14    15   ar
     5    15     1    1
     6     1     2   am
     7     2     3    2
     8     2     4   am
     9     4    21    1
    10    21    22   ar
    11    22    23   ar
    12    23    24   ar
    13    24    27    1
    14    27    28   ar
    15    28    29   ar
    16    29    30   ar
    17    30    34    1
    18    34    35   ar
    19    34    36   ar
    20    30    31   ar
    21    31    32   ar
    22    32    33    1
    23    24    25   ar
    24    25    26   ar
    25     4     5   am
    26     5     6    2
    27     5     7    1
    28     7     8    1
    29     8     9    1
    30     9    10    1
    31    10    37    1
    32    37    38    1
    33    38    39   ar
    34    39    40   ar
    35    40    41   ar
    36    41    42   ar
    37    42    43   ar
    38    43    44    1
    39    10    11    1
    40    11    12    1
    41    15    16   ar
    42    16    17   ar
    43    17    18   ar
    44    18    13   ar
    45     7     1    1
    46    43    38   ar
    47    26    21   ar
    48    12     7    1
    49    32    27   ar
