@<TRIPOS>MOLECULE
*****
 24 26 0 0 0
SMALL
GASTEIGER

@<TRIPOS>ATOM
      1 C          -5.8978  -15.8048   24.7397 C.ar    1  UNL1        0.1384
      2 C          -4.6497  -16.5330   24.3374 C.ar    1  UNL1        0.0369
      3 C          -4.6971  -17.5508   23.2366 C.ar    1  UNL1        0.0025
      4 C          -5.9925  -17.8403   22.5380 C.ar    1  UNL1       -0.0077
      5 C          -7.2406  -17.1120   22.9403 C.ar    1  UNL1       -0.0154
      6 C          -7.1932  -16.0943   24.0412 C.ar    1  UNL1        0.0329
      7 C          -8.3637  -17.6048   22.0766 C.3     1  UNL1        0.0481
      8 C          -7.8096  -18.6376   21.1405 C.2     1  UNL1       -0.0421
      9 C          -6.3442  -18.7831   21.4257 C.2     1  UNL1       -0.0246
     10 C          -6.5363  -15.0617   27.1460 C.3     1  UNL1        0.2525
     11 O          -5.8504  -14.7870   25.8406 O.3     1  UNL1       -0.4714
     12 C          -5.3967  -19.7090   20.7220 C.3     1  UNL1        0.0634
     13 C          -5.8333  -21.0987   20.3639 C.3     1  UNL1        0.0111
     14 C          -4.0128  -19.2452   20.3764 C.ar    1  UNL1        0.0818
     15 C          -2.8254  -19.8484   21.0666 C.ar    1  UNL1        0.1139
     16 N          -1.4413  -19.3846   20.7209 N.ar    1  UNL1       -0.2394
     17 C          -1.2447  -18.3176   19.6851 C.ar    1  UNL1        0.1195
     18 C          -2.4321  -17.7144   18.9949 C.ar    1  UNL1        0.1191
     19 N          -3.8161  -18.1783   19.3406 N.ar    1  UNL1       -0.2446
     20 C          -8.5849  -19.3924   20.1016 C.3     1  UNL1        0.0394
     21 C         -10.0033  -19.0094   19.7989 C.3     1  UNL1        0.0765
     22 N         -11.0417  -19.0632   20.8800 N.3     1  UNL1       -0.2700
     23 C         -11.0667  -20.2161   21.8392 C.3     1  UNL1        0.0897
     24 C         -12.0550  -17.9640   21.0018 C.3     1  UNL1        0.0897
@<TRIPOS>BOND
     1    10    11    1
     2    11     1    1
     3     1     2   ar
     4     2     3   ar
     5     3     4   ar
     6     4     5   ar
     7     5     6   ar
     8     5     7    1
     9     7     8    1
    10     8    20    1
    11    20    21    1
    12    21    22    1
    13    22    23    1
    14    22    24    1
    15     8     9    2
    16     9    12    1
    17    12    13    1
    18    12    14    1
    19    14    15   ar
    20    15    16   ar
    21    16    17   ar
    22    17    18   ar
    23    18    19   ar
    24     6     1   ar
    25    19    14   ar
    26     9     4    1
@<TRIPOS>MOLECULE
*****
 24 26 0 0 0
SMALL
GASTEIGER

@<TRIPOS>ATOM
      1 C          -4.0815  -19.7329   21.4123 C.ar    1  UNL1        0.1384
      2 C          -5.2471  -20.5583   20.9540 C.ar    1  UNL1        0.0369
      3 C          -6.6441  -20.1494   21.3160 C.ar    1  UNL1        0.0025
      4 C          -6.8756  -18.9152   22.1364 C.ar    1  UNL1       -0.0077
      5 C          -5.7100  -18.0898   22.5947 C.ar    1  UNL1       -0.0154
      6 C          -4.3129  -18.4987   22.2327 C.ar    1  UNL1        0.0329
      7 C          -6.2440  -16.9325   23.3857 C.3     1  UNL1        0.0481
      8 C          -7.7396  -17.0426   23.4162 C.2     1  UNL1       -0.0421
      9 C          -8.1299  -18.2680   22.6441 C.2     1  UNL1       -0.0246
     10 C          -1.7549  -19.1523   20.4124 C.3     1  UNL1        0.2525
     11 O          -2.6844  -20.1418   21.0502 O.3     1  UNL1       -0.4714
     12 C          -9.5290  -18.7599   22.4191 C.3     1  UNL1        0.0634
     13 C          -9.9423  -20.1069   22.9337 C.3     1  UNL1        0.0111
     14 C         -10.5149  -17.9048   21.6796 C.ar    1  UNL1        0.0818
     15 C         -11.9847  -18.1779   21.8019 C.ar    1  UNL1        0.1139
     16 N         -12.9706  -17.3227   21.0623 N.ar    1  UNL1       -0.2394
     17 C         -12.4865  -16.1945   20.2004 C.ar    1  UNL1        0.1195
     18 C         -11.0166  -15.9215   20.0781 C.ar    1  UNL1        0.1191
     19 N         -10.0309  -16.7766   20.8176 N.ar    1  UNL1       -0.2446
     20 C          -8.6799  -16.0940   24.0989 C.3     1  UNL1        0.0394
     21 C          -8.1587  -15.1258   25.1191 C.3     1  UNL1        0.0765
     22 N          -7.5410  -15.6336   26.3881 N.3     1  UNL1       -0.2700
     23 C          -8.3577  -16.4500   27.3455 C.3     1  UNL1        0.0897
     24 C          -6.1066  -15.3250   26.6998 C.3     1  UNL1        0.0897
@<TRIPOS>BOND
     1    10    11    1
     2    11     1    1
     3     1     2   ar
     4     2     3   ar
     5     3     4   ar
     6     4     5   ar
     7     5     6   ar
     8     5     7    1
     9     7     8    1
    10     8    20    1
    11    20    21    1
    12    21    22    1
    13    22    23    1
    14    22    24    1
    15     8     9    2
    16     9    12    1
    17    12    13    1
    18    12    14    1
    19    14    15   ar
    20    15    16   ar
    21    16    17   ar
    22    17    18   ar
    23    18    19   ar
    24     6     1   ar
    25    19    14   ar
    26     9     4    1
@<TRIPOS>MOLECULE
*****
 24 26 0 0 0
SMALL
GASTEIGER

@<TRIPOS>ATOM
      1 C          -3.3298  -19.3594   20.7087 C.ar    1  UNL1        0.1384
      2 C          -4.0975  -18.9240   19.4959 C.ar    1  UNL1        0.0369
      3 C          -5.5969  -18.9647   19.5028 C.ar    1  UNL1        0.0025
      4 C          -6.3287  -19.4409   20.7225 C.ar    1  UNL1       -0.0077
      5 C          -5.5609  -19.8764   21.9353 C.ar    1  UNL1       -0.0154
      6 C          -4.0615  -19.8356   21.9284 C.ar    1  UNL1        0.0329
      7 C          -6.5488  -20.2948   22.9837 C.3     1  UNL1        0.0481
      8 C          -7.9271  -20.1180   22.4188 C.2     1  UNL1       -0.0421
      9 C          -7.7910  -19.5903   21.0213 C.2     1  UNL1       -0.0246
     10 C          -1.1157  -18.0910   20.2200 C.3     1  UNL1        0.2525
     11 O          -1.8304  -19.3186   20.7018 O.3     1  UNL1       -0.4714
     12 C          -8.9192  -19.2684   20.0866 C.3     1  UNL1        0.0634
     13 C          -8.9971  -19.9378   18.7465 C.3     1  UNL1        0.0111
     14 C          -9.9694  -18.2771   20.4920 C.ar    1  UNL1        0.0818
     15 C         -11.4206  -18.6489   20.4165 C.ar    1  UNL1        0.1139
     16 N         -12.4709  -17.6575   20.8219 N.ar    1  UNL1       -0.2394
     17 C         -12.0698  -16.2944   21.3028 C.ar    1  UNL1        0.1195
     18 C         -10.6186  -15.9226   21.3782 C.ar    1  UNL1        0.1191
     19 N          -9.5684  -16.9140   20.9728 N.ar    1  UNL1       -0.2446
     20 C          -9.2153  -20.4165   23.1270 C.3     1  UNL1        0.0394
     21 C          -9.5295  -19.7407   24.4288 C.3     1  UNL1        0.0765
     22 N         -10.2766  -18.4400   24.4374 N.3     1  UNL1       -0.2700
     23 C          -9.5308  -17.1477   24.5917 C.3     1  UNL1        0.0897
     24 C         -11.7694  -18.4317   24.2918 C.3     1  UNL1        0.0897
@<TRIPOS>BOND
     1    10    11    1
     2    11     1    1
     3     1     2   ar
     4     2     3   ar
     5     3     4   ar
     6     4     5   ar
     7     5     6   ar
     8     5     7    1
     9     7     8    1
    10     8    20    1
    11    20    21    1
    12    21    22    1
    13    22    23    1
    14    22    24    1
    15     8     9    2
    16     9    12    1
    17    12    13    1
    18    12    14    1
    19    14    15   ar
    20    15    16   ar
    21    16    17   ar
    22    17    18   ar
    23    18    19   ar
    24     6     1   ar
    25    19    14   ar
    26     9     4    1
@<TRIPOS>MOLECULE
*****
 24 26 0 0 0
SMALL
GASTEIGER

@<TRIPOS>ATOM
      1 C           0.9428    1.2952   19.2299 C.ar    1  UNL1        0.1384
      2 C           0.6474    0.1531   20.1563 C.ar    1  UNL1        0.0369
      3 C           1.5952   -1.0062   20.2436 C.ar    1  UNL1        0.0025
      4 C           2.8384   -1.0234   19.4046 C.ar    1  UNL1       -0.0077
      5 C           3.1338    0.1188   18.4782 C.ar    1  UNL1       -0.0154
      6 C           2.1860    1.2781   18.3909 C.ar    1  UNL1        0.0329
      7 C           4.4283   -0.1742   17.7791 C.3     1  UNL1        0.0481
      8 C           4.9329   -1.4975   18.2735 C.2     1  UNL1       -0.0421
      9 C           3.9503   -2.0223   19.2781 C.2     1  UNL1       -0.0246
     10 C          -0.1706    3.1920   17.8470 C.3     1  UNL1        0.2525
     11 O          -0.0051    2.4545   19.1426 O.3     1  UNL1       -0.4714
     12 C           4.0602   -3.3184   20.0250 C.3     1  UNL1        0.0634
     13 C           3.4914   -4.5747   19.4349 C.3     1  UNL1        0.0111
     14 C           4.7390   -3.3583   21.3620 C.ar    1  UNL1        0.0818
     15 C           4.1750   -2.5793   22.5131 C.ar    1  UNL1        0.1139
     16 N           4.8539   -2.6193   23.8502 N.ar    1  UNL1       -0.2394
     17 C           6.0967   -3.4384   24.0361 C.ar    1  UNL1        0.1195
     18 C           6.6607   -4.2174   22.8850 C.ar    1  UNL1        0.1191
     19 N           5.9818   -4.1774   21.5480 N.ar    1  UNL1       -0.2446
     20 C           6.1979   -2.1767   17.8395 C.3     1  UNL1        0.0394
     21 C           7.4034   -2.1581   18.7320 C.3     1  UNL1        0.0765
     22 N           7.7315   -0.9271   19.5237 N.3     1  UNL1       -0.2700
     23 C           7.5696   -0.9292   21.0150 C.3     1  UNL1        0.0897
     24 C           8.2214    0.3060   18.8242 C.3     1  UNL1        0.0897
@<TRIPOS>BOND
     1    10    11    1
     2    11     1    1
     3     1     2   ar
     4     2     3   ar
     5     3     4   ar
     6     4     5   ar
     7     5     6   ar
     8     5     7    1
     9     7     8    1
    10     8    20    1
    11    20    21    1
    12    21    22    1
    13    22    23    1
    14    22    24    1
    15     8     9    2
    16     9    12    1
    17    12    13    1
    18    12    14    1
    19    14    15   ar
    20    15    16   ar
    21    16    17   ar
    22    17    18   ar
    23    18    19   ar
    24     6     1   ar
    25    19    14   ar
    26     9     4    1
@<TRIPOS>MOLECULE
*****
 24 26 0 0 0
SMALL
GASTEIGER

@<TRIPOS>ATOM
      1 C          -3.4833  -19.3397   21.8110 C.ar    1  UNL1        0.1384
      2 C          -4.7659  -19.7449   21.1471 C.ar    1  UNL1        0.0369
      3 C          -6.0334  -19.0012   21.4476 C.ar    1  UNL1        0.0025
      4 C          -6.0184  -17.8524   22.4119 C.ar    1  UNL1       -0.0077
      5 C          -4.7357  -17.4472   23.0758 C.ar    1  UNL1       -0.0154
      6 C          -3.4682  -18.1909   22.7753 C.ar    1  UNL1        0.0329
      7 C          -5.0271  -16.2828   23.9755 C.3     1  UNL1        0.0481
      8 C          -6.4898  -15.9684   23.8676 C.2     1  UNL1       -0.0421
      9 C          -7.1024  -16.9384   22.9013 C.2     1  UNL1       -0.0246
     10 C          -1.1498  -19.4410   20.6732 C.3     1  UNL1        0.2525
     11 O          -2.2157  -20.0834   21.5105 O.3     1  UNL1       -0.4714
     12 C          -8.5457  -16.9861   22.4956 C.3     1  UNL1        0.0634
     13 C          -9.0535  -16.0705   21.4214 C.3     1  UNL1        0.0111
     14 C          -9.4813  -17.9494   23.1640 C.ar    1  UNL1        0.0818
     15 C         -10.8799  -17.5250   23.5012 C.ar    1  UNL1        0.1139
     16 N         -11.8155  -18.4883   24.1697 N.ar    1  UNL1       -0.2394
     17 C         -11.3523  -19.8761   24.5009 C.ar    1  UNL1        0.1195
     18 C          -9.9537  -20.3005   24.1637 C.ar    1  UNL1        0.1191
     19 N          -9.0182  -19.3372   23.4953 N.ar    1  UNL1       -0.2446
     20 C          -7.2129  -14.8757   24.5979 C.3     1  UNL1        0.0394
     21 C          -8.2750  -15.2188   25.6000 C.3     1  UNL1        0.0765
     22 N          -7.9209  -16.0006   26.8302 N.3     1  UNL1       -0.2700
     23 C          -8.8236  -17.1002   27.3056 C.3     1  UNL1        0.0897
     24 C          -6.6642  -15.6828   27.5849 C.3     1  UNL1        0.0897
@<TRIPOS>BOND
     1    10    11    1
     2    11     1    1
     3     1     2   ar
     4     2     3   ar
     5     3     4   ar
     6     4     5   ar
     7     5     6   ar
     8     5     7    1
     9     7     8    1
    10     8    20    1
    11    20    21    1
    12    21    22    1
    13    22    23    1
    14    22    24    1
    15     8     9    2
    16     9    12    1
    17    12    13    1
    18    12    14    1
    19    14    15   ar
    20    15    16   ar
    21    16    17   ar
    22    17    18   ar
    23    18    19   ar
    24     6     1   ar
    25    19    14   ar
    26     9     4    1
@<TRIPOS>MOLECULE
*****
 24 26 0 0 0
SMALL
GASTEIGER

@<TRIPOS>ATOM
      1 C          -2.4132  -18.6706   21.5656 C.ar    1  UNL1        0.1384
      2 C          -3.2374  -19.8497   21.1407 C.ar    1  UNL1        0.0369
      3 C          -4.7003  -19.8993   21.4684 C.ar    1  UNL1        0.0025
      4 C          -5.3391  -18.7700   22.2210 C.ar    1  UNL1       -0.0077
      5 C          -4.5149  -17.5909   22.6459 C.ar    1  UNL1       -0.0154
      6 C          -3.0520  -17.5412   22.3182 C.ar    1  UNL1        0.0329
      7 C          -5.4143  -16.6336   23.3704 C.3     1  UNL1        0.0481
      8 C          -6.7942  -17.2211   23.3933 C.2     1  UNL1       -0.0421
      9 C          -6.7478  -18.5414   22.6829 C.2     1  UNL1       -0.0246
     10 C          -0.4637  -17.7638   20.1072 C.3     1  UNL1        0.2525
     11 O          -0.9503  -18.6209   21.2379 O.3     1  UNL1       -0.4714
     12 C          -7.9065  -19.4702   22.4716 C.3     1  UNL1        0.0634
     13 C          -8.3167  -20.4175   23.5599 C.3     1  UNL1        0.0111
     14 C          -8.6552  -19.4517   21.1719 C.ar    1  UNL1        0.0818
     15 C          -7.9046  -19.4777   19.8735 C.ar    1  UNL1        0.1139
     16 N          -8.6534  -19.4592   18.5738 N.ar    1  UNL1       -0.2394
     17 C         -10.1528  -19.4147   18.5727 C.ar    1  UNL1        0.1195
     18 C         -10.9034  -19.3887   19.8711 C.ar    1  UNL1        0.1191
     19 N         -10.1546  -19.4072   21.1707 N.ar    1  UNL1       -0.2446
     20 C          -8.0077  -16.5977   24.0170 C.3     1  UNL1        0.0394
     21 C          -9.1215  -16.0923   23.1487 C.3     1  UNL1        0.0765
     22 N         -10.4862  -16.7073   23.2456 N.3     1  UNL1       -0.2700
     23 C         -11.5973  -16.2089   22.3698 C.3     1  UNL1        0.0897
     24 C         -10.7397  -17.8206   24.2183 C.3     1  UNL1        0.0897
@<TRIPOS>BOND
     1    10    11    1
     2    11     1    1
     3     1     2   ar
     4     2     3   ar
     5     3     4   ar
     6     4     5   ar
     7     5     6   ar
     8     5     7    1
     9     7     8    1
    10     8    20    1
    11    20    21    1
    12    21    22    1
    13    22    23    1
    14    22    24    1
    15     8     9    2
    16     9    12    1
    17    12    13    1
    18    12    14    1
    19    14    15   ar
    20    15    16   ar
    21    16    17   ar
    22    17    18   ar
    23    18    19   ar
    24     6     1   ar
    25    19    14   ar
    26     9     4    1
@<TRIPOS>MOLECULE
*****
 24 26 0 0 0
SMALL
GASTEIGER

@<TRIPOS>ATOM
      1 C           3.6324   -0.4464   25.8514 C.ar    1  UNL1        0.1384
      2 C           2.8940    0.4864   24.9380 C.ar    1  UNL1        0.0369
      3 C           2.7947    0.1794   23.4731 C.ar    1  UNL1        0.0025
      4 C           3.4339   -1.0604   22.9216 C.ar    1  UNL1       -0.0077
      5 C           4.1723   -1.9933   23.8351 C.ar    1  UNL1       -0.0154
      6 C           4.2716   -1.6863   25.2999 C.ar    1  UNL1        0.0329
      7 C           4.6970   -3.1310   23.0102 C.3     1  UNL1        0.0481
      8 C           4.2829   -2.9013   21.5869 C.2     1  UNL1       -0.0421
      9 C           3.5022   -1.6216   21.5322 C.2     1  UNL1       -0.0246
     10 C           2.6403   -0.5736   28.2492 C.3     1  UNL1        0.2525
     11 O           3.7317   -0.1395   27.3163 O.3     1  UNL1       -0.4714
     12 C           2.8962   -1.0103   20.3038 C.3     1  UNL1        0.0634
     13 C           1.4066   -0.8755   20.1898 C.3     1  UNL1        0.0111
     14 C           3.7797   -0.5338   19.1892 C.ar    1  UNL1        0.0818
     15 C           3.7025   -1.1849   17.8401 C.ar    1  UNL1        0.1139
     16 N           4.5861   -0.7083   16.7256 N.ar    1  UNL1       -0.2394
     17 C           5.5469    0.4195   16.9601 C.ar    1  UNL1        0.1195
     18 C           5.6241    1.0706   18.3092 C.ar    1  UNL1        0.1191
     19 N           4.7405    0.5940   19.4237 N.ar    1  UNL1       -0.2446
     20 C           4.5946   -3.7944   20.4228 C.3     1  UNL1        0.0394
     21 C           5.8493   -3.5812   19.6289 C.3     1  UNL1        0.0765
     22 N           7.0929   -3.0904   20.3090 N.3     1  UNL1       -0.2700
     23 C           7.9227   -4.0347   21.1272 C.3     1  UNL1        0.0897
     24 C           7.5066   -1.6552   20.1708 C.3     1  UNL1        0.0897
@<TRIPOS>BOND
     1    10    11    1
     2    11     1    1
     3     1     2   ar
     4     2     3   ar
     5     3     4   ar
     6     4     5   ar
     7     5     6   ar
     8     5     7    1
     9     7     8    1
    10     8    20    1
    11    20    21    1
    12    21    22    1
    13    22    23    1
    14    22    24    1
    15     8     9    2
    16     9    12    1
    17    12    13    1
    18    12    14    1
    19    14    15   ar
    20    15    16   ar
    21    16    17   ar
    22    17    18   ar
    23    18    19   ar
    24     6     1   ar
    25    19    14   ar
    26     9     4    1
@<TRIPOS>MOLECULE
*****
 24 26 0 0 0
SMALL
GASTEIGER

@<TRIPOS>ATOM
      1 C           3.6284   -0.9242   25.2096 C.ar    1  UNL1        0.1384
      2 C           4.4950   -2.0487   24.7254 C.ar    1  UNL1        0.0369
      3 C           4.5139   -2.4075   23.2691 C.ar    1  UNL1        0.0025
      4 C           3.6662   -1.6418   22.2969 C.ar    1  UNL1       -0.0077
      5 C           2.7996   -0.5173   22.7811 C.ar    1  UNL1       -0.0154
      6 C           2.7807   -0.1585   24.2375 C.ar    1  UNL1        0.0329
      7 C           2.0767    0.0537   21.5973 C.3     1  UNL1        0.0481
      8 C           2.4965   -0.7180   20.3815 C.2     1  UNL1       -0.0421
      9 C           3.4789   -1.7658   20.8139 C.2     1  UNL1       -0.0246
     10 C           4.2713   -1.4638   27.6684 C.3     1  UNL1        0.2525
     11 O           3.6095   -0.5654   26.6659 O.3     1  UNL1       -0.4714
     12 C           4.1553   -2.7627   19.9201 C.3     1  UNL1        0.0634
     13 C           3.3704   -3.8991   19.3349 C.3     1  UNL1        0.0111
     14 C           5.6165   -2.6232   19.6115 C.ar    1  UNL1        0.0818
     15 C           6.0578   -1.8468   18.4063 C.ar    1  UNL1        0.1139
     16 N           7.5192   -1.7074   18.0978 N.ar    1  UNL1       -0.2394
     17 C           8.5391   -2.3443   18.9944 C.ar    1  UNL1        0.1195
     18 C           8.0978   -3.1207   20.1996 C.ar    1  UNL1        0.1191
     19 N           6.6366   -3.2601   20.5081 N.ar    1  UNL1       -0.2446
     20 C           2.0180   -0.4831   18.9793 C.3     1  UNL1        0.0394
     21 C           2.9238    0.1688   17.9771 C.3     1  UNL1        0.0765
     22 N           3.5050    1.5224   18.2602 N.3     1  UNL1       -0.2700
     23 C           4.9868    1.7364   18.1691 C.3     1  UNL1        0.0897
     24 C           2.6042    2.6619   18.6344 C.3     1  UNL1        0.0897
@<TRIPOS>BOND
     1    10    11    1
     2    11     1    1
     3     1     2   ar
     4     2     3   ar
     5     3     4   ar
     6     4     5   ar
     7     5     6   ar
     8     5     7    1
     9     7     8    1
    10     8    20    1
    11    20    21    1
    12    21    22    1
    13    22    23    1
    14    22    24    1
    15     8     9    2
    16     9    12    1
    17    12    13    1
    18    12    14    1
    19    14    15   ar
    20    15    16   ar
    21    16    17   ar
    22    17    18   ar
    23    18    19   ar
    24     6     1   ar
    25    19    14   ar
    26     9     4    1
@<TRIPOS>MOLECULE
*****
 24 26 0 0 0
SMALL
GASTEIGER

@<TRIPOS>ATOM
      1 C           1.6920    0.8510   23.7323 C.ar    1  UNL1        0.1384
      2 C           1.4250    0.8599   22.2563 C.ar    1  UNL1        0.0369
      3 C           2.1370   -0.1090   21.3595 C.ar    1  UNL1        0.0025
      4 C           3.1160   -1.0868   21.9387 C.ar    1  UNL1       -0.0077
      5 C           3.3830   -1.0957   23.4147 C.ar    1  UNL1       -0.0154
      6 C           2.6710   -0.1268   24.3115 C.ar    1  UNL1        0.0329
      7 C           4.3941   -2.1674   23.6965 C.3     1  UNL1        0.0481
      8 C           4.7519   -2.8208   22.3946 C.2     1  UNL1       -0.0421
      9 C           3.9620   -2.1530   21.3082 C.2     1  UNL1       -0.0246
     10 C          -0.1529    1.3495   25.4923 C.3     1  UNL1        0.2525
     11 O           0.9801    1.8199   24.6291 O.3     1  UNL1       -0.4714
     12 C           4.0097   -2.4919   19.8478 C.3     1  UNL1        0.0634
     13 C           3.2831   -3.6993   19.3339 C.3     1  UNL1        0.0111
     14 C           4.7841   -1.6234   18.9012 C.ar    1  UNL1        0.0818
     15 C           6.0326   -2.1459   18.2546 C.ar    1  UNL1        0.1139
     16 N           6.8070   -1.2772   17.3079 N.ar    1  UNL1       -0.2394
     17 C           6.3327    0.1139   17.0080 C.ar    1  UNL1        0.1195
     18 C           5.0842    0.6364   17.6546 C.ar    1  UNL1        0.1191
     19 N           4.3099   -0.2322   18.6012 N.ar    1  UNL1       -0.2446
     20 C           5.7282   -3.9448   22.2111 C.3     1  UNL1        0.0394
     21 C           7.0570   -3.9048   22.9058 C.3     1  UNL1        0.0765
     22 N           7.3417   -4.8501   24.0352 N.3     1  UNL1       -0.2700
     23 C           8.1602   -6.0835   23.7927 C.3     1  UNL1        0.0897
     24 C           6.8079   -4.5619   25.4070 C.3     1  UNL1        0.0897
@<TRIPOS>BOND
     1    10    11    1
     2    11     1    1
     3     1     2   ar
     4     2     3   ar
     5     3     4   ar
     6     4     5   ar
     7     5     6   ar
     8     5     7    1
     9     7     8    1
    10     8    20    1
    11    20    21    1
    12    21    22    1
    13    22    23    1
    14    22    24    1
    15     8     9    2
    16     9    12    1
    17    12    13    1
    18    12    14    1
    19    14    15   ar
    20    15    16   ar
    21    16    17   ar
    22    17    18   ar
    23    18    19   ar
    24     6     1   ar
    25    19    14   ar
    26     9     4    1
