@<TRIPOS>MOLECULE
*****
 27 30 0 0 0
SMALL
GASTEIGER

@<TRIPOS>ATOM
      1 C          -6.6678  -16.4884   23.9382 C.ar    1  UNL1        0.0926
      2 C          -7.8910  -17.0338   23.2625 C.ar    1  UNL1        0.0467
      3 C          -9.2197  -16.9756   23.9560 C.ar    1  UNL1        0.1648
      4 C          -9.3254  -16.3720   25.3252 C.ar    1  UNL1        0.1395
      5 N          -8.1022  -15.8267   26.0008 N.ar    1  UNL1       -0.2060
      6 N          -7.8993  -15.1779   27.3379 N.ar    1  UNL1       -0.1408
      7 C          -6.4451  -14.8351   27.4708 C.ar    1  UNL1        0.2213
      8 N          -5.7492  -15.2720   26.2158 N.ar    1  UNL1       -0.2033
      9 C          -6.7735  -15.8849   25.3073 C.ar    1  UNL1        0.1702
     10 O          -4.4883  -15.3148   23.1491 O.2     1  UNL1       -0.2697
     11 C          -5.3390  -16.5466   23.2447 C.2     1  UNL1        0.2536
     12 N          -4.8610  -17.8365   22.6467 N.am    1  UNL1       -0.2657
     13 H          -5.4193  -18.6450   22.7094 H       1  UNL1        0.1566
     14 C          -3.5321  -17.8947   21.9532 C.ar    1  UNL1        0.1345
     15 C          -2.9145  -19.2218   21.6258 C.ar    1  UNL1        0.0368
     16 C          -1.5857  -19.2800   20.9323 C.ar    1  UNL1        0.0341
     17 C          -0.8745  -18.0111   20.5662 C.ar    1  UNL1        0.1593
     18 F           0.4542  -18.0692   19.8728 F       1  UNL1       -0.2025
     19 C          -1.4923  -16.6839   20.8937 C.ar    1  UNL1        0.1298
     20 N          -2.8210  -16.6257   21.5871 N.ar    1  UNL1       -0.2267
     21 O         -10.4429  -17.5209   23.2803 O.3     1  UNL1       -0.4488
     22 C         -10.9322  -16.9044   22.0034 C.ar    1  UNL1        0.1835
     23 C         -10.0038  -16.0739   21.1676 C.ar    1  UNL1        0.1396
     24 N         -10.4931  -15.4574   19.8907 N.ar    1  UNL1       -0.2192
     25 C         -11.9107  -15.6713   19.4495 C.ar    1  UNL1        0.1991
     26 N         -12.8390  -16.5018   20.2853 N.ar    1  UNL1       -0.2192
     27 C         -12.3498  -17.1183   21.5622 C.ar    1  UNL1        0.1396
@<TRIPOS>BOND
     1    10    11    2
     2    11    12   am
     3    12    14    1
     4    14    15   ar
     5    15    16   ar
     6    16    17   ar
     7    17    18    1
     8    17    19   ar
     9    19    20   ar
    10    11     1    1
    11     1     2   ar
    12     2     3   ar
    13     3    21    1
    14    21    22    1
    15    22    23   ar
    16    23    24   ar
    17    24    25   ar
    18    25    26   ar
    19    26    27   ar
    20     3     4   ar
    21     4     5   ar
    22     5     6   ar
    23     6     7   ar
    24     7     8   ar
    25     8     9   ar
    26    20    14   ar
    27     9     1   ar
    28    27    22   ar
    29     9     5   ar
    30    12    13    1
@<TRIPOS>MOLECULE
*****
 27 30 0 0 0
SMALL
GASTEIGER

@<TRIPOS>ATOM
      1 C          -7.1452  -18.0182   22.8825 C.ar    1  UNL1        0.0926
      2 C          -6.2337  -18.9438   22.1326 C.ar    1  UNL1        0.0467
      3 C          -4.7560  -18.6874   22.1119 C.ar    1  UNL1        0.1648
      4 C          -4.1896  -17.5052   22.8411 C.ar    1  UNL1        0.1395
      5 N          -5.1011  -16.5795   23.5910 N.ar    1  UNL1       -0.2060
      6 N          -4.8339  -15.3429   24.3968 N.ar    1  UNL1       -0.1408
      7 C          -6.1466  -14.8351   24.9155 C.ar    1  UNL1        0.2213
      8 N          -7.2250  -15.7579   24.4303 N.ar    1  UNL1       -0.2033
      9 C          -6.5789  -16.8361   23.6117 C.ar    1  UNL1        0.1702
     10 O          -9.2114  -19.3409   22.0273 O.2     1  UNL1       -0.2697
     11 C          -8.6229  -18.2747   22.9032 C.2     1  UNL1        0.2536
     12 N          -9.5122  -17.4652   23.7997 N.am    1  UNL1       -0.2657
     13 H          -9.1260  -16.7654   24.3746 H       1  UNL1        0.1566
     14 C         -10.9900  -17.7218   23.8203 C.ar    1  UNL1        0.1345
     15 C         -11.8750  -17.0922   22.7857 C.ar    1  UNL1        0.0368
     16 C         -13.3527  -17.3488   22.8062 C.ar    1  UNL1        0.0341
     17 C         -13.9455  -18.2349   23.8614 C.ar    1  UNL1        0.1593
     18 F         -15.4232  -18.4914   23.8820 F       1  UNL1       -0.2025
     19 C         -13.0604  -18.8644   24.8961 C.ar    1  UNL1        0.1298
     20 N         -11.5828  -18.6079   24.8755 N.ar    1  UNL1       -0.2267
     21 O          -3.8445  -19.6131   21.3619 O.3     1  UNL1       -0.4488
     22 C          -2.6671  -19.0625   20.6132 C.ar    1  UNL1        0.1835
     23 C          -1.3406  -18.9227   21.2994 C.ar    1  UNL1        0.1396
     24 N          -0.1632  -18.3721   20.5508 N.ar    1  UNL1       -0.2192
     25 C          -0.3122  -17.9613   19.1158 C.ar    1  UNL1        0.1991
     26 N          -1.6387  -18.1010   18.4296 N.ar    1  UNL1       -0.2192
     27 C          -2.8161  -18.6516   19.1783 C.ar    1  UNL1        0.1396
@<TRIPOS>BOND
     1    10    11    2
     2    11    12   am
     3    12    14    1
     4    14    15   ar
     5    15    16   ar
     6    16    17   ar
     7    17    18    1
     8    17    19   ar
     9    19    20   ar
    10    11     1    1
    11     1     2   ar
    12     2     3   ar
    13     3    21    1
    14    21    22    1
    15    22    23   ar
    16    23    24   ar
    17    24    25   ar
    18    25    26   ar
    19    26    27   ar
    20     3     4   ar
    21     4     5   ar
    22     5     6   ar
    23     6     7   ar
    24     7     8   ar
    25     8     9   ar
    26    20    14   ar
    27     9     1   ar
    28    27    22   ar
    29     9     5   ar
    30    12    13    1
@<TRIPOS>MOLECULE
*****
 27 30 0 0 0
SMALL
GASTEIGER

@<TRIPOS>ATOM
      1 C          -7.5340  -18.7199   21.2801 C.ar    1  UNL1        0.0926
      2 C          -8.2521  -18.0800   22.4310 C.ar    1  UNL1        0.0467
      3 C          -9.7508  -18.1053   22.4874 C.ar    1  UNL1        0.1648
      4 C         -10.5314  -18.7706   21.3928 C.ar    1  UNL1        0.1395
      5 N          -9.8133  -19.4106   20.2419 N.ar    1  UNL1       -0.2060
      6 N         -10.3107  -20.1351   19.0263 N.ar    1  UNL1       -0.1408
      7 C          -9.1194  -20.5576   18.2187 C.ar    1  UNL1        0.2213
      8 N          -7.8857  -20.0941   18.9351 N.ar    1  UNL1       -0.2033
      9 C          -8.3145  -19.3852   20.1855 C.ar    1  UNL1        0.1702
     10 O          -5.2355  -18.7779   22.4901 O.2     1  UNL1       -0.2697
     11 C          -6.0352  -18.6946   21.2237 C.2     1  UNL1        0.2536
     12 N          -5.3362  -18.5859   19.9010 N.am    1  UNL1       -0.2657
     13 H          -5.8610  -18.5312   19.0699 H       1  UNL1        0.1566
     14 C          -3.8374  -18.5605   19.8448 C.ar    1  UNL1        0.1345
     15 C          -3.0410  -19.5769   20.6080 C.ar    1  UNL1        0.0368
     16 C          -1.5423  -19.5517   20.5518 C.ar    1  UNL1        0.0341
     17 C          -0.8399  -18.5100   19.7323 C.ar    1  UNL1        0.1593
     18 F           0.6587  -18.4847   19.6761 F       1  UNL1       -0.2025
     19 C          -1.6364  -17.4935   18.9690 C.ar    1  UNL1        0.1298
     20 N          -3.1351  -17.5188   19.0253 N.ar    1  UNL1       -0.2267
     21 O         -10.4690  -17.4653   23.6384 O.3     1  UNL1       -0.4488
     22 C          -9.6983  -17.0016   24.8389 C.ar    1  UNL1        0.1835
     23 C          -9.0982  -15.6271   24.8598 C.ar    1  UNL1        0.1396
     24 N          -8.3275  -15.1634   26.0603 N.ar    1  UNL1       -0.2192
     25 C          -8.1571  -16.0742   27.2398 C.ar    1  UNL1        0.1991
     26 N          -8.7572  -17.4487   27.2189 N.ar    1  UNL1       -0.2192
     27 C          -9.5279  -17.9124   26.0184 C.ar    1  UNL1        0.1396
@<TRIPOS>BOND
     1    10    11    2
     2    11    12   am
     3    12    14    1
     4    14    15   ar
     5    15    16   ar
     6    16    17   ar
     7    17    18    1
     8    17    19   ar
     9    19    20   ar
    10    11     1    1
    11     1     2   ar
    12     2     3   ar
    13     3    21    1
    14    21    22    1
    15    22    23   ar
    16    23    24   ar
    17    24    25   ar
    18    25    26   ar
    19    26    27   ar
    20     3     4   ar
    21     4     5   ar
    22     5     6   ar
    23     6     7   ar
    24     7     8   ar
    25     8     9   ar
    26    20    14   ar
    27     9     1   ar
    28    27    22   ar
    29     9     5   ar
    30    12    13    1
@<TRIPOS>MOLECULE
*****
 27 30 0 0 0
SMALL
GASTEIGER

@<TRIPOS>ATOM
      1 C          -7.6842  -18.3089   21.6066 C.ar    1  UNL1        0.0926
      2 C          -7.9441  -17.6350   22.9213 C.ar    1  UNL1        0.0467
      3 C          -9.3416  -17.5564   23.4604 C.ar    1  UNL1        0.1648
      4 C         -10.4793  -18.1518   22.6849 C.ar    1  UNL1        0.1395
      5 N         -10.2194  -18.8256   21.3703 N.ar    1  UNL1       -0.2060
      6 N         -11.1332  -19.4982   20.3892 N.ar    1  UNL1       -0.1408
      7 C         -10.3004  -19.9925   19.2437 C.ar    1  UNL1        0.2213
      8 N          -8.8719  -19.6254   19.5168 N.ar    1  UNL1       -0.2033
      9 C          -8.8218  -18.9042   20.8311 C.ar    1  UNL1        0.1702
     10 O          -6.0594  -18.6498   19.6081 O.2     1  UNL1       -0.2697
     11 C          -6.2866  -18.3874   21.0675 C.2     1  UNL1        0.2536
     12 N          -5.1164  -18.2036   21.9876 N.am    1  UNL1       -0.2657
     13 H          -5.2655  -18.0314   22.9454 H       1  UNL1        0.1566
     14 C          -3.7188  -18.2822   21.4483 C.ar    1  UNL1        0.1345
     15 C          -3.0996  -19.6180   21.1616 C.ar    1  UNL1        0.0368
     16 C          -1.7021  -19.6967   20.6224 C.ar    1  UNL1        0.0341
     17 C          -0.9238  -18.4395   20.3699 C.ar    1  UNL1        0.1593
     18 F           0.4737  -18.5182   19.8307 F       1  UNL1       -0.2025
     19 C          -1.5430  -17.1037   20.6566 C.ar    1  UNL1        0.1298
     20 N          -2.9405  -17.0251   21.1958 N.ar    1  UNL1       -0.2267
     21 O          -9.6015  -16.8825   24.7751 O.3     1  UNL1       -0.4488
     22 C          -8.4697  -16.2533   25.5321 C.ar    1  UNL1        0.1835
     23 C          -8.2795  -16.5591   26.9882 C.ar    1  UNL1        0.1396
     24 N          -7.1476  -15.9299   27.7451 N.ar    1  UNL1       -0.2192
     25 C          -6.2060  -14.9948   27.0460 C.ar    1  UNL1        0.1991
     26 N          -6.3962  -14.6889   25.5899 N.ar    1  UNL1       -0.2192
     27 C          -7.5280  -15.3182   24.8329 C.ar    1  UNL1        0.1396
@<TRIPOS>BOND
     1    10    11    2
     2    11    12   am
     3    12    14    1
     4    14    15   ar
     5    15    16   ar
     6    16    17   ar
     7    17    18    1
     8    17    19   ar
     9    19    20   ar
    10    11     1    1
    11     1     2   ar
    12     2     3   ar
    13     3    21    1
    14    21    22    1
    15    22    23   ar
    16    23    24   ar
    17    24    25   ar
    18    25    26   ar
    19    26    27   ar
    20     3     4   ar
    21     4     5   ar
    22     5     6   ar
    23     6     7   ar
    24     7     8   ar
    25     8     9   ar
    26    20    14   ar
    27     9     1   ar
    28    27    22   ar
    29     9     5   ar
    30    12    13    1
@<TRIPOS>MOLECULE
*****
 27 30 0 0 0
SMALL
GASTEIGER

@<TRIPOS>ATOM
      1 C           2.9296    0.9825   32.8859 C.ar    1  UNL1        0.0926
      2 C           2.9377    1.8416   34.1155 C.ar    1  UNL1        0.0467
      3 C           3.8259    1.4884   35.2714 C.ar    1  UNL1        0.1648
      4 C           4.7062    0.2760   35.1978 C.ar    1  UNL1        0.1395
      5 N           4.6981   -0.5831   33.9682 N.ar    1  UNL1       -0.2060
      6 N           5.4515   -1.8297   33.6098 N.ar    1  UNL1       -0.1408
      7 C           5.0289   -2.2468   32.2324 C.ar    1  UNL1        0.2213
      8 N           4.0142   -1.2581   31.7394 N.ar    1  UNL1       -0.2033
      9 C           3.8098   -0.2298   32.8123 C.ar    1  UNL1        0.1702
     10 O           0.9788    2.3821   31.8930 O.2     1  UNL1       -0.2697
     11 C           2.0413    1.3358   31.7300 C.2     1  UNL1        0.2536
     12 N           2.2154    0.6428   30.4111 N.am    1  UNL1       -0.2657
     13 H           2.9127   -0.0439   30.3042 H       1  UNL1        0.1566
     14 C           1.3271    0.9961   29.2553 C.ar    1  UNL1        0.1345
     15 C          -0.0200    0.3503   29.1199 C.ar    1  UNL1        0.0368
     16 C          -0.9084    0.7035   27.9641 C.ar    1  UNL1        0.0341
     17 C          -0.4498    1.7027   26.9436 C.ar    1  UNL1        0.1593
     18 F          -1.3381    2.0560   25.7878 F       1  UNL1       -0.2025
     19 C           0.8973    2.3486   27.0790 C.ar    1  UNL1        0.1298
     20 N           1.7857    1.9953   28.2348 N.ar    1  UNL1       -0.2267
     21 O           3.8340    2.3475   36.5010 O.3     1  UNL1       -0.4488
     22 C           2.7890    2.1522   37.5593 C.ar    1  UNL1        0.1835
     23 C           2.9110    1.0183   38.5336 C.ar    1  UNL1        0.1396
     24 N           1.8660    0.8230   39.5918 N.ar    1  UNL1       -0.2192
     25 C           0.6990    1.7616   39.6757 C.ar    1  UNL1        0.1991
     26 N           0.5770    2.8955   38.7014 N.ar    1  UNL1       -0.2192
     27 C           1.6220    3.0908   37.6432 C.ar    1  UNL1        0.1396
@<TRIPOS>BOND
     1    10    11    2
     2    11    12   am
     3    12    14    1
     4    14    15   ar
     5    15    16   ar
     6    16    17   ar
     7    17    18    1
     8    17    19   ar
     9    19    20   ar
    10    11     1    1
    11     1     2   ar
    12     2     3   ar
    13     3    21    1
    14    21    22    1
    15    22    23   ar
    16    23    24   ar
    17    24    25   ar
    18    25    26   ar
    19    26    27   ar
    20     3     4   ar
    21     4     5   ar
    22     5     6   ar
    23     6     7   ar
    24     7     8   ar
    25     8     9   ar
    26    20    14   ar
    27     9     1   ar
    28    27    22   ar
    29     9     5   ar
    30    12    13    1
@<TRIPOS>MOLECULE
*****
 27 30 0 0 0
SMALL
GASTEIGER

@<TRIPOS>ATOM
      1 C          -6.8642  -16.1527   23.8467 C.ar    1  UNL1        0.0926
      2 C          -5.5353  -16.7059   23.4252 C.ar    1  UNL1        0.0467
      3 C          -4.4498  -16.9059   24.4409 C.ar    1  UNL1        0.1648
      4 C          -4.6933  -16.5527   25.8783 C.ar    1  UNL1        0.1395
      5 N          -6.0223  -15.9995   26.2998 N.ar    1  UNL1       -0.2060
      6 N          -6.5503  -15.5636   27.6344 N.ar    1  UNL1       -0.1408
      7 C          -7.9621  -15.0941   27.4435 C.ar    1  UNL1        0.2213
      8 N          -8.3066  -15.2399   25.9909 N.ar    1  UNL1       -0.2033
      9 C          -7.1078  -15.7995   25.2841 C.ar    1  UNL1        0.1702
     10 O          -7.6796  -15.1499   21.5929 O.2     1  UNL1       -0.2697
     11 C          -7.9497  -15.9527   22.8310 C.2     1  UNL1        0.2536
     12 N          -9.3051  -16.5554   23.0532 N.am    1  UNL1       -0.2657
     13 H          -9.4824  -17.0823   23.8657 H       1  UNL1        0.1566
     14 C         -10.3906  -16.3554   22.0373 C.ar    1  UNL1        0.1345
     15 C         -11.8107  -16.6951   22.3805 C.ar    1  UNL1        0.0368
     16 C         -12.8962  -16.4950   21.3647 C.ar    1  UNL1        0.0341
     17 C         -12.5615  -15.9553   20.0058 C.ar    1  UNL1        0.1593
     18 F         -13.6469  -15.7553   18.9901 F       1  UNL1       -0.2025
     19 C         -11.1412  -15.6156   19.6627 C.ar    1  UNL1        0.1298
     20 N         -10.0559  -15.8156   20.6784 N.ar    1  UNL1       -0.2267
     21 O          -3.1208  -17.4592   24.0193 O.3     1  UNL1       -0.4488
     22 C          -2.8507  -17.7400   22.5708 C.ar    1  UNL1        0.1835
     23 C          -3.0594  -19.1206   22.0228 C.ar    1  UNL1        0.1396
     24 N          -2.7893  -19.4014   20.5743 N.ar    1  UNL1       -0.2192
     25 C          -2.3104  -18.3016   19.6737 C.ar    1  UNL1        0.1991
     26 N          -2.1017  -16.9210   20.2217 N.ar    1  UNL1       -0.2192
     27 C          -2.3718  -16.6402   21.6702 C.ar    1  UNL1        0.1396
@<TRIPOS>BOND
     1    10    11    2
     2    11    12   am
     3    12    14    1
     4    14    15   ar
     5    15    16   ar
     6    16    17   ar
     7    17    18    1
     8    17    19   ar
     9    19    20   ar
    10    11     1    1
    11     1     2   ar
    12     2     3   ar
    13     3    21    1
    14    21    22    1
    15    22    23   ar
    16    23    24   ar
    17    24    25   ar
    18    25    26   ar
    19    26    27   ar
    20     3     4   ar
    21     4     5   ar
    22     5     6   ar
    23     6     7   ar
    24     7     8   ar
    25     8     9   ar
    26    20    14   ar
    27     9     1   ar
    28    27    22   ar
    29     9     5   ar
    30    12    13    1
@<TRIPOS>MOLECULE
*****
 27 30 0 0 0
SMALL
GASTEIGER

@<TRIPOS>ATOM
      1 C          -7.4904  -16.1417   23.8844 C.ar    1  UNL1        0.0926
      2 C          -6.2137  -16.2003   23.0991 C.ar    1  UNL1        0.0467
      3 C          -4.9090  -15.8741   23.7633 C.ar    1  UNL1        0.1648
      4 C          -4.8809  -15.4893   25.2129 C.ar    1  UNL1        0.1395
      5 N          -6.1576  -15.4307   25.9982 N.ar    1  UNL1       -0.2060
      6 N          -6.4400  -15.0864   27.4305 N.ar    1  UNL1       -0.1408
      7 C          -7.9193  -15.1998   27.6515 C.ar    1  UNL1        0.2213
      8 N          -8.5511  -15.6142   26.3557 N.ar    1  UNL1       -0.2033
      9 C          -7.4623  -15.7569   25.3339 C.ar    1  UNL1        0.1702
     10 O          -9.0211  -16.0917   21.7856 O.2     1  UNL1       -0.2697
     11 C          -8.7951  -16.4679   23.2201 C.2     1  UNL1        0.2536
     12 N          -9.8738  -17.1702   23.9901 N.am    1  UNL1       -0.2657
     13 H          -9.7255  -17.4171   24.9316 H       1  UNL1        0.1566
     14 C         -11.1786  -17.4964   23.3258 C.ar    1  UNL1        0.1345
     15 C         -12.3584  -17.9120   24.1536 C.ar    1  UNL1        0.0368
     16 C         -13.6631  -18.2382   23.4893 C.ar    1  UNL1        0.0341
     17 C         -13.7881  -18.1488   21.9972 C.ar    1  UNL1        0.1593
     18 F         -15.0927  -18.4749   21.3329 F       1  UNL1       -0.2025
     19 C         -12.6082  -17.7331   21.1694 C.ar    1  UNL1        0.1298
     20 N         -11.3035  -17.4070   21.8337 N.ar    1  UNL1       -0.2267
     21 O          -3.6323  -15.9327   22.9780 O.3     1  UNL1       -0.4488
     22 C          -3.1678  -17.2357   22.3978 C.ar    1  UNL1        0.1835
     23 C          -1.9856  -17.2668   21.4751 C.ar    1  UNL1        0.1396
     24 N          -1.5211  -18.5697   20.8948 N.ar    1  UNL1       -0.2192
     25 C          -2.2389  -19.8415   21.2372 C.ar    1  UNL1        0.1991
     26 N          -3.4212  -19.8104   22.1599 N.ar    1  UNL1       -0.2192
     27 C          -3.8856  -18.5075   22.7401 C.ar    1  UNL1        0.1396
@<TRIPOS>BOND
     1    10    11    2
     2    11    12   am
     3    12    14    1
     4    14    15   ar
     5    15    16   ar
     6    16    17   ar
     7    17    18    1
     8    17    19   ar
     9    19    20   ar
    10    11     1    1
    11     1     2   ar
    12     2     3   ar
    13     3    21    1
    14    21    22    1
    15    22    23   ar
    16    23    24   ar
    17    24    25   ar
    18    25    26   ar
    19    26    27   ar
    20     3     4   ar
    21     4     5   ar
    22     5     6   ar
    23     6     7   ar
    24     7     8   ar
    25     8     9   ar
    26    20    14   ar
    27     9     1   ar
    28    27    22   ar
    29     9     5   ar
    30    12    13    1
@<TRIPOS>MOLECULE
*****
 27 30 0 0 0
SMALL
GASTEIGER

@<TRIPOS>ATOM
      1 C         -15.8609   -4.4575   18.6099 C.ar    1  UNL1        0.0926
      2 C         -16.6937   -5.7003   18.7183 C.ar    1  UNL1        0.0467
      3 C         -18.0572   -5.6377   19.3401 C.ar    1  UNL1        0.1648
      4 C         -18.5881   -4.3321   19.8537 C.ar    1  UNL1        0.1395
      5 N         -17.7553   -3.0892   19.7453 N.ar    1  UNL1       -0.2060
      6 N         -18.0109   -1.6705   20.1599 N.ar    1  UNL1       -0.1408
      7 C         -16.8053   -0.8564   19.7942 C.ar    1  UNL1        0.2213
      8 N         -15.8046   -1.7719   19.1536 N.ar    1  UNL1       -0.2033
      9 C         -16.3917   -3.1519   19.1234 C.ar    1  UNL1        0.1702
     10 O         -14.2489   -5.4209   16.8144 O.2     1  UNL1       -0.2697
     11 C         -14.4973   -4.5202   17.9880 C.2     1  UNL1        0.2536
     12 N         -13.3822   -3.6823   18.5396 N.am    1  UNL1       -0.2657
     13 H         -13.5452   -3.0911   19.3098 H       1  UNL1        0.1566
     14 C         -12.0186   -3.7450   17.9177 C.ar    1  UNL1        0.1345
     15 C         -11.0634   -4.8320   18.3128 C.ar    1  UNL1        0.0368
     16 C          -9.6999   -4.8949   17.6909 C.ar    1  UNL1        0.0341
     17 C          -9.2915   -3.8707   16.6739 C.ar    1  UNL1        0.1593
     18 F          -7.9280   -3.9335   16.0520 F       1  UNL1       -0.2025
     19 C         -10.2467   -2.7837   16.2788 C.ar    1  UNL1        0.1298
     20 N         -11.6102   -2.7209   16.9006 N.ar    1  UNL1       -0.2267
     21 O         -18.8899   -6.8806   19.4485 O.3     1  UNL1       -0.4488
     22 C         -18.2697   -8.2232   19.1978 C.ar    1  UNL1        0.1835
     23 C         -18.7446   -9.0665   18.0518 C.ar    1  UNL1        0.1396
     24 N         -18.1244  -10.4091   17.8011 N.ar    1  UNL1       -0.2192
     25 C         -17.0293  -10.9083   18.6963 C.ar    1  UNL1        0.1991
     26 N         -16.5544  -10.0650   19.8422 N.ar    1  UNL1       -0.2192
     27 C         -17.1746   -8.7224   20.0930 C.ar    1  UNL1        0.1396
@<TRIPOS>BOND
     1    10    11    2
     2    11    12   am
     3    12    14    1
     4    14    15   ar
     5    15    16   ar
     6    16    17   ar
     7    17    18    1
     8    17    19   ar
     9    19    20   ar
    10    11     1    1
    11     1     2   ar
    12     2     3   ar
    13     3    21    1
    14    21    22    1
    15    22    23   ar
    16    23    24   ar
    17    24    25   ar
    18    25    26   ar
    19    26    27   ar
    20     3     4   ar
    21     4     5   ar
    22     5     6   ar
    23     6     7   ar
    24     7     8   ar
    25     8     9   ar
    26    20    14   ar
    27     9     1   ar
    28    27    22   ar
    29     9     5   ar
    30    12    13    1
@<TRIPOS>MOLECULE
*****
 27 30 0 0 0
SMALL
GASTEIGER

@<TRIPOS>ATOM
      1 C          -7.7015  -18.6809   20.5205 C.ar    1  UNL1        0.0926
      2 C          -8.6149  -17.7889   21.3078 C.ar    1  UNL1        0.0467
      3 C         -10.0998  -17.8787   21.1158 C.ar    1  UNL1        0.1648
      4 C         -10.6714  -18.8607   20.1363 C.ar    1  UNL1        0.1395
      5 N          -9.7579  -19.7527   19.3490 N.ar    1  UNL1       -0.2060
      6 N         -10.0290  -20.8095   18.3196 N.ar    1  UNL1       -0.1408
      7 C          -8.7117  -21.3727   17.8755 C.ar    1  UNL1        0.2213
      8 N          -7.6263  -20.6641   18.6304 N.ar    1  UNL1       -0.2033
      9 C          -8.2730  -19.6628   19.5412 C.ar    1  UNL1        0.1702
     10 O          -5.6473  -18.4224   22.0903 O.2     1  UNL1       -0.2697
     11 C          -6.2165  -18.5910   20.7127 C.2     1  UNL1        0.2536
     12 N          -5.3008  -18.6698   19.5272 N.am    1  UNL1       -0.2657
     13 H          -5.6744  -18.7804   18.6231 H       1  UNL1        0.1566
     14 C          -3.8159  -18.5799   19.7194 C.ar    1  UNL1        0.1345
     15 C          -3.1156  -19.5553   20.6184 C.ar    1  UNL1        0.0368
     16 C          -1.6307  -19.4655   20.8106 C.ar    1  UNL1        0.0341
     17 C          -0.8460  -18.4002   20.1040 C.ar    1  UNL1        0.1593
     18 F           0.6388  -18.3104   20.2962 F       1  UNL1       -0.2025
     19 C          -1.5463  -17.4247   19.2050 C.ar    1  UNL1        0.1298
     20 N          -3.0312  -17.5146   19.0128 N.ar    1  UNL1       -0.2267
     21 O         -11.0133  -16.9866   21.9031 O.3     1  UNL1       -0.4488
     22 C         -11.8603  -17.5608   22.9999 C.ar    1  UNL1        0.1835
     23 C         -11.2230  -18.3510   24.1041 C.ar    1  UNL1        0.1396
     24 N         -12.0701  -18.9252   25.2009 N.ar    1  UNL1       -0.2192
     25 C         -13.5544  -18.7092   25.1933 C.ar    1  UNL1        0.1991
     26 N         -14.1917  -17.9190   24.0891 N.ar    1  UNL1       -0.2192
     27 C         -13.3447  -17.3449   22.9923 C.ar    1  UNL1        0.1396
@<TRIPOS>BOND
     1    10    11    2
     2    11    12   am
     3    12    14    1
     4    14    15   ar
     5    15    16   ar
     6    16    17   ar
     7    17    18    1
     8    17    19   ar
     9    19    20   ar
    10    11     1    1
    11     1     2   ar
    12     2     3   ar
    13     3    21    1
    14    21    22    1
    15    22    23   ar
    16    23    24   ar
    17    24    25   ar
    18    25    26   ar
    19    26    27   ar
    20     3     4   ar
    21     4     5   ar
    22     5     6   ar
    23     6     7   ar
    24     7     8   ar
    25     8     9   ar
    26    20    14   ar
    27     9     1   ar
    28    27    22   ar
    29     9     5   ar
    30    12    13    1
