@<TRIPOS>MOLECULE
*****
 31 33 0 0 0
SMALL
GASTEIGER

@<TRIPOS>ATOM
      1 N          -9.6399  -17.9333   22.4556 N.ar    1  UNL1       -0.2876
      2 C         -11.0557  -17.7687   21.9882 C.ar    1  UNL1        0.1187
      3 C         -11.1840  -18.4404   20.6532 C.ar    1  UNL1        0.0236
      4 C          -9.8476  -19.0200   20.2954 C.ar    1  UNL1        0.0180
      5 C          -9.3764  -19.7926   19.0993 C.ar    1  UNL1        0.0046
      6 C          -7.9508  -20.2519   19.0171 C.ar    1  UNL1        0.0373
      7 C          -6.9965  -19.9385   20.1311 C.ar    1  UNL1        0.1483
      8 C          -7.4677  -19.1658   21.3273 C.ar    1  UNL1        0.0547
      9 C          -8.8933  -18.7066   21.4094 C.ar    1  UNL1        0.0685
     10 C          -7.2047  -16.1434   25.0279 C.ar    1  UNL1        0.0606
     11 C          -7.9321  -16.3796   26.3183 C.ar    1  UNL1        0.0148
     12 C          -9.2288  -17.1337   26.3211 C.ar    1  UNL1        0.0043
     13 C          -9.7980  -17.6516   25.0335 C.ar    1  UNL1        0.0374
     14 C          -9.0707  -17.4154   23.7432 C.ar    1  UNL1        0.1474
     15 N          -7.7739  -16.6613   23.7404 N.ar    1  UNL1       -0.2323
     16 C          -5.3621  -14.8314   26.3059 C.3     1  UNL1        0.0067
     17 C          -5.9081  -15.3894   25.0250 C.3     1  UNL1        0.0459
     18 C          -5.1573  -15.1933   23.7413 C.3     1  UNL1        0.0476
     19 C          -4.1476  -16.2109   23.3000 C.2     1  UNL1        0.0507
     20 O          -4.1632  -17.5890   23.8924 O.co2   1  UNL1       -0.5492
     21 O          -3.1221  -15.8506   22.2663 O.co2   1  UNL1       -0.5492
     22 C         -12.1509  -17.0575   22.7263 C.2     1  UNL1        0.2590
     23 N         -12.1886  -15.5582   22.7497 N.am    1  UNL1       -0.3241
     24 O         -13.2083  -17.8455   23.4410 O.2     1  UNL1       -0.2688
     25 H         -11.4946  -15.0409   22.2806 H       1  UNL1        0.1453
     26 H         -12.9074  -15.0914   23.2341 H       1  UNL1        0.1453
     27 O          -5.5708  -20.3978   20.0489 O.3     1  UNL1       -0.4044
     28 C          -4.4587  -19.4611   20.4171 C.3     1  UNL1        0.5753
     29 F          -3.3465  -18.5243   20.7854 F       1  UNL1       -0.1328
     30 F          -4.6077  -18.7650   19.0968 F       1  UNL1       -0.1328
     31 F          -4.3096  -20.1571   21.7374 F       1  UNL1       -0.1328
@<TRIPOS>UNITY_ATOM_ATTR
20 1
charge -1
@<TRIPOS>BOND
     1    16    17    1
     2    17    18    1
     3    18    19    1
     4    19    20   ar
     5    19    21   ar
     6    17    10    1
     7    10    11   ar
     8    11    12   ar
     9    12    13   ar
    10    13    14   ar
    11    14     1    1
    12     1     2   ar
    13     2    22    1
    14    22    23   am
    15    22    24    2
    16     2     3   ar
    17     3     4   ar
    18     4     5   ar
    19     5     6   ar
    20     6     7   ar
    21     7    27    1
    22    27    28    1
    23    28    29    1
    24    28    30    1
    25    28    31    1
    26     7     8   ar
    27     8     9   ar
    28    14    15   ar
    29    15    10   ar
    30     9     1   ar
    31     9     4   ar
    32    23    25    1
    33    23    26    1
@<TRIPOS>MOLECULE
*****
 31 33 0 0 0
SMALL
GASTEIGER

@<TRIPOS>ATOM
      1 N          -7.3028  -17.2916   23.6824 N.ar    1  UNL1       -0.2876
      2 C          -7.2279  -16.1481   24.6502 C.ar    1  UNL1        0.1187
      3 C          -5.8061  -15.6722   24.6962 C.ar    1  UNL1        0.0236
      4 C          -5.0023  -16.5216   23.7567 C.ar    1  UNL1        0.0180
      5 C          -3.5477  -16.5131   23.3909 C.ar    1  UNL1        0.0046
      6 C          -3.0181  -17.5053   22.3985 C.ar    1  UNL1        0.0373
      7 C          -3.9431  -18.5062   21.7720 C.ar    1  UNL1        0.1483
      8 C          -5.3978  -18.5147   22.1378 C.ar    1  UNL1        0.0547
      9 C          -5.9274  -17.5225   23.1302 C.ar    1  UNL1        0.0685
     10 C         -11.0669  -18.1268   22.7420 C.ar    1  UNL1        0.0606
     11 C         -11.0043  -19.6206   22.6216 C.ar    1  UNL1        0.0148
     12 C          -9.7078  -20.3381   22.8547 C.ar    1  UNL1        0.0043
     13 C          -8.4740  -19.5617   23.2083 C.ar    1  UNL1        0.0374
     14 C          -8.5366  -18.0680   23.3288 C.ar    1  UNL1        0.1474
     15 N          -9.8332  -17.3504   23.0956 N.ar    1  UNL1       -0.2323
     16 C         -13.5250  -17.6414   23.4292 C.3     1  UNL1        0.0067
     17 C         -12.3634  -17.4093   22.5089 C.3     1  UNL1        0.0459
     18 C         -12.4983  -16.4597   21.3557 C.3     1  UNL1        0.0476
     19 C         -11.5670  -16.5651   20.1845 C.2     1  UNL1        0.0507
     20 O         -11.5651  -17.8026   19.3367 O.co2   1  UNL1       -0.5492
     21 O         -10.6376  -15.4330   19.8610 O.co2   1  UNL1       -0.5492
     22 C          -8.3735  -15.5801   25.4344 C.2     1  UNL1        0.2590
     23 N          -9.5409  -14.9671   24.7195 N.am    1  UNL1       -0.3241
     24 O          -8.3517  -15.6252   26.9335 O.2     1  UNL1       -0.2688
     25 H          -9.5553  -14.9374   23.7355 H       1  UNL1        0.1453
     26 H         -10.2928  -14.5943   25.2342 H       1  UNL1        0.1453
     27 O          -3.4135  -19.4985   20.7795 O.3     1  UNL1       -0.4044
     28 C          -2.7070  -19.0209   19.5455 C.3     1  UNL1        0.5753
     29 F          -2.0005  -18.5434   18.3114 F       1  UNL1       -0.1328
     30 F          -4.0287  -18.7014   18.9124 F       1  UNL1       -0.1328
     31 F          -1.3852  -19.3405   20.1786 F       1  UNL1       -0.1328
@<TRIPOS>UNITY_ATOM_ATTR
20 1
charge -1
@<TRIPOS>BOND
     1    16    17    1
     2    17    18    1
     3    18    19    1
     4    19    20   ar
     5    19    21   ar
     6    17    10    1
     7    10    11   ar
     8    11    12   ar
     9    12    13   ar
    10    13    14   ar
    11    14     1    1
    12     1     2   ar
    13     2    22    1
    14    22    23   am
    15    22    24    2
    16     2     3   ar
    17     3     4   ar
    18     4     5   ar
    19     5     6   ar
    20     6     7   ar
    21     7    27    1
    22    27    28    1
    23    28    29    1
    24    28    30    1
    25    28    31    1
    26     7     8   ar
    27     8     9   ar
    28    14    15   ar
    29    15    10   ar
    30     9     1   ar
    31     9     4   ar
    32    23    25    1
    33    23    26    1
@<TRIPOS>MOLECULE
*****
 31 33 0 0 0
SMALL
GASTEIGER

@<TRIPOS>ATOM
      1 N          -6.3119  -18.7479   21.7182 N.ar    1  UNL1       -0.2876
      2 C          -5.0458  -19.4742   21.3723 C.ar    1  UNL1        0.1187
      3 C          -3.9444  -18.9174   22.2248 C.ar    1  UNL1        0.0236
      4 C          -4.5296  -17.8470   23.0976 C.ar    1  UNL1        0.0180
      5 C          -3.9192  -16.9542   24.1369 C.ar    1  UNL1        0.0046
      6 C          -4.7720  -15.9566   24.8632 C.ar    1  UNL1        0.0373
      7 C          -6.2352  -15.8518   24.5501 C.ar    1  UNL1        0.1483
      8 C          -6.8456  -16.7446   23.5107 C.ar    1  UNL1        0.0547
      9 C          -5.9928  -17.7422   22.7845 C.ar    1  UNL1        0.0685
     10 C         -10.2505  -19.0070   21.3058 C.ar    1  UNL1        0.0606
     11 C         -10.3570  -19.4606   19.8800 C.ar    1  UNL1        0.0148
     12 C          -9.1151  -19.6766   19.0670 C.ar    1  UNL1        0.0043
     13 C          -7.7668  -19.4390   19.6797 C.ar    1  UNL1        0.0374
     14 C          -7.6602  -18.9855   21.1055 C.ar    1  UNL1        0.1474
     15 N          -8.9022  -18.7694   21.9185 N.ar    1  UNL1       -0.2323
     16 C         -11.5817  -19.3403   23.5118 C.3     1  UNL1        0.0067
     17 C         -11.4924  -18.7910   22.1189 C.3     1  UNL1        0.0459
     18 C         -12.6448  -18.0258   21.5391 C.3     1  UNL1        0.0476
     19 C         -12.5193  -16.5510   21.2957 C.2     1  UNL1        0.0507
     20 O         -12.2545  -15.6213   22.4428 O.co2   1  UNL1       -0.5492
     21 O         -12.6585  -16.0058   19.9053 O.co2   1  UNL1       -0.5492
     22 C          -4.9059  -20.5657   20.3530 C.2     1  UNL1        0.2590
     23 N          -3.8555  -20.4660   19.2868 N.am    1  UNL1       -0.3241
     24 O          -5.8163  -21.7568   20.3997 O.2     1  UNL1       -0.2688
     25 H          -3.2579  -19.6842   19.2561 H       1  UNL1        0.1453
     26 H          -3.7636  -21.1823   18.6178 H       1  UNL1        0.1453
     27 O          -7.0881  -14.8541   25.2764 O.3     1  UNL1       -0.4044
     28 C          -7.8882  -15.2804   26.4713 C.3     1  UNL1        0.5753
     29 F          -8.6884  -15.7067   27.6664 F       1  UNL1       -0.1328
     30 F          -6.6514  -15.2278   27.3183 F       1  UNL1       -0.1328
     31 F          -9.1251  -15.3330   25.6244 F       1  UNL1       -0.1328
@<TRIPOS>UNITY_ATOM_ATTR
20 1
charge -1
@<TRIPOS>BOND
     1    16    17    1
     2    17    18    1
     3    18    19    1
     4    19    20   ar
     5    19    21   ar
     6    17    10    1
     7    10    11   ar
     8    11    12   ar
     9    12    13   ar
    10    13    14   ar
    11    14     1    1
    12     1     2   ar
    13     2    22    1
    14    22    23   am
    15    22    24    2
    16     2     3   ar
    17     3     4   ar
    18     4     5   ar
    19     5     6   ar
    20     6     7   ar
    21     7    27    1
    22    27    28    1
    23    28    29    1
    24    28    30    1
    25    28    31    1
    26     7     8   ar
    27     8     9   ar
    28    14    15   ar
    29    15    10   ar
    30     9     1   ar
    31     9     4   ar
    32    23    25    1
    33    23    26    1
@<TRIPOS>MOLECULE
*****
 31 33 0 0 0
SMALL
GASTEIGER

@<TRIPOS>ATOM
      1 N          -7.2470  -17.2384   23.6473 N.ar    1  UNL1       -0.2876
      2 C          -7.2016  -16.0931   24.6149 C.ar    1  UNL1        0.1187
      3 C          -5.7768  -15.6380   24.7279 C.ar    1  UNL1        0.0236
      4 C          -4.9416  -16.5020   23.8301 C.ar    1  UNL1        0.0180
      5 C          -3.4711  -16.5159   23.5345 C.ar    1  UNL1        0.0046
      6 C          -2.9093  -17.5189   22.5711 C.ar    1  UNL1        0.0373
      7 C          -3.8179  -18.5080   21.9033 C.ar    1  UNL1        0.1483
      8 C          -5.2884  -18.4941   22.1989 C.ar    1  UNL1        0.0547
      9 C          -5.8502  -17.4911   23.1623 C.ar    1  UNL1        0.0685
     10 C         -10.1580  -18.7273   21.3980 C.ar    1  UNL1        0.0606
     11 C         -10.9273  -19.5163   22.4157 C.ar    1  UNL1        0.0148
     12 C         -10.4698  -19.5459   23.8439 C.ar    1  UNL1        0.0043
     13 C          -9.2431  -18.7866   24.2544 C.ar    1  UNL1        0.0374
     14 C          -8.4738  -17.9977   23.2368 C.ar    1  UNL1        0.1474
     15 N          -8.9312  -17.9680   21.8085 N.ar    1  UNL1       -0.2323
     16 C         -10.1458  -19.7504   19.0099 C.3     1  UNL1        0.0067
     17 C         -10.6154  -18.6977   19.9698 C.3     1  UNL1        0.0459
     18 C         -11.5423  -17.6153   19.5014 C.3     1  UNL1        0.0476
     19 C         -11.3744  -16.2132   20.0072 C.2     1  UNL1        0.0507
     20 O         -11.7795  -15.8682   21.4097 O.co2   1  UNL1       -0.5492
     21 O         -10.8013  -15.1560   19.1106 O.co2   1  UNL1       -0.5492
     22 C          -8.3750  -15.5059   25.3418 C.2     1  UNL1        0.2590
     23 N          -9.6391  -15.1939   24.5971 N.am    1  UNL1       -0.3241
     24 O          -8.2843  -15.2308   26.8136 O.2     1  UNL1       -0.2688
     25 H          -9.6986  -15.3745   23.6311 H       1  UNL1        0.1453
     26 H         -10.4092  -14.8086   25.0742 H       1  UNL1        0.1453
     27 O          -3.2560  -19.5111   20.9398 O.3     1  UNL1       -0.4044
     28 C          -2.6679  -19.0530   19.6382 C.3     1  UNL1        0.5753
     29 F          -2.0796  -18.5948   18.3366 F       1  UNL1       -0.1328
     30 F          -1.2887  -19.2047   20.2080 F       1  UNL1       -0.1328
     31 F          -4.0471  -18.9013   19.0684 F       1  UNL1       -0.1328
@<TRIPOS>UNITY_ATOM_ATTR
20 1
charge -1
@<TRIPOS>BOND
     1    16    17    1
     2    17    18    1
     3    18    19    1
     4    19    20   ar
     5    19    21   ar
     6    17    10    1
     7    10    11   ar
     8    11    12   ar
     9    12    13   ar
    10    13    14   ar
    11    14     1    1
    12     1     2   ar
    13     2    22    1
    14    22    23   am
    15    22    24    2
    16     2     3   ar
    17     3     4   ar
    18     4     5   ar
    19     5     6   ar
    20     6     7   ar
    21     7    27    1
    22    27    28    1
    23    28    29    1
    24    28    30    1
    25    28    31    1
    26     7     8   ar
    27     8     9   ar
    28    14    15   ar
    29    15    10   ar
    30     9     1   ar
    31     9     4   ar
    32    23    25    1
    33    23    26    1
@<TRIPOS>MOLECULE
*****
 31 33 0 0 0
SMALL
GASTEIGER

@<TRIPOS>ATOM
      1 N          -7.3070  -17.0831   23.8483 N.ar    1  UNL1       -0.2876
      2 C          -7.1218  -15.9805   24.8483 C.ar    1  UNL1        0.1187
      3 C          -5.6607  -15.6457   24.9037 C.ar    1  UNL1        0.0236
      4 C          -4.9429  -16.5413   23.9380 C.ar    1  UNL1        0.0180
      5 C          -3.4943  -16.6627   23.5683 C.ar    1  UNL1        0.0046
      6 C          -3.0631  -17.6724   22.5464 C.ar    1  UNL1        0.0373
      7 C          -4.0806  -18.5608   21.8941 C.ar    1  UNL1        0.1483
      8 C          -5.5292  -18.4395   22.2638 C.ar    1  UNL1        0.0547
      9 C          -5.9604  -17.4297   23.2857 C.ar    1  UNL1        0.0685
     10 C         -10.3417  -18.4192   21.6674 C.ar    1  UNL1        0.0606
     11 C         -11.2162  -19.0125   22.7319 C.ar    1  UNL1        0.0148
     12 C         -10.7876  -18.9627   24.1685 C.ar    1  UNL1        0.0043
     13 C          -9.4846  -18.3196   24.5406 C.ar    1  UNL1        0.0374
     14 C          -8.6100  -17.7263   23.4762 C.ar    1  UNL1        0.1474
     15 N          -9.0386  -17.7761   22.0395 N.ar    1  UNL1       -0.2323
     16 C         -11.4428  -17.2820   19.6073 C.3     1  UNL1        0.0067
     17 C         -10.7701  -18.4690   20.2308 C.3     1  UNL1        0.0459
     18 C         -10.5259  -19.7056   19.4177 C.3     1  UNL1        0.0476
     19 C          -9.1617  -19.9768   18.8563 C.2     1  UNL1        0.0507
     20 O          -8.0052  -19.1019   19.2400 O.co2   1  UNL1       -0.5492
     21 O          -8.9538  -21.1229   17.9113 O.co2   1  UNL1       -0.5492
     22 C          -8.2071  -15.3275   25.6518 C.2     1  UNL1        0.2590
     23 N          -9.4340  -14.8019   24.9675 N.am    1  UNL1       -0.3241
     24 O          -8.0655  -15.2000   27.1396 O.2     1  UNL1       -0.2688
     25 H          -9.5270  -14.8855   23.9909 H       1  UNL1        0.1453
     26 H         -10.1464  -14.3732   25.4948 H       1  UNL1        0.1453
     27 O          -3.6494  -19.5706   20.8721 O.3     1  UNL1       -0.4044
     28 C          -2.8662  -19.1335   19.6698 C.3     1  UNL1        0.5753
     29 F          -2.0829  -18.6963   18.4675 F       1  UNL1       -0.1328
     30 F          -4.1348  -18.6868   19.0058 F       1  UNL1       -0.1328
     31 F          -1.5975  -19.5802   20.3339 F       1  UNL1       -0.1328
@<TRIPOS>UNITY_ATOM_ATTR
20 1
charge -1
@<TRIPOS>BOND
     1    16    17    1
     2    17    18    1
     3    18    19    1
     4    19    20   ar
     5    19    21   ar
     6    17    10    1
     7    10    11   ar
     8    11    12   ar
     9    12    13   ar
    10    13    14   ar
    11    14     1    1
    12     1     2   ar
    13     2    22    1
    14    22    23   am
    15    22    24    2
    16     2     3   ar
    17     3     4   ar
    18     4     5   ar
    19     5     6   ar
    20     6     7   ar
    21     7    27    1
    22    27    28    1
    23    28    29    1
    24    28    30    1
    25    28    31    1
    26     7     8   ar
    27     8     9   ar
    28    14    15   ar
    29    15    10   ar
    30     9     1   ar
    31     9     4   ar
    32    23    25    1
    33    23    26    1
@<TRIPOS>MOLECULE
*****
 31 33 0 0 0
SMALL
GASTEIGER

@<TRIPOS>ATOM
      1 N          -6.5895  -18.7098   21.2183 N.ar    1  UNL1       -0.2876
      2 C          -6.0693  -19.2237   19.9086 C.ar    1  UNL1        0.1187
      3 C          -7.2396  -19.6982   19.0992 C.ar    1  UNL1        0.0236
      4 C          -8.4831  -19.4777   19.9087 C.ar    1  UNL1        0.0180
      5 C          -9.9293  -19.7542   19.6224 C.ar    1  UNL1        0.0046
      6 C         -10.9736  -19.4198   20.6458 C.ar    1  UNL1        0.0373
      7 C         -10.5718  -18.8089   21.9555 C.ar    1  UNL1        0.1483
      8 C          -9.1256  -18.5324   22.2418 C.ar    1  UNL1        0.0547
      9 C          -8.0812  -18.8668   21.2184 C.ar    1  UNL1        0.0685
     10 C          -5.5058  -16.4989   24.3309 C.ar    1  UNL1        0.0606
     11 C          -4.1100  -16.9977   24.5607 C.ar    1  UNL1        0.0148
     12 C          -3.5407  -18.0672   23.6763 C.ar    1  UNL1        0.0043
     13 C          -4.3672  -18.6379   22.5622 C.ar    1  UNL1        0.0374
     14 C          -5.7629  -18.1391   22.3324 C.ar    1  UNL1        0.1474
     15 N          -6.3323  -17.0696   23.2168 N.ar    1  UNL1       -0.2323
     16 C          -5.1641  -14.5994   26.0700 C.3     1  UNL1        0.0067
     17 C          -6.0753  -15.4295   25.2152 C.3     1  UNL1        0.0459
     18 C          -7.5557  -15.1902   25.2447 C.3     1  UNL1        0.0476
     19 C          -8.3811  -15.7346   26.3727 C.2     1  UNL1        0.0507
     20 O          -8.9736  -17.1091   26.2731 O.co2   1  UNL1       -0.5492
     21 O          -8.6141  -14.9046   27.6002 O.co2   1  UNL1       -0.5492
     22 C          -4.6313  -19.2571   19.4830 C.2     1  UNL1        0.2590
     23 N          -3.9606  -18.0026   19.0073 N.am    1  UNL1       -0.3241
     24 O          -3.8641  -20.5450   19.5331 O.2     1  UNL1       -0.2688
     25 H          -4.4642  -17.1572   18.9744 H       1  UNL1        0.1453
     26 H          -3.0168  -18.0245   18.7280 H       1  UNL1        0.1453
     27 O         -11.6162  -18.4745   22.9790 O.3     1  UNL1       -0.4044
     28 C         -12.3417  -17.1635   22.9095 C.3     1  UNL1        0.5753
     29 F         -13.0672  -15.8524   22.8400 F       1  UNL1       -0.1328
     30 F         -11.1584  -16.4761   23.5236 F       1  UNL1       -0.1328
     31 F         -13.5251  -17.8509   22.2954 F       1  UNL1       -0.1328
@<TRIPOS>UNITY_ATOM_ATTR
20 1
charge -1
@<TRIPOS>BOND
     1    16    17    1
     2    17    18    1
     3    18    19    1
     4    19    20   ar
     5    19    21   ar
     6    17    10    1
     7    10    11   ar
     8    11    12   ar
     9    12    13   ar
    10    13    14   ar
    11    14     1    1
    12     1     2   ar
    13     2    22    1
    14    22    23   am
    15    22    24    2
    16     2     3   ar
    17     3     4   ar
    18     4     5   ar
    19     5     6   ar
    20     6     7   ar
    21     7    27    1
    22    27    28    1
    23    28    29    1
    24    28    30    1
    25    28    31    1
    26     7     8   ar
    27     8     9   ar
    28    14    15   ar
    29    15    10   ar
    30     9     1   ar
    31     9     4   ar
    32    23    25    1
    33    23    26    1
@<TRIPOS>MOLECULE
*****
 31 33 0 0 0
SMALL
GASTEIGER

@<TRIPOS>ATOM
      1 N          -6.8062  -17.6561   22.5552 N.ar    1  UNL1       -0.2876
      2 C          -7.0742  -16.8761   23.8081 C.ar    1  UNL1        0.1187
      3 C          -5.7577  -16.5956   24.4699 C.ar    1  UNL1        0.0236
      4 C          -4.6760  -17.2023   23.6261 C.ar    1  UNL1        0.0180
      5 C          -3.1848  -17.2425   23.7824 C.ar    1  UNL1        0.0046
      6 C          -2.3416  -17.9382   22.7554 C.ar    1  UNL1        0.0373
      7 C          -2.9896  -18.5937   21.5720 C.ar    1  UNL1        0.1483
      8 C          -4.4809  -18.5535   21.4157 C.ar    1  UNL1        0.0547
      9 C          -5.3241  -17.8577   22.4427 C.ar    1  UNL1        0.0685
     10 C         -10.1966  -17.9440   20.5124 C.ar    1  UNL1        0.0606
     11 C          -9.9048  -19.1324   19.6449 C.ar    1  UNL1        0.0148
     12 C          -8.5801  -19.8287   19.7475 C.ar    1  UNL1        0.0043
     13 C          -7.5473  -19.3366   20.7176 C.ar    1  UNL1        0.0374
     14 C          -7.8390  -18.1483   21.5851 C.ar    1  UNL1        0.1474
     15 N          -9.1638  -17.4519   21.4825 N.ar    1  UNL1       -0.2323
     16 C         -11.7070  -16.1306   19.4261 C.3     1  UNL1        0.0067
     17 C         -11.5212  -17.2477   20.4098 C.3     1  UNL1        0.0459
     18 C         -12.6599  -17.6684   21.2909 C.3     1  UNL1        0.0476
     19 C         -12.8121  -17.0686   22.6573 C.2     1  UNL1        0.0507
     20 O         -13.5443  -17.8204   23.7292 O.co2   1  UNL1       -0.5492
     21 O         -12.2322  -15.7170   22.9519 O.co2   1  UNL1       -0.5492
     22 C          -8.4221  -16.4511   24.3108 C.2     1  UNL1        0.2590
     23 N          -9.2141  -15.4243   23.5571 N.am    1  UNL1       -0.3241
     24 O          -8.9778  -17.0530   25.5673 O.2     1  UNL1       -0.2688
     25 H          -8.8494  -15.0292   22.7324 H       1  UNL1        0.1453
     26 H         -10.0988  -15.1454   23.8870 H       1  UNL1        0.1453
     27 O          -2.1463  -19.2895   20.5449 O.3     1  UNL1       -0.4044
     28 C          -1.8099  -18.5978   19.2572 C.3     1  UNL1        0.5753
     29 F          -1.4734  -17.9060   17.9694 F       1  UNL1       -0.1328
     30 F          -3.0200  -19.2072   18.6137 F       1  UNL1       -0.1328
     31 F          -0.5997  -17.9884   19.9007 F       1  UNL1       -0.1328
@<TRIPOS>UNITY_ATOM_ATTR
20 1
charge -1
@<TRIPOS>BOND
     1    16    17    1
     2    17    18    1
     3    18    19    1
     4    19    20   ar
     5    19    21   ar
     6    17    10    1
     7    10    11   ar
     8    11    12   ar
     9    12    13   ar
    10    13    14   ar
    11    14     1    1
    12     1     2   ar
    13     2    22    1
    14    22    23   am
    15    22    24    2
    16     2     3   ar
    17     3     4   ar
    18     4     5   ar
    19     5     6   ar
    20     6     7   ar
    21     7    27    1
    22    27    28    1
    23    28    29    1
    24    28    30    1
    25    28    31    1
    26     7     8   ar
    27     8     9   ar
    28    14    15   ar
    29    15    10   ar
    30     9     1   ar
    31     9     4   ar
    32    23    25    1
    33    23    26    1
@<TRIPOS>MOLECULE
*****
 31 33 0 0 0
SMALL
GASTEIGER

@<TRIPOS>ATOM
      1 N          -8.2428  -19.0462   21.7589 N.ar    1  UNL1       -0.2876
      2 C          -9.1034  -19.2977   20.5563 C.ar    1  UNL1        0.1187
      3 C          -8.2087  -19.7042   19.4230 C.ar    1  UNL1        0.0236
      4 C          -6.7953  -19.7040   19.9251 C.ar    1  UNL1        0.0180
      5 C          -5.4918  -20.0216   19.2543 C.ar    1  UNL1        0.0046
      6 C          -4.2094  -19.9325   20.0272 C.ar    1  UNL1        0.0373
      7 C          -4.2304  -19.5258   21.4708 C.ar    1  UNL1        0.1483
      8 C          -5.5338  -19.2083   22.1417 C.ar    1  UNL1        0.0547
      9 C          -6.8163  -19.2973   21.3688 C.ar    1  UNL1        0.0685
     10 C          -8.6703  -16.9368   25.0932 C.ar    1  UNL1        0.0606
     11 C          -9.6867  -17.7636   25.8234 C.ar    1  UNL1        0.0148
     12 C         -10.2219  -19.0179   25.1987 C.ar    1  UNL1        0.0043
     13 C          -9.7405  -19.4454   23.8439 C.ar    1  UNL1        0.0374
     14 C          -8.7241  -18.6187   23.1137 C.ar    1  UNL1        0.1474
     15 N          -8.1889  -17.3643   23.7384 N.ar    1  UNL1       -0.2323
     16 C          -8.5283  -15.3151   27.1180 C.3     1  UNL1        0.0067
     17 C          -8.1351  -15.6824   25.7178 C.3     1  UNL1        0.0459
     18 C          -7.2068  -14.7954   24.9423 C.3     1  UNL1        0.0476
     19 C          -5.7736  -15.1945   24.7508 C.2     1  UNL1        0.0507
     20 O          -5.0298  -15.8755   25.8612 O.co2   1  UNL1       -0.5492
     21 O          -5.0842  -14.9126   23.4488 O.co2   1  UNL1       -0.5492
     22 C         -10.5964  -19.1657   20.4974 C.2     1  UNL1        0.2590
     23 N         -11.4664  -20.1816   21.1763 N.am    1  UNL1       -0.3241
     24 O         -11.2194  -18.0180   19.7596 O.2     1  UNL1       -0.2688
     25 H         -11.0576  -20.9350   21.6606 H       1  UNL1        0.1453
     26 H         -12.4463  -20.0950   21.1377 H       1  UNL1        0.1453
     27 O          -2.9478  -19.4368   22.2437 O.3     1  UNL1       -0.4044
     28 C          -2.2686  -18.1110   22.4194 C.3     1  UNL1        0.5753
     29 F          -1.5893  -16.7851   22.5950 F       1  UNL1       -0.1328
     30 F          -1.4684  -18.3560   21.1746 F       1  UNL1       -0.1328
     31 F          -3.0688  -17.8660   23.6642 F       1  UNL1       -0.1328
@<TRIPOS>UNITY_ATOM_ATTR
20 1
charge -1
@<TRIPOS>BOND
     1    16    17    1
     2    17    18    1
     3    18    19    1
     4    19    20   ar
     5    19    21   ar
     6    17    10    1
     7    10    11   ar
     8    11    12   ar
     9    12    13   ar
    10    13    14   ar
    11    14     1    1
    12     1     2   ar
    13     2    22    1
    14    22    23   am
    15    22    24    2
    16     2     3   ar
    17     3     4   ar
    18     4     5   ar
    19     5     6   ar
    20     6     7   ar
    21     7    27    1
    22    27    28    1
    23    28    29    1
    24    28    30    1
    25    28    31    1
    26     7     8   ar
    27     8     9   ar
    28    14    15   ar
    29    15    10   ar
    30     9     1   ar
    31     9     4   ar
    32    23    25    1
    33    23    26    1
@<TRIPOS>MOLECULE
*****
 31 33 0 0 0
SMALL
GASTEIGER

@<TRIPOS>ATOM
      1 N          -7.8466  -18.2251   21.6666 N.ar    1  UNL1       -0.2876
      2 C          -9.1513  -18.4300   20.9555 C.ar    1  UNL1        0.1187
      3 C         -10.1905  -17.5959   21.6443 C.ar    1  UNL1        0.0236
      4 C          -9.5280  -16.8757   22.7811 C.ar    1  UNL1        0.0180
      5 C         -10.0567  -15.9160   23.8055 C.ar    1  UNL1        0.0046
      6 C          -9.1368  -15.3452   24.8437 C.ar    1  UNL1        0.0373
      7 C          -7.6882  -15.7341   24.8575 C.ar    1  UNL1        0.1483
      8 C          -7.1594  -16.6938   23.8331 C.ar    1  UNL1        0.0547
      9 C          -8.0794  -17.2646   22.7949 C.ar    1  UNL1        0.0685
     10 C          -3.9449  -18.7750   21.1923 C.ar    1  UNL1        0.0606
     11 C          -3.9226  -20.1538   20.6021 C.ar    1  UNL1        0.0148
     12 C          -5.2083  -20.8897   20.3667 C.ar    1  UNL1        0.0043
     13 C          -6.5163  -20.2468   20.7216 C.ar    1  UNL1        0.0374
     14 C          -6.5386  -18.8681   21.3118 C.ar    1  UNL1        0.1474
     15 N          -5.2528  -18.1321   21.5472 N.ar    1  UNL1       -0.2323
     16 C          -2.0309  -18.0439   22.7898 C.3     1  UNL1        0.0067
     17 C          -2.6592  -18.0390   21.4277 C.3     1  UNL1        0.0459
     18 C          -2.0019  -17.2982   20.3012 C.3     1  UNL1        0.0476
     19 C          -1.1073  -18.0287   19.3442 C.2     1  UNL1        0.0507
     20 O          -1.4127  -18.0192   17.8756 O.co2   1  UNL1       -0.5492
     21 O           0.0929  -18.7689   19.8557 O.co2   1  UNL1       -0.5492
     22 C          -9.3772  -19.3136   19.7646 C.2     1  UNL1        0.2590
     23 N         -10.5193  -20.2860   19.7581 N.am    1  UNL1       -0.3241
     24 O          -8.4609  -19.2249   18.5803 O.2     1  UNL1       -0.2688
     25 H         -11.1206  -20.3442   20.5354 H       1  UNL1        0.1453
     26 H         -10.6675  -20.8659   18.9765 H       1  UNL1        0.1453
     27 O          -6.7682  -15.1632   25.8957 O.3     1  UNL1       -0.4044
     28 C          -5.5085  -15.8901   26.2628 C.3     1  UNL1        0.5753
     29 F          -4.2488  -16.6170   26.6300 F       1  UNL1       -0.1328
     30 F          -6.2314  -16.5768   27.3834 F       1  UNL1       -0.1328
     31 F          -4.7857  -15.2033   25.1422 F       1  UNL1       -0.1328
@<TRIPOS>UNITY_ATOM_ATTR
20 1
charge -1
@<TRIPOS>BOND
     1    16    17    1
     2    17    18    1
     3    18    19    1
     4    19    20   ar
     5    19    21   ar
     6    17    10    1
     7    10    11   ar
     8    11    12   ar
     9    12    13   ar
    10    13    14   ar
    11    14     1    1
    12     1     2   ar
    13     2    22    1
    14    22    23   am
    15    22    24    2
    16     2     3   ar
    17     3     4   ar
    18     4     5   ar
    19     5     6   ar
    20     6     7   ar
    21     7    27    1
    22    27    28    1
    23    28    29    1
    24    28    30    1
    25    28    31    1
    26     7     8   ar
    27     8     9   ar
    28    14    15   ar
    29    15    10   ar
    30     9     1   ar
    31     9     4   ar
    32    23    25    1
    33    23    26    1
