@<TRIPOS>MOLECULE
*****
 27 29 0 0 0
SMALL
GASTEIGER

@<TRIPOS>ATOM
      1 N          -8.8471  -19.1322   24.2074 N.am    1  UNL1       -0.2969
      2 C          -8.5404  -19.6711   22.8415 C.2     1  UNL1        0.2461
      3 O          -9.5731  -20.4675   22.1003 O.2     1  UNL1       -0.2701
      4 H          -8.1693  -18.6095   24.6939 H       1  UNL1        0.1501
      5 C          -7.2012  -19.4137   22.2170 C.ar    1  UNL1        0.0534
      6 C          -6.2754  -18.3988   22.8192 C.ar    1  UNL1        0.0045
      7 C          -4.9361  -18.1413   22.1947 C.ar    1  UNL1        0.0001
      8 C          -4.5227  -18.8989   20.9677 C.ar    1  UNL1        0.0001
      9 C          -5.4485  -19.9138   20.3655 C.ar    1  UNL1        0.0001
     10 C          -6.7878  -20.1712   20.9901 C.ar    1  UNL1        0.0045
     11 C          -3.1834  -18.6415   20.3432 C.ar    1  UNL1        0.0031
     12 C          -3.0988  -18.0601   18.9630 C.ar    1  UNL1        0.0207
     13 C          -1.7596  -17.8027   18.3384 C.ar    1  UNL1        0.0989
     14 N          -0.5049  -18.1266   19.0940 N.ar    1  UNL1       -0.2423
     15 C          -0.5895  -18.7079   20.4742 C.ar    1  UNL1        0.0989
     16 C          -1.9288  -18.9654   21.0988 C.ar    1  UNL1        0.0207
     17 C         -10.1863  -19.3896   24.8320 C.3     1  UNL1        0.1167
     18 C         -12.4832  -16.9382   22.7189 C.ar    1  UNL1        0.1383
     19 C         -13.8262  -17.2127   23.3279 C.ar    1  UNL1        0.0369
     20 C         -13.9559  -18.2128   24.4383 C.ar    1  UNL1        0.0028
     21 C         -12.7427  -18.9385   24.9396 C.ar    1  UNL1       -0.0024
     22 C         -11.3997  -18.6640   24.3306 C.ar    1  UNL1        0.0005
     23 C         -11.2699  -17.6638   23.2203 C.ar    1  UNL1        0.0343
     24 O         -12.3534  -15.9380   21.6086 O.3     1  UNL1       -0.4755
     25 C         -11.2098  -16.0339   20.6427 C.3     1  UNL1        0.2054
     26 C         -10.7698  -18.4166   19.7052 C.3     1  UNL1        0.0040
     27 C         -11.2657  -17.0145   19.5091 C.3     1  UNL1        0.0473
@<TRIPOS>BOND
     1    26    27    1
     2    27    25    1
     3    25    24    1
     4    24    18    1
     5    18    19   ar
     6    19    20   ar
     7    20    21   ar
     8    21    22   ar
     9    22    17    1
    10    17     1    1
    11     1     2   am
    12     2     3    2
    13     2     5    1
    14     5     6   ar
    15     6     7   ar
    16     7     8   ar
    17     8    11    1
    18    11    12   ar
    19    12    13   ar
    20    13    14   ar
    21    14    15   ar
    22    15    16   ar
    23     8     9   ar
    24     9    10   ar
    25    22    23   ar
    26    23    18   ar
    27    10     5   ar
    28    16    11   ar
    29     1     4    1
@<TRIPOS>MOLECULE
*****
 27 29 0 0 0
SMALL
GASTEIGER

@<TRIPOS>ATOM
      1 N          -0.5633    3.0221   20.1603 N.am    1  UNL1       -0.2969
      2 C           0.1071    2.3858   18.9788 C.2     1  UNL1        0.2461
      3 O          -0.1368    2.9221   17.5994 O.2     1  UNL1       -0.2701
      4 H          -0.4032    2.6702   21.0657 H       1  UNL1        0.1501
      5 C           1.0213    1.2132   19.1769 C.ar    1  UNL1        0.0534
      6 C           0.6860    0.1644   20.1954 C.ar    1  UNL1        0.0045
      7 C           1.6002   -1.0082   20.3935 C.ar    1  UNL1        0.0001
      8 C           2.8498   -1.1319   19.5729 C.ar    1  UNL1        0.0001
      9 C           3.1852   -0.0831   18.5543 C.ar    1  UNL1        0.0001
     10 C           2.2708    1.0895   18.3563 C.ar    1  UNL1        0.0045
     11 C           3.7641   -2.3045   19.7709 C.ar    1  UNL1        0.0031
     12 C           3.5595   -3.5581   18.9732 C.ar    1  UNL1        0.0207
     13 C           4.4737   -4.7307   19.1712 C.ar    1  UNL1        0.0989
     14 N           5.5926   -4.6496   20.1670 N.ar    1  UNL1       -0.2423
     15 C           5.7972   -3.3959   20.9648 C.ar    1  UNL1        0.0989
     16 C           4.8829   -2.2233   20.7667 C.ar    1  UNL1        0.0207
     17 C          -1.4775    4.1947   19.9623 C.3     1  UNL1        0.1167
     18 C          -5.2199    3.6764   21.1771 C.ar    1  UNL1        0.1383
     19 C          -5.9343    3.5810   19.8616 C.ar    1  UNL1        0.0369
     20 C          -5.1631    3.6902   18.5797 C.ar    1  UNL1        0.0028
     21 C          -3.6775    3.8948   18.6132 C.ar    1  UNL1       -0.0024
     22 C          -2.9632    3.9901   19.9287 C.ar    1  UNL1        0.0005
     23 C          -3.7343    3.8810   21.2106 C.ar    1  UNL1        0.0343
     24 O          -5.9911    3.5672   22.4590 O.3     1  UNL1       -0.4755
     25 C          -5.5081    4.2791   23.6878 C.3     1  UNL1        0.2054
     26 C          -4.6306    4.1327   26.1288 C.3     1  UNL1        0.0040
     27 C          -4.8168    3.5122   24.7758 C.3     1  UNL1        0.0473
@<TRIPOS>BOND
     1    26    27    1
     2    27    25    1
     3    25    24    1
     4    24    18    1
     5    18    19   ar
     6    19    20   ar
     7    20    21   ar
     8    21    22   ar
     9    22    17    1
    10    17     1    1
    11     1     2   am
    12     2     3    2
    13     2     5    1
    14     5     6   ar
    15     6     7   ar
    16     7     8   ar
    17     8    11    1
    18    11    12   ar
    19    12    13   ar
    20    13    14   ar
    21    14    15   ar
    22    15    16   ar
    23     8     9   ar
    24     9    10   ar
    25    22    23   ar
    26    23    18   ar
    27    10     5   ar
    28    16    11   ar
    29     1     4    1
@<TRIPOS>MOLECULE
*****
 27 29 0 0 0
SMALL
GASTEIGER

@<TRIPOS>ATOM
      1 N           6.1070   -4.1024   25.3303 N.am    1  UNL1       -0.2969
      2 C           6.2243   -4.2023   23.8382 C.2     1  UNL1        0.2461
      3 O           7.2295   -5.1320   23.2255 O.2     1  UNL1       -0.2701
      4 H           5.4473   -3.4922   25.7325 H       1  UNL1        0.1501
      5 C           5.3364   -3.3727   22.9589 C.ar    1  UNL1        0.0534
      6 C           4.5339   -2.2508   23.5483 C.ar    1  UNL1        0.0045
      7 C           3.6460   -1.4212   22.6689 C.ar    1  UNL1        0.0001
      8 C           3.5606   -1.7134   21.2001 C.ar    1  UNL1        0.0001
      9 C           4.3631   -2.8352   20.6107 C.ar    1  UNL1        0.0001
     10 C           5.2510   -3.6649   21.4901 C.ar    1  UNL1        0.0045
     11 C           2.6727   -0.8837   20.3207 C.ar    1  UNL1        0.0031
     12 C           3.1393   -0.4764   18.9546 C.ar    1  UNL1        0.0207
     13 C           2.2514    0.3532   18.0752 C.ar    1  UNL1        0.0989
     14 N           0.8968    0.7756   18.5620 N.ar    1  UNL1       -0.2423
     15 C           0.4303    0.3683   19.9282 C.ar    1  UNL1        0.0989
     16 C           1.3182   -0.4614   20.8076 C.ar    1  UNL1        0.0207
     17 C           6.9949   -4.9320   26.2097 C.3     1  UNL1        0.1167
     18 C           6.4508   -3.3109   29.7910 C.ar    1  UNL1        0.1383
     19 C           6.8032   -4.4655   30.6813 C.ar    1  UNL1        0.0369
     20 C           7.2194   -5.7757   30.0811 C.ar    1  UNL1        0.0028
     21 C           7.2833   -5.9312   28.5906 C.ar    1  UNL1       -0.0024
     22 C           6.9310   -4.7765   27.7003 C.ar    1  UNL1        0.0005
     23 C           6.5147   -3.4664   28.3005 C.ar    1  UNL1        0.0343
     24 O           6.0346   -2.0008   30.3913 O.3     1  UNL1       -0.4755
     25 C           6.6462   -1.5384   31.6805 C.3     1  UNL1        0.2054
     26 C           4.5798   -2.4275   32.9803 C.3     1  UNL1        0.0040
     27 C           5.9106   -1.7353   32.9728 C.3     1  UNL1        0.0473
@<TRIPOS>BOND
     1    26    27    1
     2    27    25    1
     3    25    24    1
     4    24    18    1
     5    18    19   ar
     6    19    20   ar
     7    20    21   ar
     8    21    22   ar
     9    22    17    1
    10    17     1    1
    11     1     2   am
    12     2     3    2
    13     2     5    1
    14     5     6   ar
    15     6     7   ar
    16     7     8   ar
    17     8    11    1
    18    11    12   ar
    19    12    13   ar
    20    13    14   ar
    21    14    15   ar
    22    15    16   ar
    23     8     9   ar
    24     9    10   ar
    25    22    23   ar
    26    23    18   ar
    27    10     5   ar
    28    16    11   ar
    29     1     4    1
@<TRIPOS>MOLECULE
*****
 27 29 0 0 0
SMALL
GASTEIGER

@<TRIPOS>ATOM
      1 N          -1.4395    2.4171   20.8936 N.am    1  UNL1       -0.2969
      2 C          -0.0629    2.4103   21.4893 C.2     1  UNL1        0.2461
      3 O           0.4009    3.5705   22.3194 O.2     1  UNL1       -0.2701
      4 H          -1.7439    1.6556   20.3489 H       1  UNL1        0.1501
      5 C           0.8500    1.2434   21.2550 C.ar    1  UNL1        0.0534
      6 C           0.5366    0.2511   20.1746 C.ar    1  UNL1        0.0045
      7 C           1.4494   -0.9158   19.9403 C.ar    1  UNL1        0.0001
      8 C           2.6757   -1.0905   20.7863 C.ar    1  UNL1        0.0001
      9 C           2.9892   -0.0982   21.8666 C.ar    1  UNL1        0.0001
     10 C           2.0762    1.0687   22.1010 C.ar    1  UNL1        0.0045
     11 C           3.5886   -2.2574   20.5519 C.ar    1  UNL1        0.0031
     12 C           3.6098   -2.9363   19.2145 C.ar    1  UNL1        0.0207
     13 C           4.5226   -4.1033   18.9802 C.ar    1  UNL1        0.0989
     14 N           5.4143   -4.5913   20.0833 N.ar    1  UNL1       -0.2423
     15 C           5.3931   -3.9124   21.4207 C.ar    1  UNL1        0.0989
     16 C           4.4802   -2.7455   21.6550 C.ar    1  UNL1        0.0207
     17 C          -2.3524    3.5840   21.1280 C.3     1  UNL1        0.1167
     18 C          -3.4350    4.1716   24.9007 C.ar    1  UNL1        0.1383
     19 C          -4.8751    3.7552   24.8504 C.ar    1  UNL1        0.0369
     20 C          -5.4744    3.2817   23.5594 C.ar    1  UNL1        0.0028
     21 C          -4.6335    3.2247   22.3186 C.ar    1  UNL1       -0.0024
     22 C          -3.1933    3.6411   22.3688 C.ar    1  UNL1        0.0005
     23 C          -2.5941    4.1145   23.6599 C.ar    1  UNL1        0.0343
     24 O          -2.8357    4.6450   26.1917 O.3     1  UNL1       -0.4755
     25 C          -1.5835    4.0069   26.7159 C.3     1  UNL1        0.2054
     26 C          -0.5158    1.8492   25.7387 C.3     1  UNL1        0.0040
     27 C          -1.4445    2.5134   26.7118 C.3     1  UNL1        0.0473
@<TRIPOS>BOND
     1    26    27    1
     2    27    25    1
     3    25    24    1
     4    24    18    1
     5    18    19   ar
     6    19    20   ar
     7    20    21   ar
     8    21    22   ar
     9    22    17    1
    10    17     1    1
    11     1     2   am
    12     2     3    2
    13     2     5    1
    14     5     6   ar
    15     6     7   ar
    16     7     8   ar
    17     8    11    1
    18    11    12   ar
    19    12    13   ar
    20    13    14   ar
    21    14    15   ar
    22    15    16   ar
    23     8     9   ar
    24     9    10   ar
    25    22    23   ar
    26    23    18   ar
    27    10     5   ar
    28    16    11   ar
    29     1     4    1
@<TRIPOS>MOLECULE
*****
 27 29 0 0 0
SMALL
GASTEIGER

@<TRIPOS>ATOM
      1 N          -1.2767    2.5519   21.9135 N.am    1  UNL1       -0.2969
      2 C          -0.7666    2.4918   20.5041 C.2     1  UNL1        0.2461
      3 O          -1.3253    3.4172   19.4643 O.2     1  UNL1       -0.2701
      4 H          -0.9100    1.9445   22.5961 H       1  UNL1        0.1501
      5 C           0.3021    1.5063   20.1347 C.ar    1  UNL1        0.0534
      6 C           0.8638    1.4952   18.7439 C.ar    1  UNL1        0.0045
      7 C           1.9325    0.5097   18.3745 C.ar    1  UNL1        0.0001
      8 C           2.4397   -0.4648   19.3959 C.ar    1  UNL1        0.0001
      9 C           1.8780   -0.4537   20.7867 C.ar    1  UNL1        0.0001
     10 C           0.8092    0.5319   21.1561 C.ar    1  UNL1        0.0045
     11 C           3.5084   -1.4503   19.0265 C.ar    1  UNL1        0.0031
     12 C           3.3572   -2.8954   19.3989 C.ar    1  UNL1        0.0207
     13 C           4.4260   -3.8809   19.0294 C.ar    1  UNL1        0.0989
     14 N           5.6460   -3.4213   18.2876 N.ar    1  UNL1       -0.2423
     15 C           5.7973   -1.9761   17.9152 C.ar    1  UNL1        0.0989
     16 C           4.7284   -0.9906   18.2847 C.ar    1  UNL1        0.0207
     17 C          -2.3455    3.5374   22.2830 C.3     1  UNL1        0.1167
     18 C          -2.3463    3.4083   26.2495 C.ar    1  UNL1        0.1383
     19 C          -3.7524    3.8377   26.5468 C.ar    1  UNL1        0.0369
     20 C          -4.6896    4.1670   25.4228 C.ar    1  UNL1        0.0028
     21 C          -4.2206    4.0669   24.0015 C.ar    1  UNL1       -0.0024
     22 C          -2.8145    3.6375   23.7043 C.ar    1  UNL1        0.0005
     23 C          -1.8773    3.3082   24.8282 C.ar    1  UNL1        0.0343
     24 O          -1.4092    3.0791   27.3735 O.3     1  UNL1       -0.4755
     25 C          -0.9244    1.6716   27.5579 C.3     1  UNL1        0.2054
     26 C          -1.2439   -0.6369   28.7062 C.3     1  UNL1        0.0040
     27 C          -1.4206    0.8527   28.7125 C.3     1  UNL1        0.0473
@<TRIPOS>BOND
     1    26    27    1
     2    27    25    1
     3    25    24    1
     4    24    18    1
     5    18    19   ar
     6    19    20   ar
     7    20    21   ar
     8    21    22   ar
     9    22    17    1
    10    17     1    1
    11     1     2   am
    12     2     3    2
    13     2     5    1
    14     5     6   ar
    15     6     7   ar
    16     7     8   ar
    17     8    11    1
    18    11    12   ar
    19    12    13   ar
    20    13    14   ar
    21    14    15   ar
    22    15    16   ar
    23     8     9   ar
    24     9    10   ar
    25    22    23   ar
    26    23    18   ar
    27    10     5   ar
    28    16    11   ar
    29     1     4    1
@<TRIPOS>MOLECULE
*****
 27 29 0 0 0
SMALL
GASTEIGER

@<TRIPOS>ATOM
      1 N          -0.0483    3.1509   22.7724 N.am    1  UNL1       -0.2969
      2 C          -0.2311    2.2293   21.6030 C.2     1  UNL1        0.2461
      3 O          -1.3729    2.4400   20.6534 O.2     1  UNL1       -0.2701
      4 H           0.7011    3.0126   23.3957 H       1  UNL1        0.1501
      5 C           0.7280    1.0972   21.3832 C.ar    1  UNL1        0.0534
      6 C           1.8608    0.8771   22.3415 C.ar    1  UNL1        0.0045
      7 C           2.8199   -0.2550   22.1218 C.ar    1  UNL1        0.0001
      8 C           2.6463   -1.1672   20.9437 C.ar    1  UNL1        0.0001
      9 C           1.5135   -0.9471   19.9854 C.ar    1  UNL1        0.0001
     10 C           0.5543    0.1851   20.2052 C.ar    1  UNL1        0.0045
     11 C           3.6054   -2.2993   20.7239 C.ar    1  UNL1        0.0031
     12 C           4.6205   -2.6371   21.7753 C.ar    1  UNL1        0.0207
     13 C           5.5796   -3.7692   21.5555 C.ar    1  UNL1        0.0989
     14 N           5.5236   -4.5637   20.2844 N.ar    1  UNL1       -0.2423
     15 C           4.5084   -4.2259   19.2330 C.ar    1  UNL1        0.0989
     16 C           3.5493   -3.0937   19.4528 C.ar    1  UNL1        0.0207
     17 C          -1.0074    4.2830   22.9922 C.3     1  UNL1        0.1167
     18 C          -4.8768    3.6435   23.5998 C.ar    1  UNL1        0.1383
     19 C          -4.9162    3.5444   25.0960 C.ar    1  UNL1        0.0369
     20 C          -3.6526    3.6915   25.8909 C.ar    1  UNL1        0.0028
     21 C          -2.3497    3.9377   25.1897 C.ar    1  UNL1       -0.0024
     22 C          -2.3104    4.0368   23.6935 C.ar    1  UNL1        0.0005
     23 C          -3.5739    3.8897   22.8986 C.ar    1  UNL1        0.0343
     24 O          -6.1403    3.4965   22.8049 O.3     1  UNL1       -0.4755
     25 C          -7.1655    4.5913   22.8167 C.3     1  UNL1        0.2054
     26 C          -8.4297    5.8373   24.7139 C.3     1  UNL1        0.0040
     27 C          -8.2298    4.6110   23.8735 C.3     1  UNL1        0.0473
@<TRIPOS>BOND
     1    26    27    1
     2    27    25    1
     3    25    24    1
     4    24    18    1
     5    18    19   ar
     6    19    20   ar
     7    20    21   ar
     8    21    22   ar
     9    22    17    1
    10    17     1    1
    11     1     2   am
    12     2     3    2
    13     2     5    1
    14     5     6   ar
    15     6     7   ar
    16     7     8   ar
    17     8    11    1
    18    11    12   ar
    19    12    13   ar
    20    13    14   ar
    21    14    15   ar
    22    15    16   ar
    23     8     9   ar
    24     9    10   ar
    25    22    23   ar
    26    23    18   ar
    27    10     5   ar
    28    16    11   ar
    29     1     4    1
@<TRIPOS>MOLECULE
*****
 27 29 0 0 0
SMALL
GASTEIGER

@<TRIPOS>ATOM
      1 N          -1.6882    2.7507   20.7712 N.am    1  UNL1       -0.2969
      2 C          -0.4677    2.7085   19.9002 C.2     1  UNL1        0.2461
      3 O          -0.1826    3.8366   18.9536 O.2     1  UNL1       -0.2701
      4 H          -1.8754    2.0103   21.3925 H       1  UNL1        0.1501
      5 C           0.4676    1.5383   19.9758 C.ar    1  UNL1        0.0534
      6 C           0.6817    0.8325   21.2819 C.ar    1  UNL1        0.0045
      7 C           1.6171   -0.3377   21.3575 C.ar    1  UNL1        0.0001
      8 C           2.3383   -0.8022   20.1270 C.ar    1  UNL1        0.0001
      9 C           2.1242   -0.0963   18.8209 C.ar    1  UNL1        0.0001
     10 C           1.1888    1.0739   18.7453 C.ar    1  UNL1        0.0045
     11 C           3.2736   -1.9724   20.2026 C.ar    1  UNL1        0.0031
     12 C           3.9467   -2.3119   21.4994 C.ar    1  UNL1        0.0207
     13 C           4.8821   -3.4821   21.5750 C.ar    1  UNL1        0.0989
     14 N           5.1443   -4.3128   20.3538 N.ar    1  UNL1       -0.2423
     15 C           4.4712   -3.9733   19.0570 C.ar    1  UNL1        0.0989
     16 C           3.5358   -2.8030   18.9815 C.ar    1  UNL1        0.0207
     17 C          -2.6235    3.9209   20.6956 C.3     1  UNL1        0.1167
     18 C          -5.0678    3.5872   23.8043 C.ar    1  UNL1        0.1383
     19 C          -6.3770    3.9652   23.1774 C.ar    1  UNL1        0.0369
     20 C          -6.4351    4.3285   21.7232 C.ar    1  UNL1        0.0028
     21 C          -5.1839    4.3137   20.8959 C.ar    1  UNL1       -0.0024
     22 C          -3.8748    3.9357   21.5229 C.ar    1  UNL1        0.0005
     23 C          -3.8167    3.5724   22.9770 C.ar    1  UNL1        0.0343
     24 O          -5.0098    3.2239   25.2585 O.3     1  UNL1       -0.4755
     25 C          -4.4805    4.2099   26.2573 C.3     1  UNL1        0.2054
     26 C          -2.0910    3.2085   26.4517 C.3     1  UNL1        0.0040
     27 C          -3.0007    4.4006   26.4112 C.3     1  UNL1        0.0473
@<TRIPOS>BOND
     1    26    27    1
     2    27    25    1
     3    25    24    1
     4    24    18    1
     5    18    19   ar
     6    19    20   ar
     7    20    21   ar
     8    21    22   ar
     9    22    17    1
    10    17     1    1
    11     1     2   am
    12     2     3    2
    13     2     5    1
    14     5     6   ar
    15     6     7   ar
    16     7     8   ar
    17     8    11    1
    18    11    12   ar
    19    12    13   ar
    20    13    14   ar
    21    14    15   ar
    22    15    16   ar
    23     8     9   ar
    24     9    10   ar
    25    22    23   ar
    26    23    18   ar
    27    10     5   ar
    28    16    11   ar
    29     1     4    1
@<TRIPOS>MOLECULE
*****
 27 29 0 0 0
SMALL
GASTEIGER

@<TRIPOS>ATOM
      1 N           0.0540    2.3989   23.7585 N.am    1  UNL1       -0.2969
      2 C          -0.6400    2.3442   25.0873 C.2     1  UNL1        0.2461
      3 O          -0.0272    1.5786   26.2224 O.2     1  UNL1       -0.2701
      4 H          -0.3482    2.9014   23.0135 H       1  UNL1        0.1501
      5 C          -1.9466    3.0549   25.2810 C.ar    1  UNL1        0.0534
      6 C          -2.7153    3.5487   24.0913 C.ar    1  UNL1        0.0045
      7 C          -4.0219    4.2594   24.2849 C.ar    1  UNL1        0.0001
      8 C          -4.5599    4.4764   25.6683 C.ar    1  UNL1        0.0001
      9 C          -3.7912    3.9826   26.8579 C.ar    1  UNL1        0.0001
     10 C          -2.4845    3.2719   26.6642 C.ar    1  UNL1        0.0045
     11 C          -5.8665    5.1871   25.8619 C.ar    1  UNL1        0.0031
     12 C          -6.1778    5.8396   27.1762 C.ar    1  UNL1        0.0207
     13 C          -7.4845    6.5503   27.3699 C.ar    1  UNL1        0.0989
     14 N          -8.4798    6.6087   26.2492 N.ar    1  UNL1       -0.2423
     15 C          -8.1685    5.9562   24.9348 C.ar    1  UNL1        0.0989
     16 C          -6.8618    5.2455   24.7412 C.ar    1  UNL1        0.0207
     17 C           1.3606    1.6882   23.5649 C.3     1  UNL1        0.1167
     18 C           2.8564   -1.1540   21.2336 C.ar    1  UNL1        0.1383
     19 C           1.9146   -1.0893   20.0680 C.ar    1  UNL1        0.0369
     20 C           0.7882   -0.0987   20.0679 C.ar    1  UNL1        0.0028
     21 C           0.6035    0.8271   21.2335 C.ar    1  UNL1       -0.0024
     22 C           1.5452    0.7624   22.3992 C.ar    1  UNL1        0.0005
     23 C           2.6717   -0.2282   22.3993 C.ar    1  UNL1        0.0343
     24 O           3.9828   -2.1445   21.2337 O.3     1  UNL1       -0.4755
     25 C           4.4327   -2.7687   19.9461 C.3     1  UNL1        0.2054
     26 C           4.5276   -5.1023   18.8079 C.3     1  UNL1        0.0040
     27 C           3.7329   -3.9858   19.4179 C.3     1  UNL1        0.0473
@<TRIPOS>BOND
     1    26    27    1
     2    27    25    1
     3    25    24    1
     4    24    18    1
     5    18    19   ar
     6    19    20   ar
     7    20    21   ar
     8    21    22   ar
     9    22    17    1
    10    17     1    1
    11     1     2   am
    12     2     3    2
    13     2     5    1
    14     5     6   ar
    15     6     7   ar
    16     7     8   ar
    17     8    11    1
    18    11    12   ar
    19    12    13   ar
    20    13    14   ar
    21    14    15   ar
    22    15    16   ar
    23     8     9   ar
    24     9    10   ar
    25    22    23   ar
    26    23    18   ar
    27    10     5   ar
    28    16    11   ar
    29     1     4    1
@<TRIPOS>MOLECULE
*****
 27 29 0 0 0
SMALL
GASTEIGER

@<TRIPOS>ATOM
      1 N           0.3011    0.5930   25.8068 N.am    1  UNL1       -0.2969
      2 C           0.5620    1.4055   24.5731 C.2     1  UNL1        0.2461
      3 O           0.1411    2.8442   24.5197 O.2     1  UNL1       -0.2701
      4 H           0.5774   -0.3513   25.8418 H       1  UNL1        0.1501
      5 C           1.2438    0.7792   23.3929 C.ar    1  UNL1        0.0534
      6 C           2.4590   -0.0765   23.5958 C.ar    1  UNL1        0.0045
      7 C           3.1408   -0.7027   22.4156 C.ar    1  UNL1        0.0001
      8 C           2.6075   -0.4733   21.0325 C.ar    1  UNL1        0.0001
      9 C           1.3923    0.3824   20.8296 C.ar    1  UNL1        0.0001
     10 C           0.7105    1.0087   22.0099 C.ar    1  UNL1        0.0045
     11 C           3.2893   -1.0995   19.8523 C.ar    1  UNL1        0.0031
     12 C           3.8473   -2.4878   19.9581 C.ar    1  UNL1        0.0207
     13 C           4.5291   -3.1141   18.7779 C.ar    1  UNL1        0.0989
     14 N           4.6529   -2.3520   17.4918 N.ar    1  UNL1       -0.2423
     15 C           4.0949   -0.9637   17.3860 C.ar    1  UNL1        0.0989
     16 C           3.4131   -0.3374   18.5663 C.ar    1  UNL1        0.0207
     17 C          -0.3807    1.2192   26.9870 C.3     1  UNL1        0.1167
     18 C           1.7376    0.2934   30.2127 C.ar    1  UNL1        0.1383
     19 C           1.8104    1.6266   30.8963 C.ar    1  UNL1        0.0369
     20 C           1.1529    2.8240   30.2768 C.ar    1  UNL1        0.0028
     21 C           0.4225    2.6882   28.9737 C.ar    1  UNL1       -0.0024
     22 C           0.3497    1.3551   28.2901 C.ar    1  UNL1        0.0005
     23 C           1.0073    0.1577   28.9097 C.ar    1  UNL1        0.0343
     24 O           2.3952   -0.9040   30.8323 O.3     1  UNL1       -0.4755
     25 C           3.5545   -0.7234   31.7668 C.3     1  UNL1        0.2054
     26 C           4.3068   -2.3996   33.6038 C.3     1  UNL1        0.0040
     27 C           4.3706   -1.9095   32.1875 C.3     1  UNL1        0.0473
@<TRIPOS>BOND
     1    26    27    1
     2    27    25    1
     3    25    24    1
     4    24    18    1
     5    18    19   ar
     6    19    20   ar
     7    20    21   ar
     8    21    22   ar
     9    22    17    1
    10    17     1    1
    11     1     2   am
    12     2     3    2
    13     2     5    1
    14     5     6   ar
    15     6     7   ar
    16     7     8   ar
    17     8    11    1
    18    11    12   ar
    19    12    13   ar
    20    13    14   ar
    21    14    15   ar
    22    15    16   ar
    23     8     9   ar
    24     9    10   ar
    25    22    23   ar
    26    23    18   ar
    27    10     5   ar
    28    16    11   ar
    29     1     4    1
