@<TRIPOS>MOLECULE
*****
 33 37 0 0 0
SMALL
GASTEIGER

@<TRIPOS>ATOM
      1 C          -5.1655  -19.8564   21.2767 C.3     1  UNL1        0.0920
      2 C          -5.3217  -20.9076   20.2180 C.3     1  UNL1        0.0429
      3 C          -6.7152  -20.8114   19.6714 C.3     1  UNL1        0.0985
      4 N          -7.4203  -19.7009   20.3921 N.am    1  UNL1       -0.2443
      5 C          -8.8348  -19.2582   20.1613 C.2     1  UNL1        0.4048
      6 O          -9.6773  -19.9472   19.1291 O.2     1  UNL1       -0.2262
      7 C          -6.4626  -19.1105   21.3843 C.3     1  UNL1        0.1162
      8 N          -3.9293  -19.5966   22.0857 N.pl3   1  UNL1       -0.3175
      9 H          -3.8084  -20.0404   22.9561 H       1  UNL1        0.1482
     10 C          -2.8245  -17.2452   22.0621 C.ar    1  UNL1        0.0997
     11 C          -1.7727  -16.3093   21.5449 C.ar    1  UNL1        0.0147
     12 C          -0.7736  -16.7889   20.5339 C.ar    1  UNL1        0.0215
     13 C          -0.8265  -18.2044   20.0403 C.ar    1  UNL1        0.1003
     14 N          -1.8784  -19.1403   20.5575 N.ar    1  UNL1       -0.2287
     15 C          -2.8774  -18.6607   21.5684 C.ar    1  UNL1        0.1381
     16 N          -4.8227  -16.2862   24.0839 N.1     1  UNL1       -0.1907
     17 C          -3.8236  -16.7657   23.0730 C.1     1  UNL1        0.1032
     18 O          -9.4068  -18.1266   20.9626 O.3     1  UNL1       -0.4383
     19 C          -9.5728  -18.2673   22.4468 C.3     1  UNL1        0.1702
     20 C          -8.9508  -17.2617   23.3697 C.3     1  UNL1        0.0407
     21 C          -9.7388  -18.4080   23.9309 C.3     1  UNL1        0.0036
     22 C          -9.9048  -18.5487   25.4150 C.3     1  UNL1        0.0007
     23 C         -10.5267  -19.5544   24.4921 C.3     1  UNL1        0.0036
     24 C         -10.3607  -19.4137   23.0080 C.3     1  UNL1        0.0407
     25 C          -9.3089  -17.6392   25.5679 C.3     1  UNL1        0.0122
     26 C          -8.4948  -16.3967   25.7768 C.3     1  UNL1        0.0688
     27 C          -9.2828  -17.5431   26.3379 C.3     1  UNL1        0.0086
     28 C          -8.3289  -16.2560   24.2927 C.3     1  UNL1        0.0122
     29 C          -7.8729  -15.3911   26.6997 C.2     1  UNL1        0.2184
     30 N          -6.4320  -15.0095   26.5319 N.am    1  UNL1       -0.3288
     31 O          -8.6918  -14.7670   27.7905 O.2     1  UNL1       -0.2754
     32 H          -5.8945  -15.4191   25.8160 H       1  UNL1        0.1449
     33 H          -6.0238  -14.3495   27.1377 H       1  UNL1        0.1449
@<TRIPOS>BOND
     1    16    17    3
     2    17    10    1
     3    10    11   ar
     4    11    12   ar
     5    12    13   ar
     6    13    14   ar
     7    14    15   ar
     8    15     8    1
     9     1     8    1
    10     1     2    1
    11     2     3    1
    12     3     4    1
    13     4     5   am
    14     5     6    2
    15     5    18    1
    16    19    18    1
    17    19    20    1
    18    20    21    1
    19    21    22    1
    20    22    23    1
    21    23    24    1
    22    24    25    1
    23    25    26    1
    24    26    29    1
    25    29    30   am
    26    29    31    2
    27    26    27    1
    28    26    28    1
    29     4     7    1
    30    15    10   ar
    31     7     1    1
    32    24    19    1
    33    28    20    1
    34    27    22    1
    35     8     9    1
    36    30    32    1
    37    30    33    1
@<TRIPOS>MOLECULE
*****
 33 37 0 0 0
SMALL
GASTEIGER

@<TRIPOS>ATOM
      1 C          -5.1050  -16.8171   23.4164 C.3     1  UNL1        0.0920
      2 C          -4.9770  -15.3716   23.7967 C.3     1  UNL1        0.0429
      3 C          -6.2030  -14.9854   24.5698 C.3     1  UNL1        0.0985
      4 N          -7.0887  -16.1921   24.6675 N.am    1  UNL1       -0.2443
      5 C          -8.4194  -16.2556   25.3569 C.2     1  UNL1        0.4048
      6 O          -8.9739  -15.0356   26.0309 O.2     1  UNL1       -0.2262
      7 C          -6.4102  -17.3241   23.9547 C.3     1  UNL1        0.1162
      8 N          -4.1037  -17.6152   22.6352 N.pl3   1  UNL1       -0.3175
      9 H          -3.1481  -17.3821   22.6767 H       1  UNL1        0.1482
     10 C          -3.6011  -19.4266   20.8419 C.ar    1  UNL1        0.0997
     11 C          -4.0557  -20.5800   19.9975 C.ar    1  UNL1        0.0147
     12 C          -5.4678  -21.0753   20.1021 C.ar    1  UNL1        0.0215
     13 C          -6.4251  -20.4172   21.0510 C.ar    1  UNL1        0.1003
     14 N          -5.9704  -19.2639   21.8954 N.ar    1  UNL1       -0.2287
     15 C          -4.5584  -18.7686   21.7908 C.ar    1  UNL1        0.1381
     16 N          -0.7771  -18.4360   20.6328 N.1     1  UNL1       -0.1907
     17 C          -2.1891  -18.9313   20.7373 C.1     1  UNL1        0.1032
     18 O          -9.1955  -17.5390   25.3723 O.3     1  UNL1       -0.4383
     19 C          -9.8177  -18.0545   24.1085 C.3     1  UNL1        0.1702
     20 C         -10.1808  -17.1016   23.0084 C.3     1  UNL1        0.0407
     21 C         -10.4399  -18.5700   22.8447 C.3     1  UNL1        0.0036
     22 C         -11.0620  -19.0854   21.5809 C.3     1  UNL1        0.0007
     23 C         -10.6989  -20.0383   22.6810 C.3     1  UNL1        0.0036
     24 C         -10.0768  -19.5229   23.9448 C.3     1  UNL1        0.0407
     25 C         -11.1060  -18.0620   21.1851 C.3     1  UNL1        0.0122
     26 C         -11.1661  -16.6641   20.6446 C.3     1  UNL1        0.0688
     27 C         -11.4251  -18.1325   20.4809 C.3     1  UNL1        0.0086
     28 C         -10.5439  -16.1487   21.9084 C.3     1  UNL1        0.0122
     29 C         -11.5292  -15.7112   19.5445 C.2     1  UNL1        0.2184
     30 N         -12.9600  -15.5691   19.1173 N.am    1  UNL1       -0.3288
     31 O         -10.4615  -14.9005   18.8717 O.2     1  UNL1       -0.2754
     32 H         -13.6608  -16.1012   19.5589 H       1  UNL1        0.1449
     33 H         -13.1983  -14.9436   18.3953 H       1  UNL1        0.1449
@<TRIPOS>BOND
     1    16    17    3
     2    17    10    1
     3    10    11   ar
     4    11    12   ar
     5    12    13   ar
     6    13    14   ar
     7    14    15   ar
     8    15     8    1
     9     1     8    1
    10     1     2    1
    11     2     3    1
    12     3     4    1
    13     4     5   am
    14     5     6    2
    15     5    18    1
    16    19    18    1
    17    19    20    1
    18    20    21    1
    19    21    22    1
    20    22    23    1
    21    23    24    1
    22    24    25    1
    23    25    26    1
    24    26    29    1
    25    29    30   am
    26    29    31    2
    27    26    27    1
    28    26    28    1
    29     4     7    1
    30    15    10   ar
    31     7     1    1
    32    24    19    1
    33    28    20    1
    34    27    22    1
    35     8     9    1
    36    30    32    1
    37    30    33    1
@<TRIPOS>MOLECULE
*****
 33 37 0 0 0
SMALL
GASTEIGER

@<TRIPOS>ATOM
      1 C          -4.5981  -17.4328   23.3090 C.3     1  UNL1        0.0920
      2 C          -4.3183  -15.9655   23.4458 C.3     1  UNL1        0.0429
      3 C          -5.5346  -15.3146   24.0348 C.3     1  UNL1        0.0985
      4 N          -6.5661  -16.3796   24.2621 N.am    1  UNL1       -0.2443
      5 C          -7.9360  -16.1720   24.8370 C.2     1  UNL1        0.4048
      6 O          -8.3786  -14.7975   25.2429 O.2     1  UNL1       -0.2262
      7 C          -5.9874  -17.6888   23.8135 C.3     1  UNL1        0.1162
      8 N          -3.6544  -18.4632   22.7635 N.pl3   1  UNL1       -0.3175
      9 H          -3.4842  -19.2912   23.2682 H       1  UNL1        0.1482
     10 C          -3.4402  -18.9545   20.2213 C.ar    1  UNL1        0.0997
     11 C          -2.7558  -18.7235   18.9068 C.ar    1  UNL1        0.0147
     12 C          -1.6009  -17.7701   18.8198 C.ar    1  UNL1        0.0215
     13 C          -1.1306  -17.0477   20.0474 C.ar    1  UNL1        0.1003
     14 N          -1.8151  -17.2788   21.3620 N.ar    1  UNL1       -0.2287
     15 C          -2.9699  -18.2322   21.4489 C.ar    1  UNL1        0.1381
     16 N          -5.7497  -20.8612   20.3953 N.1     1  UNL1       -0.1907
     17 C          -4.5950  -19.9079   20.3083 C.1     1  UNL1        0.1032
     18 O          -8.8632  -17.3389   25.0059 O.3     1  UNL1       -0.4383
     19 C          -9.6126  -17.8787   23.8239 C.3     1  UNL1        0.1702
     20 C         -10.0485  -16.9539   22.7263 C.3     1  UNL1        0.0407
     21 C         -10.3621  -18.4183   22.6420 C.3     1  UNL1        0.0036
     22 C         -11.1115  -18.9580   21.4601 C.3     1  UNL1        0.0007
     23 C         -10.6757  -19.8827   22.5577 C.3     1  UNL1        0.0036
     24 C          -9.9262  -19.3431   23.7397 C.3     1  UNL1        0.0407
     25 C         -11.1632  -17.9482   21.0317 C.3     1  UNL1        0.0122
     26 C         -11.2338  -16.5689   20.4467 C.3     1  UNL1        0.0688
     27 C         -11.5474  -18.0333   20.3624 C.3     1  UNL1        0.0086
     28 C         -10.4844  -16.0292   21.6286 C.3     1  UNL1        0.0122
     29 C         -11.6697  -15.6441   19.3490 C.2     1  UNL1        0.2184
     30 N         -13.1265  -15.5044   19.0203 N.am    1  UNL1       -0.3288
     31 O         -10.6488  -14.8591   18.5800 O.2     1  UNL1       -0.2754
     32 H         -13.7967  -16.0196   19.5250 H       1  UNL1        0.1449
     33 H         -13.4126  -14.8974   18.2999 H       1  UNL1        0.1449
@<TRIPOS>BOND
     1    16    17    3
     2    17    10    1
     3    10    11   ar
     4    11    12   ar
     5    12    13   ar
     6    13    14   ar
     7    14    15   ar
     8    15     8    1
     9     1     8    1
    10     1     2    1
    11     2     3    1
    12     3     4    1
    13     4     5   am
    14     5     6    2
    15     5    18    1
    16    19    18    1
    17    19    20    1
    18    20    21    1
    19    21    22    1
    20    22    23    1
    21    23    24    1
    22    24    25    1
    23    25    26    1
    24    26    29    1
    25    29    30   am
    26    29    31    2
    27    26    27    1
    28    26    28    1
    29     4     7    1
    30    15    10   ar
    31     7     1    1
    32    24    19    1
    33    28    20    1
    34    27    22    1
    35     8     9    1
    36    30    32    1
    37    30    33    1
@<TRIPOS>MOLECULE
*****
 33 37 0 0 0
SMALL
GASTEIGER

@<TRIPOS>ATOM
      1 C          -7.0990  -19.4445   20.6750 C.3     1  UNL1        0.0920
      2 C          -7.5667  -20.0982   19.4085 C.3     1  UNL1        0.0429
      3 C          -8.9769  -19.6559   19.1521 C.3     1  UNL1        0.0985
      4 N          -9.3807  -18.7289   20.2600 N.am    1  UNL1       -0.2443
      5 C         -10.7116  -18.0515   20.4019 C.2     1  UNL1        0.4048
      6 O         -11.7820  -18.2788   19.3760 O.2     1  UNL1       -0.2262
      7 C          -8.2202  -18.5982   21.2013 C.3     1  UNL1        0.1162
      8 N          -5.7475  -19.6083   21.3047 N.pl3   1  UNL1       -0.3175
      9 H          -5.2243  -20.4263   21.1417 H       1  UNL1        0.1482
     10 C          -3.7141  -18.4336   22.4162 C.ar    1  UNL1        0.0997
     11 C          -3.1596  -17.3512   23.2941 C.ar    1  UNL1        0.0147
     12 C          -4.0839  -16.3611   23.9387 C.ar    1  UNL1        0.0215
     13 C          -5.5628  -16.4535   23.7052 C.ar    1  UNL1        0.1003
     14 N          -6.1173  -17.5359   22.8272 N.ar    1  UNL1       -0.2287
     15 C          -5.1929  -18.5259   22.1827 C.ar    1  UNL1        0.1381
     16 N          -1.8655  -20.4137   21.1271 N.1     1  UNL1       -0.1907
     17 C          -2.7898  -19.4237   21.7717 C.1     1  UNL1        0.1032
     18 O         -10.9719  -17.1467   21.5695 O.3     1  UNL1       -0.4383
     19 C         -10.5875  -17.5789   22.9536 C.3     1  UNL1        0.1702
     20 C          -9.8252  -16.6451   23.8463 C.3     1  UNL1        0.0407
     21 C         -10.2031  -18.0110   24.3376 C.3     1  UNL1        0.0036
     22 C          -9.8187  -18.4431   25.7216 C.3     1  UNL1        0.0007
     23 C         -10.5810  -19.3770   24.8288 C.3     1  UNL1        0.0036
     24 C         -10.9654  -18.9448   23.4448 C.3     1  UNL1        0.0407
     25 C          -9.3368  -17.4712   25.8913 C.3     1  UNL1        0.0122
     26 C          -8.6786  -16.1434   26.1231 C.3     1  UNL1        0.0688
     27 C          -9.0565  -17.5093   26.6143 C.3     1  UNL1        0.0086
     28 C          -9.0630  -15.7113   24.7391 C.3     1  UNL1        0.0122
     29 C          -7.9164  -15.2096   27.0158 C.2     1  UNL1        0.2184
     30 N          -6.4402  -15.0256   26.8232 N.am    1  UNL1       -0.3288
     31 O          -8.6302  -14.4598   28.1012 O.2     1  UNL1       -0.2754
     32 H          -5.9717  -15.5177   26.1108 H       1  UNL1        0.1449
     33 H          -5.9400  -14.4127   27.4091 H       1  UNL1        0.1449
@<TRIPOS>BOND
     1    16    17    3
     2    17    10    1
     3    10    11   ar
     4    11    12   ar
     5    12    13   ar
     6    13    14   ar
     7    14    15   ar
     8    15     8    1
     9     1     8    1
    10     1     2    1
    11     2     3    1
    12     3     4    1
    13     4     5   am
    14     5     6    2
    15     5    18    1
    16    19    18    1
    17    19    20    1
    18    20    21    1
    19    21    22    1
    20    22    23    1
    21    23    24    1
    22    24    25    1
    23    25    26    1
    24    26    29    1
    25    29    30   am
    26    29    31    2
    27    26    27    1
    28    26    28    1
    29     4     7    1
    30    15    10   ar
    31     7     1    1
    32    24    19    1
    33    28    20    1
    34    27    22    1
    35     8     9    1
    36    30    32    1
    37    30    33    1
@<TRIPOS>MOLECULE
*****
 33 37 0 0 0
SMALL
GASTEIGER

@<TRIPOS>ATOM
      1 C          -5.2559  -20.2767   20.0663 C.3     1  UNL1        0.0920
      2 C          -5.8391  -21.6046   19.6833 C.3     1  UNL1        0.0429
      3 C          -7.3243  -21.4386   19.5539 C.3     1  UNL1        0.0985
      4 N          -7.6590  -20.0082   19.8569 N.am    1  UNL1       -0.2443
      5 C          -9.0311  -19.4022   19.8453 C.2     1  UNL1        0.4048
      6 O         -10.2222  -20.2492   19.5078 O.2     1  UNL1       -0.2262
      7 C          -6.3807  -19.2900   20.1736 C.3     1  UNL1        0.1162
      8 N          -3.8031  -19.9864   20.3008 N.pl3   1  UNL1       -0.3175
      9 H          -3.1143  -20.5469   19.8757 H       1  UNL1        0.1482
     10 C          -2.4588  -17.7937   20.6681 C.ar    1  UNL1        0.0997
     11 C          -2.0555  -16.6496   21.5502 C.ar    1  UNL1        0.0147
     12 C          -2.5930  -16.5541   22.9474 C.ar    1  UNL1        0.0215
     13 C          -3.5339  -17.6027   23.4623 C.ar    1  UNL1        0.1003
     14 N          -3.9373  -18.7468   22.5801 N.ar    1  UNL1       -0.2287
     15 C          -3.3997  -18.8423   21.1830 C.ar    1  UNL1        0.1381
     16 N          -1.3838  -17.9848   17.8738 N.1     1  UNL1       -0.1907
     17 C          -1.9213  -17.8892   19.2709 C.1     1  UNL1        0.1032
     18 O          -9.2121  -17.9493   20.1711 O.3     1  UNL1       -0.4383
     19 C          -9.4347  -17.5212   21.5914 C.3     1  UNL1        0.1702
     20 C          -8.3137  -16.9023   22.3727 C.3     1  UNL1        0.0407
     21 C          -9.6572  -17.0931   23.0117 C.3     1  UNL1        0.0036
     22 C          -9.8798  -16.6651   24.4320 C.3     1  UNL1        0.0007
     23 C         -11.0008  -17.2840   23.6508 C.3     1  UNL1        0.0036
     24 C         -10.7782  -17.7121   22.2305 C.3     1  UNL1        0.0407
     25 C          -8.8381  -16.3228   24.4921 C.3     1  UNL1        0.0122
     26 C          -7.4152  -15.8553   24.5741 C.3     1  UNL1        0.0688
     27 C          -8.7588  -16.0462   25.2132 C.3     1  UNL1        0.0086
     28 C          -7.1927  -16.2834   23.1539 C.3     1  UNL1        0.0122
     29 C          -6.2942  -15.2364   25.3554 C.2     1  UNL1        0.2184
     30 N          -6.3661  -15.1781   26.8525 N.am    1  UNL1       -0.3288
     31 O          -5.1013  -14.6757   24.6395 O.2     1  UNL1       -0.2754
     32 H          -7.1491  -15.5461   27.3224 H       1  UNL1        0.1449
     33 H          -5.6304  -14.7719   27.3652 H       1  UNL1        0.1449
@<TRIPOS>BOND
     1    16    17    3
     2    17    10    1
     3    10    11   ar
     4    11    12   ar
     5    12    13   ar
     6    13    14   ar
     7    14    15   ar
     8    15     8    1
     9     1     8    1
    10     1     2    1
    11     2     3    1
    12     3     4    1
    13     4     5   am
    14     5     6    2
    15     5    18    1
    16    19    18    1
    17    19    20    1
    18    20    21    1
    19    21    22    1
    20    22    23    1
    21    23    24    1
    22    24    25    1
    23    25    26    1
    24    26    29    1
    25    29    30   am
    26    29    31    2
    27    26    27    1
    28    26    28    1
    29     4     7    1
    30    15    10   ar
    31     7     1    1
    32    24    19    1
    33    28    20    1
    34    27    22    1
    35     8     9    1
    36    30    32    1
    37    30    33    1
@<TRIPOS>MOLECULE
*****
 33 37 0 0 0
SMALL
GASTEIGER

@<TRIPOS>ATOM
      1 C         -13.2469   -4.1712   19.5383 C.3     1  UNL1        0.0920
      2 C         -13.3327   -3.0449   20.5253 C.3     1  UNL1        0.0429
      3 C         -14.7638   -2.6017   20.5996 C.3     1  UNL1        0.0985
      4 N         -15.5624   -3.4540   19.6585 N.am    1  UNL1       -0.2443
      5 C         -17.0394   -3.3540   19.4159 C.2     1  UNL1        0.4048
      6 O         -17.8521   -2.3286   20.1493 O.2     1  UNL1       -0.2262
      7 C         -14.6250   -4.4240   19.0025 C.3     1  UNL1        0.1162
      8 N         -12.0016   -4.9141   19.1544 N.pl3   1  UNL1       -0.3175
      9 H         -11.7948   -5.7793   19.5762 H       1  UNL1        0.1482
     10 C          -9.9069   -5.1457   17.6350 C.ar    1  UNL1        0.0997
     11 C          -8.9767   -4.5705   16.6085 C.ar    1  UNL1        0.0147
     12 C          -9.2112   -3.1883   16.0747 C.ar    1  UNL1        0.0215
     13 C         -10.3758   -2.3815   16.5674 C.ar    1  UNL1        0.1003
     14 N         -11.3059   -2.9568   17.5940 N.ar    1  UNL1       -0.2287
     15 C         -11.0714   -4.3389   18.1278 C.ar    1  UNL1        0.1381
     16 N          -9.4381   -7.9098   18.7027 N.1     1  UNL1       -0.1907
     17 C          -9.6725   -6.5277   18.1688 C.1     1  UNL1        0.1032
     18 O         -17.7034   -4.2793   18.4398 O.3     1  UNL1       -0.4383
     19 C         -18.2359   -5.6026   18.9039 C.3     1  UNL1        0.1702
     20 C         -17.4432   -6.8541   18.6690 C.3     1  UNL1        0.0407
     21 C         -18.7684   -6.9259   19.3680 C.3     1  UNL1        0.0036
     22 C         -19.3008   -8.2491   19.8321 C.3     1  UNL1        0.0007
     23 C         -20.0936   -6.9976   20.0670 C.3     1  UNL1        0.0036
     24 C         -19.5611   -5.6743   19.6029 C.3     1  UNL1        0.0407
     25 C         -18.4056   -8.7478   19.4374 C.3     1  UNL1        0.0122
     26 C         -17.1828   -9.4289   18.8983 C.3     1  UNL1        0.0688
     27 C         -18.5080   -9.5007   19.5973 C.3     1  UNL1        0.0086
     28 C         -16.6504   -8.1057   18.4342 C.3     1  UNL1        0.0122
     29 C         -16.3900  -10.6804   18.6634 C.2     1  UNL1        0.2184
     30 N         -16.9533  -12.0115   19.0647 N.am    1  UNL1       -0.3288
     31 O         -15.0340  -10.6010   18.0271 O.2     1  UNL1       -0.2754
     32 H         -17.8433  -12.0636   19.4823 H       1  UNL1        0.1449
     33 H         -16.4329  -12.8329   18.9106 H       1  UNL1        0.1449
@<TRIPOS>BOND
     1    16    17    3
     2    17    10    1
     3    10    11   ar
     4    11    12   ar
     5    12    13   ar
     6    13    14   ar
     7    14    15   ar
     8    15     8    1
     9     1     8    1
    10     1     2    1
    11     2     3    1
    12     3     4    1
    13     4     5   am
    14     5     6    2
    15     5    18    1
    16    19    18    1
    17    19    20    1
    18    20    21    1
    19    21    22    1
    20    22    23    1
    21    23    24    1
    22    24    25    1
    23    25    26    1
    24    26    29    1
    25    29    30   am
    26    29    31    2
    27    26    27    1
    28    26    28    1
    29     4     7    1
    30    15    10   ar
    31     7     1    1
    32    24    19    1
    33    28    20    1
    34    27    22    1
    35     8     9    1
    36    30    32    1
    37    30    33    1
@<TRIPOS>MOLECULE
*****
 33 37 0 0 0
SMALL
GASTEIGER

@<TRIPOS>ATOM
      1 C         -14.7693   -3.8315   20.0428 C.3     1  UNL1        0.0920
      2 C         -14.9231   -2.4187   19.5628 C.3     1  UNL1        0.0429
      3 C         -16.3874   -2.1468   19.3837 C.3     1  UNL1        0.0985
      4 N         -17.1385   -3.3916   19.7530 N.am    1  UNL1       -0.2443
      5 C         -18.6281   -3.5648   19.7206 C.2     1  UNL1        0.4048
      6 O         -19.5062   -2.4279   19.2887 O.2     1  UNL1       -0.2262
      7 C         -16.1385   -4.4328   20.1603 C.3     1  UNL1        0.1162
      8 N         -13.4737   -4.5218   20.3512 N.pl3   1  UNL1       -0.3175
      9 H         -13.1010   -4.4852   21.2617 H       1  UNL1        0.1482
     10 C         -11.7403   -4.5566   18.4162 C.ar    1  UNL1        0.0997
     11 C         -11.0127   -5.3026   17.3373 C.ar    1  UNL1        0.0147
     12 C         -11.2907   -6.7597   17.1145 C.ar    1  UNL1        0.0215
     13 C         -12.2965   -7.4708   17.9706 C.ar    1  UNL1        0.1003
     14 N         -13.0242   -6.7248   19.0495 N.ar    1  UNL1       -0.2287
     15 C         -12.7460   -5.2677   19.2722 C.ar    1  UNL1        0.1381
     16 N         -11.1843   -1.6425   18.8619 N.1     1  UNL1       -0.1907
     17 C         -11.4623   -3.0996   18.6390 C.1     1  UNL1        0.1032
     18 O         -19.2397   -4.8749   20.1201 O.3     1  UNL1       -0.4383
     19 C         -19.3147   -6.0002   19.1310 C.3     1  UNL1        0.1702
     20 C         -18.3864   -7.1718   19.2562 C.3     1  UNL1        0.0407
     21 C         -19.3897   -7.1255   18.1421 C.3     1  UNL1        0.0036
     22 C         -19.4646   -8.2508   17.1531 C.3     1  UNL1        0.0007
     23 C         -20.3929   -7.0792   17.0279 C.3     1  UNL1        0.0036
     24 C         -20.3179   -5.9539   18.0169 C.3     1  UNL1        0.0407
     25 C         -18.6483   -8.7656   17.6769 C.3     1  UNL1        0.0122
     26 C         -17.5332   -9.4687   18.3924 C.3     1  UNL1        0.0688
     27 C         -18.5364   -9.4224   17.2783 C.3     1  UNL1        0.0086
     28 C         -17.4582   -8.3434   19.3814 C.3     1  UNL1        0.0122
     29 C         -16.6049  -10.6403   18.5176 C.2     1  UNL1        0.2184
     30 N         -17.0898  -11.9188   19.1342 N.am    1  UNL1       -0.3288
     31 O         -15.1918  -10.5334   18.0261 O.2     1  UNL1       -0.2754
     32 H         -18.0173  -11.9890   19.4567 H       1  UNL1        0.1449
     33 H         -16.4805  -12.6878   19.2163 H       1  UNL1        0.1449
@<TRIPOS>BOND
     1    16    17    3
     2    17    10    1
     3    10    11   ar
     4    11    12   ar
     5    12    13   ar
     6    13    14   ar
     7    14    15   ar
     8    15     8    1
     9     1     8    1
    10     1     2    1
    11     2     3    1
    12     3     4    1
    13     4     5   am
    14     5     6    2
    15     5    18    1
    16    19    18    1
    17    19    20    1
    18    20    21    1
    19    21    22    1
    20    22    23    1
    21    23    24    1
    22    24    25    1
    23    25    26    1
    24    26    29    1
    25    29    30   am
    26    29    31    2
    27    26    27    1
    28    26    28    1
    29     4     7    1
    30    15    10   ar
    31     7     1    1
    32    24    19    1
    33    28    20    1
    34    27    22    1
    35     8     9    1
    36    30    32    1
    37    30    33    1
@<TRIPOS>MOLECULE
*****
 33 37 0 0 0
SMALL
GASTEIGER

@<TRIPOS>ATOM
      1 C         -13.2968   -3.9555   16.7820 C.3     1  UNL1        0.0920
      2 C         -13.7008   -2.5863   16.3212 C.3     1  UNL1        0.0429
      3 C         -14.8617   -2.1390   17.1591 C.3     1  UNL1        0.0985
      4 N         -15.1752   -3.2316   18.1378 N.am    1  UNL1       -0.2443
      5 C         -16.2647   -3.2061   19.1686 C.2     1  UNL1        0.4048
      6 O         -17.1592   -2.0077   19.2850 O.2     1  UNL1       -0.2262
      7 C         -14.2081   -4.3543   17.9048 C.3     1  UNL1        0.1162
      8 N         -12.1780   -4.7808   16.2189 N.pl3   1  UNL1       -0.3175
      9 H         -12.0282   -4.8088   15.2463 H       1  UNL1        0.1482
     10 C         -10.5458   -4.8649   18.2385 C.ar    1  UNL1        0.0997
     11 C          -9.6553   -5.6476   19.1573 C.ar    1  UNL1        0.0147
     12 C          -9.5065   -7.1291   18.9753 C.ar    1  UNL1        0.0215
     13 C         -10.2481   -7.8278   17.8746 C.ar    1  UNL1        0.1003
     14 N         -11.1387   -7.0451   16.9557 N.ar    1  UNL1       -0.2287
     15 C         -11.2875   -5.5636   17.1378 C.ar    1  UNL1        0.1381
     16 N         -10.8436   -1.9020   18.6024 N.1     1  UNL1       -0.1907
     17 C         -10.6947   -3.3834   18.4205 C.1     1  UNL1        0.1032
     18 O         -16.4595   -4.3791   20.0831 O.3     1  UNL1       -0.4383
     19 C         -17.3283   -5.5256   19.6577 C.3     1  UNL1        0.1702
     20 C         -16.7308   -6.8877   19.4639 C.3     1  UNL1        0.0407
     21 C         -18.1970   -6.6720   19.2323 C.3     1  UNL1        0.0036
     22 C         -19.0657   -7.8185   18.8069 C.3     1  UNL1        0.0007
     23 C         -19.6632   -6.4563   19.0007 C.3     1  UNL1        0.0036
     24 C         -18.7945   -5.3099   19.4260 C.3     1  UNL1        0.0407
     25 C         -18.1934   -8.4854   18.8229 C.3     1  UNL1        0.0122
     26 C         -17.0019   -9.3963   18.8448 C.3     1  UNL1        0.0688
     27 C         -18.4681   -9.1806   18.6132 C.3     1  UNL1        0.0086
     28 C         -16.1333   -8.2498   19.2702 C.3     1  UNL1        0.0122
     29 C         -16.4044  -10.7584   18.6511 C.2     1  UNL1        0.2184
     30 N         -17.1407  -11.9751   19.1280 N.am    1  UNL1       -0.3288
     31 O         -15.0707  -10.9039   17.9804 O.2     1  UNL1       -0.2754
     32 H         -18.0161  -11.8797   19.5682 H       1  UNL1        0.1449
     33 H         -16.7485  -12.8692   19.0008 H       1  UNL1        0.1449
@<TRIPOS>BOND
     1    16    17    3
     2    17    10    1
     3    10    11   ar
     4    11    12   ar
     5    12    13   ar
     6    13    14   ar
     7    14    15   ar
     8    15     8    1
     9     1     8    1
    10     1     2    1
    11     2     3    1
    12     3     4    1
    13     4     5   am
    14     5     6    2
    15     5    18    1
    16    19    18    1
    17    19    20    1
    18    20    21    1
    19    21    22    1
    20    22    23    1
    21    23    24    1
    22    24    25    1
    23    25    26    1
    24    26    29    1
    25    29    30   am
    26    29    31    2
    27    26    27    1
    28    26    28    1
    29     4     7    1
    30    15    10   ar
    31     7     1    1
    32    24    19    1
    33    28    20    1
    34    27    22    1
    35     8     9    1
    36    30    32    1
    37    30    33    1
@<TRIPOS>MOLECULE
*****
 33 37 0 0 0
SMALL
GASTEIGER

@<TRIPOS>ATOM
      1 C         -16.7242   -2.2276   19.7186 C.3     1  UNL1        0.0920
      2 C         -17.9706   -2.1119   18.8921 C.3     1  UNL1        0.0429
      3 C         -18.3912   -3.4949   18.4915 C.3     1  UNL1        0.0985
      4 N         -17.4047   -4.4653   19.0703 N.am    1  UNL1       -0.2443
      5 C         -17.4419   -5.9571   18.9176 C.2     1  UNL1        0.4048
      6 O         -18.5400   -6.6027   18.1255 O.2     1  UNL1       -0.2262
      7 C         -16.3744   -3.6822   19.8288 C.3     1  UNL1        0.1162
      8 N         -15.9614   -1.0888   20.3279 N.pl3   1  UNL1       -0.3175
      9 H         -15.6203   -1.1615   21.2486 H       1  UNL1        0.1482
     10 C         -14.5278    0.2533   18.6269 C.ar    1  UNL1        0.0997
     11 C         -14.2848    1.5028   17.8335 C.ar    1  UNL1        0.0147
     12 C         -15.2325    2.6600   17.9479 C.ar    1  UNL1        0.0215
     13 C         -16.4230    2.5676   18.8556 C.ar    1  UNL1        0.1003
     14 N         -16.6661    1.3180   19.6490 N.ar    1  UNL1       -0.2287
     15 C         -15.7184    0.1608   19.5346 C.ar    1  UNL1        0.1381
     16 N         -12.6328   -2.0611   18.3982 N.1     1  UNL1       -0.1907
     17 C         -13.5803   -0.9039   18.5125 C.1     1  UNL1        0.1032
     18 O         -16.3811   -6.8031   19.5570 O.3     1  UNL1       -0.4383
     19 C         -15.0930   -7.0642   18.8340 C.3     1  UNL1        0.1702
     20 C         -13.8607   -6.2882   19.1934 C.3     1  UNL1        0.0407
     21 C         -13.8049   -7.3251   18.1111 C.3     1  UNL1        0.0036
     22 C         -12.5168   -7.5861   17.3881 C.3     1  UNL1        0.0007
     23 C         -13.7492   -8.3621   17.0287 C.3     1  UNL1        0.0036
     24 C         -15.0373   -8.1011   17.7516 C.3     1  UNL1        0.0407
     25 C         -12.0195   -6.8199   17.9975 C.3     1  UNL1        0.0122
     26 C         -11.3402   -5.7732   18.8300 C.3     1  UNL1        0.0688
     27 C         -11.2845   -6.8101   17.7476 C.3     1  UNL1        0.0086
     28 C         -12.6283   -5.5122   19.5529 C.3     1  UNL1        0.0122
     29 C         -10.1079   -4.9972   19.1894 C.2     1  UNL1        0.2184
     30 N         -10.0547   -3.5183   18.9444 N.am    1  UNL1       -0.3288
     31 O          -8.9287   -5.7001   19.7939 O.2     1  UNL1       -0.2754
     32 H         -10.8287   -3.0570   18.5477 H       1  UNL1        0.1449
     33 H          -9.2459   -3.0091   19.1803 H       1  UNL1        0.1449
@<TRIPOS>BOND
     1    16    17    3
     2    17    10    1
     3    10    11   ar
     4    11    12   ar
     5    12    13   ar
     6    13    14   ar
     7    14    15   ar
     8    15     8    1
     9     1     8    1
    10     1     2    1
    11     2     3    1
    12     3     4    1
    13     4     5   am
    14     5     6    2
    15     5    18    1
    16    19    18    1
    17    19    20    1
    18    20    21    1
    19    21    22    1
    20    22    23    1
    21    23    24    1
    22    24    25    1
    23    25    26    1
    24    26    29    1
    25    29    30   am
    26    29    31    2
    27    26    27    1
    28    26    28    1
    29     4     7    1
    30    15    10   ar
    31     7     1    1
    32    24    19    1
    33    28    20    1
    34    27    22    1
    35     8     9    1
    36    30    32    1
    37    30    33    1
