@<TRIPOS>MOLECULE
*****
 31 33 0 0 0
SMALL
GASTEIGER

@<TRIPOS>ATOM
      1 C          -6.3925  -18.2678   22.3732 C.ar    1  UNL1        0.1393
      2 N          -4.9440  -18.5989   22.1671 N.ar    1  UNL1       -0.2155
      3 C          -3.8834  -17.7640   22.8214 C.ar    1  UNL1        0.1343
      4 C          -4.2713  -16.5981   23.6818 C.ar    1  UNL1        0.0310
      5 C          -5.7197  -16.2670   23.8878 C.ar    1  UNL1       -0.0067
      6 C          -6.1075  -15.1011   24.7483 C.3     1  UNL1        0.0319
      7 C          -6.7803  -17.1019   23.2335 C.ar    1  UNL1        0.0959
      8 N          -7.4531  -19.1026   21.7188 N.pl3   1  UNL1       -0.3145
      9 H          -8.1436  -19.5399   22.2676 H       1  UNL1        0.1483
     10 C          -7.4615  -19.2712   20.2283 C.3     1  UNL1        0.1362
     11 C          -8.7583  -19.4834   19.5049 C.3     1  UNL1        0.2266
     12 O          -9.7863  -18.3916   19.4723 O.3     1  UNL1       -0.4724
     13 C         -13.7310  -17.8501   23.9608 C.3     1  UNL1        0.0521
     14 C         -12.7448  -17.9855   22.8387 C.ar    1  UNL1        0.0592
     15 C         -11.8390  -19.1794   22.7762 C.ar    1  UNL1        0.0178
     16 C         -10.8528  -19.3148   21.6541 C.ar    1  UNL1        0.0393
     17 C         -10.7725  -18.2562   20.5944 C.ar    1  UNL1        0.1520
     18 C         -11.6783  -17.0623   20.6569 C.ar    1  UNL1        0.0927
     19 C         -11.5980  -16.0037   19.5971 C.3     1  UNL1        0.0553
     20 N         -12.6645  -16.9269   21.7790 N.ar    1  UNL1       -0.2509
     21 N          -2.4350  -18.0950   22.6154 N.pl3   1  UNL1       -0.2837
     22 H          -1.8782  -18.3660   23.3808 H       1  UNL1        0.1550
     23 C          -1.8348  -18.0132   21.2431 C.ar    1  UNL1        0.1276
     24 C          -2.5863  -17.7920   19.9639 C.ar    1  UNL1        0.0503
     25 C          -1.5938  -17.7803   18.8393 C.ar    1  UNL1        0.0815
     26 C          -1.9105  -17.5884   17.3858 C.3     1  UNL1        0.0540
     27 N          -0.2288  -17.9944   19.4234 N.ar    1  UNL1       -0.1760
     28 N          -0.3778  -18.1383   20.9091 N.ar    1  UNL1       -0.2631
     29 H           0.3524  -18.2885   21.5521 H       1  UNL1        0.1903
     30 C          -8.2287  -16.7708   23.4396 C.1     1  UNL1        0.1029
     31 N          -9.6771  -16.4398   23.6456 N.1     1  UNL1       -0.1907
@<TRIPOS>BOND
     1    13    14    1
     2    14    15   ar
     3    15    16   ar
     4    16    17   ar
     5    17    12    1
     6    12    11    1
     7    11    10    1
     8    10     8    1
     9     8     1    1
    10     1     2   ar
    11     2     3   ar
    12     3    21    1
    13    21    23    1
    14    23    24   ar
    15    24    25   ar
    16    25    26    1
    17    25    27   ar
    18    27    28   ar
    19     3     4   ar
    20     4     5   ar
    21     5     6    1
    22     5     7   ar
    23     7    30    1
    24    30    31    3
    25    17    18   ar
    26    18    19    1
    27    18    20   ar
    28    20    14   ar
    29     7     1   ar
    30    28    23   ar
    31     8     9    1
    32    21    22    1
    33    28    29    1
@<TRIPOS>MOLECULE
*****
 31 33 0 0 0
SMALL
GASTEIGER

@<TRIPOS>ATOM
      1 C          -9.5078  -18.1346   21.3479 C.ar    1  UNL1        0.1393
      2 N          -8.1837  -18.7543   21.0117 N.ar    1  UNL1       -0.2155
      3 C          -7.6140  -19.8287   21.8897 C.ar    1  UNL1        0.1343
      4 C          -8.3684  -20.2835   23.1039 C.ar    1  UNL1        0.0310
      5 C          -9.6923  -19.6638   23.4400 C.ar    1  UNL1       -0.0067
      6 C         -10.4467  -20.1186   24.6542 C.3     1  UNL1        0.0319
      7 C         -10.2621  -18.5894   22.5620 C.ar    1  UNL1        0.0959
      8 N         -10.0775  -17.0601   20.4698 N.pl3   1  UNL1       -0.3145
      9 H         -10.4178  -17.2854   19.5739 H       1  UNL1        0.1483
     10 C         -10.1287  -15.6422   20.9569 C.3     1  UNL1        0.1362
     11 C          -8.8561  -14.8983   21.2347 C.3     1  UNL1        0.2266
     12 O          -7.6987  -15.6051   21.8756 O.3     1  UNL1       -0.4724
     13 C          -7.1409  -15.6416   27.8495 C.3     1  UNL1        0.0521
     14 C          -7.2803  -15.6325   26.3560 C.ar    1  UNL1        0.0592
     15 C          -8.6274  -15.8329   25.7273 C.ar    1  UNL1        0.0178
     16 C          -8.7668  -15.8238   24.2338 C.ar    1  UNL1        0.0393
     17 C          -7.5593  -15.6142   23.3691 C.ar    1  UNL1        0.1520
     18 C          -6.2123  -15.4138   23.9978 C.ar    1  UNL1        0.0927
     19 C          -5.0046  -15.2042   23.1330 C.3     1  UNL1        0.0553
     20 N          -6.0728  -15.4229   25.4913 N.ar    1  UNL1       -0.2509
     21 N          -6.2901  -20.4484   21.5535 N.pl3   1  UNL1       -0.2837
     22 H          -6.1105  -21.3863   21.7932 H       1  UNL1        0.1550
     23 C          -5.2397  -19.6392   20.8523 C.ar    1  UNL1        0.1276
     24 C          -3.7660  -19.6772   21.1298 C.ar    1  UNL1        0.0503
     25 C          -3.0940  -18.7114   20.1995 C.ar    1  UNL1        0.0815
     26 C          -1.6222  -18.4299   20.1333 C.3     1  UNL1        0.0540
     27 N          -4.1523  -18.0763   19.3469 N.ar    1  UNL1       -0.1760
     28 N          -5.4784  -18.6498   19.7504 N.ar    1  UNL1       -0.2631
     29 H          -6.3521  -18.4176   19.3605 H       1  UNL1        0.1903
     30 C         -11.5861  -17.9697   22.8982 C.1     1  UNL1        0.1029
     31 N         -12.9101  -17.3500   23.2344 N.1     1  UNL1       -0.1907
@<TRIPOS>BOND
     1    13    14    1
     2    14    15   ar
     3    15    16   ar
     4    16    17   ar
     5    17    12    1
     6    12    11    1
     7    11    10    1
     8    10     8    1
     9     8     1    1
    10     1     2   ar
    11     2     3   ar
    12     3    21    1
    13    21    23    1
    14    23    24   ar
    15    24    25   ar
    16    25    26    1
    17    25    27   ar
    18    27    28   ar
    19     3     4   ar
    20     4     5   ar
    21     5     6    1
    22     5     7   ar
    23     7    30    1
    24    30    31    3
    25    17    18   ar
    26    18    19    1
    27    18    20   ar
    28    20    14   ar
    29     7     1   ar
    30    28    23   ar
    31     8     9    1
    32    21    22    1
    33    28    29    1
@<TRIPOS>MOLECULE
*****
 31 33 0 0 0
SMALL
GASTEIGER

@<TRIPOS>ATOM
      1 C          -7.8805  -18.2588   20.5839 C.ar    1  UNL1        0.1393
      2 N          -7.9764  -17.1753   21.6168 N.ar    1  UNL1       -0.2155
      3 C          -9.3153  -16.7753   22.1621 C.ar    1  UNL1        0.1343
      4 C         -10.5583  -17.4588   21.6744 C.ar    1  UNL1        0.0310
      5 C         -10.4624  -18.5423   20.6415 C.ar    1  UNL1       -0.0067
      6 C         -11.7054  -19.2258   20.1538 C.3     1  UNL1        0.0319
      7 C          -9.1234  -18.9423   20.0962 C.ar    1  UNL1        0.0959
      8 N          -6.5415  -18.6588   20.0386 N.pl3   1  UNL1       -0.3145
      9 H          -6.0953  -18.0946   19.3664 H       1  UNL1        0.1483
     10 C          -5.8826  -19.9184   20.5175 C.3     1  UNL1        0.1362
     11 C          -5.7919  -20.2054   21.9870 C.3     1  UNL1        0.2266
     12 O          -4.5357  -19.8790   22.7389 O.3     1  UNL1       -0.4724
     13 C          -0.1237  -16.8427   20.0342 C.3     1  UNL1        0.0521
     14 C          -1.2267  -17.6018   20.7103 C.ar    1  UNL1        0.0592
     15 C          -1.4608  -19.0444   20.3728 C.ar    1  UNL1        0.0178
     16 C          -2.5638  -19.8034   21.0489 C.ar    1  UNL1        0.0393
     17 C          -3.4327  -19.1199   22.0627 C.ar    1  UNL1        0.1520
     18 C          -3.1986  -17.6773   22.4003 C.ar    1  UNL1        0.0927
     19 C          -4.0675  -16.9936   23.4141 C.3     1  UNL1        0.0553
     20 N          -2.0956  -16.9182   21.7241 N.ar    1  UNL1       -0.2509
     21 N          -9.4112  -15.6919   23.1949 N.pl3   1  UNL1       -0.2837
     22 H         -10.2115  -15.1198   23.2355 H       1  UNL1        0.1550
     23 C          -8.2879  -15.4800   24.1661 C.ar    1  UNL1        0.1276
     24 C          -8.2753  -15.9022   25.6055 C.ar    1  UNL1        0.0503
     25 C          -6.9595  -15.4918   26.1974 C.ar    1  UNL1        0.0815
     26 C          -6.5213  -15.7176   27.6140 C.3     1  UNL1        0.0540
     27 N          -6.1589  -14.8159   25.1239 N.ar    1  UNL1       -0.1760
     28 N          -6.9799  -14.8086   23.8685 N.ar    1  UNL1       -0.2631
     29 H          -6.7080  -14.4298   23.0014 H       1  UNL1        0.1903
     30 C          -9.0275  -20.0258   19.0633 C.1     1  UNL1        0.1029
     31 N          -8.9317  -21.1092   18.0304 N.1     1  UNL1       -0.1907
@<TRIPOS>BOND
     1    13    14    1
     2    14    15   ar
     3    15    16   ar
     4    16    17   ar
     5    17    12    1
     6    12    11    1
     7    11    10    1
     8    10     8    1
     9     8     1    1
    10     1     2   ar
    11     2     3   ar
    12     3    21    1
    13    21    23    1
    14    23    24   ar
    15    24    25   ar
    16    25    26    1
    17    25    27   ar
    18    27    28   ar
    19     3     4   ar
    20     4     5   ar
    21     5     6    1
    22     5     7   ar
    23     7    30    1
    24    30    31    3
    25    17    18   ar
    26    18    19    1
    27    18    20   ar
    28    20    14   ar
    29     7     1   ar
    30    28    23   ar
    31     8     9    1
    32    21    22    1
    33    28    29    1
@<TRIPOS>MOLECULE
*****
 31 33 0 0 0
SMALL
GASTEIGER

@<TRIPOS>ATOM
      1 C          -5.3787  -18.9068   21.9257 C.ar    1  UNL1        0.1393
      2 N          -5.6645  -17.7370   22.8201 N.ar    1  UNL1       -0.2155
      3 C          -4.5648  -16.7830   23.1816 C.ar    1  UNL1        0.1343
      4 C          -3.1793  -16.9989   22.6487 C.ar    1  UNL1        0.0310
      5 C          -2.8936  -18.1687   21.7544 C.ar    1  UNL1       -0.0067
      6 C          -1.5081  -18.3846   21.2216 C.3     1  UNL1        0.0319
      7 C          -3.9932  -19.1227   21.3929 C.ar    1  UNL1        0.0959
      8 N          -6.4783  -19.8608   21.5642 N.pl3   1  UNL1       -0.3145
      9 H          -6.7424  -20.5693   22.1947 H       1  UNL1        0.1483
     10 C          -7.1757  -19.7352   20.2421 C.3     1  UNL1        0.1362
     11 C          -8.5798  -19.2108   20.1815 C.3     1  UNL1        0.2266
     12 O          -8.9649  -18.0040   20.9848 O.3     1  UNL1       -0.4724
     13 C         -13.9786  -18.0687   24.2801 C.3     1  UNL1        0.0521
     14 C         -12.7252  -18.0525   23.4563 C.ar    1  UNL1        0.0592
     15 C         -11.4628  -18.6534   23.9996 C.ar    1  UNL1        0.0178
     16 C         -10.2094  -18.6372   23.1757 C.ar    1  UNL1        0.0393
     17 C         -10.2183  -18.0202   21.8086 C.ar    1  UNL1        0.1520
     18 C         -11.4807  -17.4193   21.2653 C.ar    1  UNL1        0.0927
     19 C         -11.4898  -16.8021   19.8981 C.3     1  UNL1        0.0553
     20 N         -12.7342  -17.4354   22.0891 N.ar    1  UNL1       -0.2509
     21 N          -4.8506  -15.6132   24.0759 N.pl3   1  UNL1       -0.2837
     22 H          -4.1636  -14.9223   24.2174 H       1  UNL1        0.1550
     23 C          -6.1830  -15.4960   24.7547 C.ar    1  UNL1        0.1276
     24 C          -6.4160  -15.4349   26.2353 C.ar    1  UNL1        0.0503
     25 C          -7.8935  -15.3204   26.4677 C.ar    1  UNL1        0.0815
     26 C          -8.5716  -15.2313   27.8026 C.3     1  UNL1        0.0540
     27 N          -8.5737  -15.3108   25.1308 N.ar    1  UNL1       -0.1760
     28 N          -7.5166  -15.4193   24.0721 N.ar    1  UNL1       -0.2631
     29 H          -7.6709  -15.4371   23.0999 H       1  UNL1        0.1903
     30 C          -3.7074  -20.2926   20.4986 C.1     1  UNL1        0.1029
     31 N          -3.4215  -21.4623   19.6043 N.1     1  UNL1       -0.1907
@<TRIPOS>BOND
     1    13    14    1
     2    14    15   ar
     3    15    16   ar
     4    16    17   ar
     5    17    12    1
     6    12    11    1
     7    11    10    1
     8    10     8    1
     9     8     1    1
    10     1     2   ar
    11     2     3   ar
    12     3    21    1
    13    21    23    1
    14    23    24   ar
    15    24    25   ar
    16    25    26    1
    17    25    27   ar
    18    27    28   ar
    19     3     4   ar
    20     4     5   ar
    21     5     6    1
    22     5     7   ar
    23     7    30    1
    24    30    31    3
    25    17    18   ar
    26    18    19    1
    27    18    20   ar
    28    20    14   ar
    29     7     1   ar
    30    28    23   ar
    31     8     9    1
    32    21    22    1
    33    28    29    1
@<TRIPOS>MOLECULE
*****
 31 33 0 0 0
SMALL
GASTEIGER

@<TRIPOS>ATOM
      1 C          -7.8274  -15.7981   23.8309 C.ar    1  UNL1        0.1393
      2 N          -8.5556  -16.3957   22.6636 N.ar    1  UNL1       -0.2155
      3 C          -9.6134  -17.4345   22.8916 C.ar    1  UNL1        0.1343
      4 C          -9.9430  -17.8756   24.2870 C.ar    1  UNL1        0.0310
      5 C          -9.2147  -17.2780   25.4542 C.ar    1  UNL1       -0.0067
      6 C          -9.5442  -17.7191   26.8495 C.3     1  UNL1        0.0319
      7 C          -8.1569  -16.2392   25.2261 C.ar    1  UNL1        0.0959
      8 N          -6.7696  -14.7593   23.6028 N.pl3   1  UNL1       -0.3145
      9 H          -7.0164  -13.8074   23.5559 H       1  UNL1        0.1483
     10 C          -5.3356  -15.1709   23.4462 C.3     1  UNL1        0.1362
     11 C          -4.6995  -16.0740   24.4610 C.3     1  UNL1        0.2266
     12 O          -4.0847  -17.3722   24.0290 O.3     1  UNL1       -0.4724
     13 C          -1.7461  -17.9006   18.5288 C.3     1  UNL1        0.0521
     14 C          -2.3308  -17.7685   19.9038 C.ar    1  UNL1        0.0592
     15 C          -1.7834  -16.7474   20.8566 C.ar    1  UNL1        0.0178
     16 C          -2.3681  -16.6153   22.2317 C.ar    1  UNL1        0.0393
     17 C          -3.5001  -17.5043   22.6539 C.ar    1  UNL1        0.1520
     18 C          -4.0474  -18.5253   21.7011 C.ar    1  UNL1        0.0927
     19 C          -5.1794  -19.4143   22.1234 C.3     1  UNL1        0.0553
     20 N          -3.4627  -18.6574   20.3261 N.ar    1  UNL1       -0.2509
     21 N         -10.3417  -18.0322   21.7244 N.pl3   1  UNL1       -0.2837
     22 H         -11.3231  -17.9725   21.6736 H       1  UNL1        0.1550
     23 C          -9.5747  -18.7207   20.6347 C.ar    1  UNL1        0.1276
     24 C         -10.1264  -19.7268   19.6685 C.ar    1  UNL1        0.0503
     25 C          -9.0140  -20.1520   18.7564 C.ar    1  UNL1        0.0815
     26 C          -9.1219  -21.1459   17.6382 C.3     1  UNL1        0.0540
     27 N          -7.7748  -19.4086   19.1588 N.ar    1  UNL1       -0.1760
     28 N          -8.1214  -18.5240   20.3197 N.ar    1  UNL1       -0.2631
     29 H          -7.5035  -17.9204   20.7919 H       1  UNL1        0.1903
     30 C          -7.4286  -15.6415   26.3934 C.1     1  UNL1        0.1029
     31 N          -6.7004  -15.0439   27.5606 N.1     1  UNL1       -0.1907
@<TRIPOS>BOND
     1    13    14    1
     2    14    15   ar
     3    15    16   ar
     4    16    17   ar
     5    17    12    1
     6    12    11    1
     7    11    10    1
     8    10     8    1
     9     8     1    1
    10     1     2   ar
    11     2     3   ar
    12     3    21    1
    13    21    23    1
    14    23    24   ar
    15    24    25   ar
    16    25    26    1
    17    25    27   ar
    18    27    28   ar
    19     3     4   ar
    20     4     5   ar
    21     5     6    1
    22     5     7   ar
    23     7    30    1
    24    30    31    3
    25    17    18   ar
    26    18    19    1
    27    18    20   ar
    28    20    14   ar
    29     7     1   ar
    30    28    23   ar
    31     8     9    1
    32    21    22    1
    33    28    29    1
@<TRIPOS>MOLECULE
*****
 31 33 0 0 0
SMALL
GASTEIGER

@<TRIPOS>ATOM
      1 C          -9.2389  -18.6323   22.2598 C.ar    1  UNL1        0.1393
      2 N          -9.1406  -17.6856   23.4193 N.ar    1  UNL1       -0.2155
      3 C          -9.8286  -16.3540   23.3606 C.ar    1  UNL1        0.1343
      4 C         -10.6149  -15.9690   22.1425 C.ar    1  UNL1        0.0310
      5 C         -10.7131  -16.9157   20.9831 C.ar    1  UNL1       -0.0067
      6 C         -11.4994  -16.5307   19.7650 C.3     1  UNL1        0.0319
      7 C         -10.0251  -18.2473   21.0418 C.ar    1  UNL1        0.0959
      8 N          -8.5509  -19.9639   22.3185 N.pl3   1  UNL1       -0.3145
      9 H          -9.0411  -20.7578   22.6326 H       1  UNL1        0.1483
     10 C          -7.1161  -20.0859   21.8985 C.3     1  UNL1        0.1362
     11 C          -6.1623  -18.9560   22.1502 C.3     1  UNL1        0.2266
     12 O          -4.7823  -19.2399   22.6650 O.3     1  UNL1       -0.4724
     13 C          -0.0006  -16.9682   19.8411 C.3     1  UNL1        0.0521
     14 C          -1.1960  -17.5361   20.5470 C.ar    1  UNL1        0.0592
     15 C          -1.7199  -16.8734   21.7865 C.ar    1  UNL1        0.0178
     16 C          -2.9154  -17.4413   22.4925 C.ar    1  UNL1        0.0393
     17 C          -3.5869  -18.6719   21.9590 C.ar    1  UNL1        0.1520
     18 C          -3.0629  -19.3346   20.7196 C.ar    1  UNL1        0.0927
     19 C          -3.7344  -20.5653   20.1860 C.3     1  UNL1        0.0553
     20 N          -1.8675  -18.7667   20.0136 N.ar    1  UNL1       -0.2509
     21 N          -9.7304  -15.4073   24.5199 N.pl3   1  UNL1       -0.2837
     22 H         -10.4872  -14.8169   24.7389 H       1  UNL1        0.1550
     23 C          -8.4791  -15.3602   25.3457 C.ar    1  UNL1        0.1276
     24 C          -7.0749  -15.4406   24.8242 C.ar    1  UNL1        0.0503
     25 C          -6.1402  -15.3545   25.9941 C.ar    1  UNL1        0.0815
     26 C          -4.6421  -15.3949   25.9306 C.3     1  UNL1        0.0540
     27 N          -6.9666  -15.2209   27.2389 N.ar    1  UNL1       -0.1760
     28 N          -8.4121  -15.2244   26.8381 N.ar    1  UNL1       -0.2631
     29 H          -9.1818  -15.1506   27.4475 H       1  UNL1        0.1903
     30 C         -10.1234  -19.1940   19.8824 C.1     1  UNL1        0.1029
     31 N         -10.2217  -20.1406   18.7230 N.1     1  UNL1       -0.1907
@<TRIPOS>BOND
     1    13    14    1
     2    14    15   ar
     3    15    16   ar
     4    16    17   ar
     5    17    12    1
     6    12    11    1
     7    11    10    1
     8    10     8    1
     9     8     1    1
    10     1     2   ar
    11     2     3   ar
    12     3    21    1
    13    21    23    1
    14    23    24   ar
    15    24    25   ar
    16    25    26    1
    17    25    27   ar
    18    27    28   ar
    19     3     4   ar
    20     4     5   ar
    21     5     6    1
    22     5     7   ar
    23     7    30    1
    24    30    31    3
    25    17    18   ar
    26    18    19    1
    27    18    20   ar
    28    20    14   ar
    29     7     1   ar
    30    28    23   ar
    31     8     9    1
    32    21    22    1
    33    28    29    1
@<TRIPOS>MOLECULE
*****
 31 33 0 0 0
SMALL
GASTEIGER

@<TRIPOS>ATOM
      1 C          -6.8667  -15.8408   23.8366 C.ar    1  UNL1        0.1393
      2 N          -7.9396  -16.6374   23.1551 N.ar    1  UNL1       -0.2155
      3 C          -9.1080  -17.1505   23.9436 C.ar    1  UNL1        0.1343
      4 C          -9.2033  -16.8670   25.4135 C.ar    1  UNL1        0.0310
      5 C          -8.1304  -16.0705   26.0949 C.ar    1  UNL1       -0.0067
      6 C          -8.2258  -15.7870   27.5648 C.3     1  UNL1        0.0319
      7 C          -6.9621  -15.5574   25.3064 C.ar    1  UNL1        0.0959
      8 N          -5.6984  -15.3277   23.0481 N.pl3   1  UNL1       -0.3145
      9 H          -5.8486  -14.7535   22.2626 H       1  UNL1        0.1483
     10 C          -4.3010  -15.6894   23.4564 C.3     1  UNL1        0.1362
     11 C          -3.2543  -15.9362   22.4107 C.3     1  UNL1        0.2266
     12 O          -2.6913  -17.3139   22.2236 O.3     1  UNL1       -0.4724
     13 C          -6.1346  -21.6819   19.9733 C.3     1  UNL1        0.0521
     14 C          -5.2738  -20.5899   20.5359 C.ar    1  UNL1        0.0592
     15 C          -5.6033  -19.9867   21.8692 C.ar    1  UNL1        0.0178
     16 C          -4.7425  -18.8947   22.4317 C.ar    1  UNL1        0.0393
     17 C          -3.5521  -18.4059   21.6611 C.ar    1  UNL1        0.1520
     18 C          -3.2226  -19.0090   20.3278 C.ar    1  UNL1        0.0927
     19 C          -2.0321  -18.5201   19.5571 C.3     1  UNL1        0.0553
     20 N          -4.0834  -20.1010   19.7652 N.ar    1  UNL1       -0.2509
     21 N         -10.1809  -17.9471   23.2622 N.pl3   1  UNL1       -0.2837
     22 H         -10.9415  -18.2941   23.7820 H       1  UNL1        0.1550
     23 C         -10.0949  -18.2148   21.7889 C.ar    1  UNL1        0.1276
     24 C          -9.5382  -19.4519   21.1485 C.ar    1  UNL1        0.0503
     25 C          -9.6497  -19.2942   19.6610 C.ar    1  UNL1        0.0815
     26 C          -9.2124  -20.2952   18.6331 C.3     1  UNL1        0.0540
     27 N         -10.2753  -17.9597   19.3819 N.ar    1  UNL1       -0.1760
     28 N         -10.5504  -17.2926   20.6970 N.ar    1  UNL1       -0.2631
     29 H         -10.9583  -16.4053   20.8217 H       1  UNL1        0.1903
     30 C          -5.8892  -14.7608   25.9879 C.1     1  UNL1        0.1029
     31 N          -4.8163  -13.9642   26.6693 N.1     1  UNL1       -0.1907
@<TRIPOS>BOND
     1    13    14    1
     2    14    15   ar
     3    15    16   ar
     4    16    17   ar
     5    17    12    1
     6    12    11    1
     7    11    10    1
     8    10     8    1
     9     8     1    1
    10     1     2   ar
    11     2     3   ar
    12     3    21    1
    13    21    23    1
    14    23    24   ar
    15    24    25   ar
    16    25    26    1
    17    25    27   ar
    18    27    28   ar
    19     3     4   ar
    20     4     5   ar
    21     5     6    1
    22     5     7   ar
    23     7    30    1
    24    30    31    3
    25    17    18   ar
    26    18    19    1
    27    18    20   ar
    28    20    14   ar
    29     7     1   ar
    30    28    23   ar
    31     8     9    1
    32    21    22    1
    33    28    29    1
@<TRIPOS>MOLECULE
*****
 31 33 0 0 0
SMALL
GASTEIGER

@<TRIPOS>ATOM
      1 C          -6.8630  -16.4655   23.9091 C.ar    1  UNL1        0.1393
      2 N          -8.0772  -17.1445   23.3479 N.ar    1  UNL1       -0.2155
      3 C          -9.3708  -17.1151   24.1066 C.ar    1  UNL1        0.1343
      4 C          -9.4503  -16.4067   25.4264 C.ar    1  UNL1        0.0310
      5 C          -8.2362  -15.7278   25.9875 C.ar    1  UNL1       -0.0067
      6 C          -8.3157  -15.0194   27.3074 C.3     1  UNL1        0.0319
      7 C          -6.9425  -15.7572   25.2289 C.ar    1  UNL1        0.0959
      8 N          -5.5693  -16.4950   23.1504 N.pl3   1  UNL1       -0.3145
      9 H          -5.3163  -15.7342   22.5790 H       1  UNL1        0.1483
     10 C          -4.6611  -17.6836   23.2623 C.3     1  UNL1        0.1362
     11 C          -4.7372  -18.7839   22.2457 C.3     1  UNL1        0.2266
     12 O          -5.7945  -19.8414   22.3629 O.3     1  UNL1       -0.4724
     13 C         -10.7808  -19.4792   19.0454 C.3     1  UNL1        0.0521
     14 C          -9.5342  -19.5698   19.8748 C.ar    1  UNL1        0.0592
     15 C          -8.2043  -19.2312   19.2693 C.ar    1  UNL1        0.0178
     16 C          -6.9577  -19.3217   20.0987 C.ar    1  UNL1        0.0393
     17 C          -7.0411  -19.7509   21.5336 C.ar    1  UNL1        0.1520
     18 C          -8.3710  -20.0895   22.1390 C.ar    1  UNL1        0.0927
     19 C          -8.4544  -20.5186   23.5739 C.3     1  UNL1        0.0553
     20 N          -9.6176  -19.9989   21.3096 N.ar    1  UNL1       -0.2509
     21 N         -10.5849  -17.7941   23.5455 N.pl3   1  UNL1       -0.2837
     22 H         -10.9545  -18.5899   23.9920 H       1  UNL1        0.1550
     23 C         -11.2360  -17.2606   22.3040 C.ar    1  UNL1        0.1276
     24 C         -10.5772  -16.4099   21.2587 C.ar    1  UNL1        0.0503
     25 C         -11.5942  -16.1076   20.1984 C.ar    1  UNL1        0.0815
     26 C         -11.3642  -15.2859   18.9649 C.3     1  UNL1        0.0540
     27 N         -12.8817  -16.7714   20.5883 N.ar    1  UNL1       -0.1760
     28 N         -12.6603  -17.4840   21.8896 N.ar    1  UNL1       -0.2631
     29 H         -13.3318  -18.0065   22.3848 H       1  UNL1        0.1903
     30 C          -5.7283  -15.0782   25.7900 C.1     1  UNL1        0.1029
     31 N          -4.5143  -14.3992   26.3512 N.1     1  UNL1       -0.1907
@<TRIPOS>BOND
     1    13    14    1
     2    14    15   ar
     3    15    16   ar
     4    16    17   ar
     5    17    12    1
     6    12    11    1
     7    11    10    1
     8    10     8    1
     9     8     1    1
    10     1     2   ar
    11     2     3   ar
    12     3    21    1
    13    21    23    1
    14    23    24   ar
    15    24    25   ar
    16    25    26    1
    17    25    27   ar
    18    27    28   ar
    19     3     4   ar
    20     4     5   ar
    21     5     6    1
    22     5     7   ar
    23     7    30    1
    24    30    31    3
    25    17    18   ar
    26    18    19    1
    27    18    20   ar
    28    20    14   ar
    29     7     1   ar
    30    28    23   ar
    31     8     9    1
    32    21    22    1
    33    28    29    1
@<TRIPOS>MOLECULE
*****
 31 33 0 0 0
SMALL
GASTEIGER

@<TRIPOS>ATOM
      1 C          -8.1062  -18.6318   20.4794 C.ar    1  UNL1        0.1393
      2 N          -7.1506  -17.9878   21.4398 N.ar    1  UNL1       -0.2155
      3 C          -5.8376  -18.6455   21.7457 C.ar    1  UNL1        0.1343
      4 C          -5.4803  -19.9471   21.0913 C.ar    1  UNL1        0.0310
      5 C          -6.4359  -20.5910   20.1310 C.ar    1  UNL1       -0.0067
      6 C          -6.0786  -21.8926   19.4765 C.3     1  UNL1        0.0319
      7 C          -7.7489  -19.9333   19.8251 C.ar    1  UNL1        0.0959
      8 N          -9.4192  -17.9741   20.1735 N.pl3   1  UNL1       -0.3145
      9 H          -9.4400  -17.0482   19.8396 H       1  UNL1        0.1483
     10 C         -10.7006  -18.7272   20.3764 C.3     1  UNL1        0.1362
     11 C         -11.7144  -18.2300   21.3637 C.3     1  UNL1        0.2266
     12 O         -11.6207  -18.6371   22.8044 O.3     1  UNL1       -0.4724
     13 C          -7.7749  -15.8446   26.4667 C.3     1  UNL1        0.0521
     14 C          -8.7364  -16.5427   25.5511 C.ar    1  UNL1        0.0592
     15 C          -9.3818  -15.7896   24.4259 C.ar    1  UNL1        0.0178
     16 C         -10.3432  -16.4877   23.5103 C.ar    1  UNL1        0.0393
     17 C         -10.6593  -17.9390   23.7200 C.ar    1  UNL1        0.1520
     18 C         -10.0139  -18.6921   24.8452 C.ar    1  UNL1        0.0927
     19 C         -10.3299  -20.1434   25.0549 C.3     1  UNL1        0.0553
     20 N          -9.0524  -17.9939   25.7608 N.ar    1  UNL1       -0.2509
     21 N          -4.8820  -18.0016   22.7060 N.pl3   1  UNL1       -0.2837
     22 H          -5.0817  -17.9963   23.6700 H       1  UNL1        0.1550
     23 C          -3.6222  -17.3659   22.1975 C.ar    1  UNL1        0.1276
     24 C          -2.5833  -18.0285   21.3420 C.ar    1  UNL1        0.0503
     25 C          -1.4991  -17.0280   21.0709 C.ar    1  UNL1        0.0815
     26 C          -0.2632  -17.2665   20.2552 C.3     1  UNL1        0.0540
     27 N          -1.8679  -15.7470   21.7588 N.ar    1  UNL1       -0.1760
     28 N          -3.1801  -15.9558   22.4551 N.ar    1  UNL1       -0.2631
     29 H          -3.6658  -15.2852   22.9876 H       1  UNL1        0.1903
     30 C          -8.7045  -20.5772   18.8647 C.1     1  UNL1        0.1029
     31 N          -9.6601  -21.2211   17.9044 N.1     1  UNL1       -0.1907
@<TRIPOS>BOND
     1    13    14    1
     2    14    15   ar
     3    15    16   ar
     4    16    17   ar
     5    17    12    1
     6    12    11    1
     7    11    10    1
     8    10     8    1
     9     8     1    1
    10     1     2   ar
    11     2     3   ar
    12     3    21    1
    13    21    23    1
    14    23    24   ar
    15    24    25   ar
    16    25    26    1
    17    25    27   ar
    18    27    28   ar
    19     3     4   ar
    20     4     5   ar
    21     5     6    1
    22     5     7   ar
    23     7    30    1
    24    30    31    3
    25    17    18   ar
    26    18    19    1
    27    18    20   ar
    28    20    14   ar
    29     7     1   ar
    30    28    23   ar
    31     8     9    1
    32    21    22    1
    33    28    29    1
