@<TRIPOS>MOLECULE
*****
 28 31 0 0 0
SMALL
GASTEIGER

@<TRIPOS>ATOM
      1 C           2.5032   -0.1871   18.9848 C.ar    1  UNL1        0.0645
      2 C           3.2673    0.2415   17.7673 C.ar    1  UNL1        0.0158
      3 C           4.6755   -0.2320   17.5603 C.ar    1  UNL1        0.0014
      4 C           5.3195   -1.1341   18.5709 C.ar    1  UNL1        0.0032
      5 C           6.7223   -1.4878   18.1745 C.ar    1  UNL1        0.0016
      6 C           7.7074   -2.3576   18.8978 C.ar    1  UNL1        0.0192
      7 C           7.5330   -3.0884   20.1960 C.ar    1  UNL1        0.0844
      8 N           8.7717   -3.8484   20.5677 N.ar    1  UNL1       -0.2437
      9 C           8.8078   -4.6500   21.8350 C.ar    1  UNL1        0.0988
     10 C           7.6053   -4.6916   22.7307 C.ar    1  UNL1        0.0193
     11 C           6.3667   -3.9317   22.3590 C.ar    1  UNL1        0.0062
     12 C           6.3306   -3.1300   21.0917 C.ar    1  UNL1        0.0566
     13 C           5.0053   -2.4510   20.9102 C.ar    1  UNL1        0.1970
     14 O           3.9968   -2.6923   21.9940 O.2     1  UNL1       -0.2865
     15 C           4.5554   -1.5628   19.7884 C.ar    1  UNL1        0.0403
     16 C           3.1472   -1.0893   19.9953 C.ar    1  UNL1        0.0190
     17 C           7.6414   -5.4932   23.9980 C.ar    1  UNL1        0.0015
     18 C           7.0766   -4.9206   25.2640 C.ar    1  UNL1        0.0000
     19 C           7.1127   -5.7222   26.5314 C.ar    1  UNL1        0.0000
     20 C           7.7136   -7.0965   26.5326 C.ar    1  UNL1        0.0000
     21 C           8.2785   -7.6692   25.2665 C.ar    1  UNL1        0.0000
     22 C           8.2424   -6.8676   23.9992 C.ar    1  UNL1        0.0000
     23 N           1.0950    0.2864   19.1917 N.pl3   1  UNL1       -0.2187
     24 H           0.4134    0.1207   18.5009 H       1  UNL1        0.1734
     25 C           0.3556    1.7384   21.7107 C.3     1  UNL1        0.1996
     26 S           0.7253    1.0123   20.4512 S.O2    1  UNL1        0.0558
     27 O           1.6331    2.1426   20.0661 O.2     1  UNL1       -0.1544
     28 O          -0.1825   -0.1180   20.8362 O.2     1  UNL1       -0.1544
@<TRIPOS>BOND
     1    25    26    1
     2    26    27    2
     3    26    28    2
     4    26    23    1
     5    23     1    1
     6     1     2   ar
     7     2     3   ar
     8     3     4   ar
     9     4     5   ar
    10     5     6   ar
    11     6     7   ar
    12     7     8   ar
    13     8     9   ar
    14     9    10   ar
    15    10    17    1
    16    17    18   ar
    17    18    19   ar
    18    19    20   ar
    19    20    21   ar
    20    21    22   ar
    21    10    11   ar
    22    11    12   ar
    23    12    13   ar
    24    13    14    2
    25    13    15   ar
    26    15    16   ar
    27    16     1   ar
    28    15     4   ar
    29    12     7   ar
    30    22    17   ar
    31    23    24    1
@<TRIPOS>MOLECULE
*****
 28 31 0 0 0
SMALL
GASTEIGER

@<TRIPOS>ATOM
      1 C           6.7981   -3.2773   31.5740 C.ar    1  UNL1        0.0645
      2 C           8.2679   -2.9793   31.5469 C.ar    1  UNL1        0.0158
      3 C           8.8543   -2.0072   32.5273 C.ar    1  UNL1        0.0014
      4 C           7.9709   -1.3331   33.5348 C.ar    1  UNL1        0.0032
      5 C           8.7533   -0.4042   34.4151 C.ar    1  UNL1        0.0016
      6 C           8.2589    0.4561   35.5401 C.ar    1  UNL1        0.0192
      7 C           6.8602    0.6000   36.0625 C.ar    1  UNL1        0.0844
      8 N           6.7991    1.5701   37.2050 N.ar    1  UNL1       -0.2437
      9 C           5.4880    1.8593   37.8739 C.ar    1  UNL1        0.0988
     10 C           4.2381    1.1784   37.4004 C.ar    1  UNL1        0.0193
     11 C           4.2993    0.2083   36.2580 C.ar    1  UNL1        0.0062
     12 C           5.6104   -0.0808   35.5891 C.ar    1  UNL1        0.0566
     13 C           5.4506   -1.0738   34.4761 C.ar    1  UNL1        0.1970
     14 O           4.0557   -1.5758   34.2472 O.2     1  UNL1       -0.2865
     15 C           6.5011   -1.6311   33.5619 C.ar    1  UNL1        0.0403
     16 C           5.9147   -2.6032   32.5815 C.ar    1  UNL1        0.0190
     17 C           2.9271    1.4676   38.0694 C.ar    1  UNL1        0.0015
     18 C           2.2741    0.4217   38.9236 C.ar    1  UNL1        0.0000
     19 C           0.9631    0.7109   39.5926 C.ar    1  UNL1        0.0000
     20 C           0.3050    2.0460   39.4073 C.ar    1  UNL1        0.0000
     21 C           0.9579    3.0919   38.5530 C.ar    1  UNL1        0.0000
     22 C           2.2690    2.8027   37.8840 C.ar    1  UNL1        0.0000
     23 N           6.2117   -4.2495   30.5937 N.pl3   1  UNL1       -0.2187
     24 H           5.2663   -4.1729   30.3301 H       1  UNL1        0.1734
     25 C           7.9199   -6.4272   29.4362 C.3     1  UNL1        0.1996
     26 S           7.0658   -5.3383   30.0150 S.O2    1  UNL1        0.0558
     27 O           6.9242   -6.1242   31.2847 O.2     1  UNL1       -0.1544
     28 O           7.2073   -4.5524   28.7452 O.2     1  UNL1       -0.1544
@<TRIPOS>BOND
     1    25    26    1
     2    26    27    2
     3    26    28    2
     4    26    23    1
     5    23     1    1
     6     1     2   ar
     7     2     3   ar
     8     3     4   ar
     9     4     5   ar
    10     5     6   ar
    11     6     7   ar
    12     7     8   ar
    13     8     9   ar
    14     9    10   ar
    15    10    17    1
    16    17    18   ar
    17    18    19   ar
    18    19    20   ar
    19    20    21   ar
    20    21    22   ar
    21    10    11   ar
    22    11    12   ar
    23    12    13   ar
    24    13    14    2
    25    13    15   ar
    26    15    16   ar
    27    16     1   ar
    28    15     4   ar
    29    12     7   ar
    30    22    17   ar
    31    23    24    1
@<TRIPOS>MOLECULE
*****
 28 31 0 0 0
SMALL
GASTEIGER

@<TRIPOS>ATOM
      1 C          -0.2245    2.0657   27.1498 C.ar    1  UNL1        0.0645
      2 C          -1.2912    3.0864   26.8846 C.ar    1  UNL1        0.0158
      3 C          -1.6381    3.4595   25.4738 C.ar    1  UNL1        0.0014
      4 C          -0.9183    2.8120   24.3281 C.ar    1  UNL1        0.0032
      5 C          -1.4151    3.3245   23.0089 C.ar    1  UNL1        0.0016
      6 C          -0.9678    2.9429   21.6289 C.ar    1  UNL1        0.0192
      7 C           0.0868    1.9546   21.2274 C.ar    1  UNL1        0.0844
      8 N           0.2217    1.8730   19.7357 N.ar    1  UNL1       -0.2437
      9 C           1.2244    0.9404   19.1233 C.ar    1  UNL1        0.0988
     10 C           2.0922    0.0896   20.0026 C.ar    1  UNL1        0.0193
     11 C           1.9572    0.1713   21.4943 C.ar    1  UNL1        0.0062
     12 C           0.9545    1.1038   22.1066 C.ar    1  UNL1        0.0566
     13 C           0.9819    1.0312   23.6047 C.ar    1  UNL1        0.1970
     14 O           1.9740    0.0714   24.1916 O.2     1  UNL1       -0.2865
     15 C           0.1484    1.7914   24.5933 C.ar    1  UNL1        0.0403
     16 C           0.4953    1.4183   26.0041 C.ar    1  UNL1        0.0190
     17 C           3.0948   -0.8429   19.3903 C.ar    1  UNL1        0.0015
     18 C           4.0968   -0.3233   18.4024 C.ar    1  UNL1        0.0000
     19 C           5.0995   -1.2558   17.7901 C.ar    1  UNL1        0.0000
     20 C           5.1002   -2.7080   18.1656 C.ar    1  UNL1        0.0000
     21 C           4.0982   -3.2277   19.1535 C.ar    1  UNL1        0.0000
     22 C           3.0955   -2.2952   19.7658 C.ar    1  UNL1        0.0000
     23 N           0.1224    1.6926   28.5606 N.pl3   1  UNL1       -0.2187
     24 H          -0.3020    2.1647   29.3132 H       1  UNL1        0.1734
     25 C           2.1094   -0.4921   29.0891 C.3     1  UNL1        0.1996
     26 S           1.1158    0.6003   28.8248 S.O2    1  UNL1        0.0558
     27 O           2.2231    1.6120   28.8440 O.2     1  UNL1       -0.1544
     28 O           0.0086   -0.4114   28.8057 O.2     1  UNL1       -0.1544
@<TRIPOS>BOND
     1    25    26    1
     2    26    27    2
     3    26    28    2
     4    26    23    1
     5    23     1    1
     6     1     2   ar
     7     2     3   ar
     8     3     4   ar
     9     4     5   ar
    10     5     6   ar
    11     6     7   ar
    12     7     8   ar
    13     8     9   ar
    14     9    10   ar
    15    10    17    1
    16    17    18   ar
    17    18    19   ar
    18    19    20   ar
    19    20    21   ar
    20    21    22   ar
    21    10    11   ar
    22    11    12   ar
    23    12    13   ar
    24    13    14    2
    25    13    15   ar
    26    15    16   ar
    27    16     1   ar
    28    15     4   ar
    29    12     7   ar
    30    22    17   ar
    31    23    24    1
@<TRIPOS>MOLECULE
*****
 28 31 0 0 0
SMALL
GASTEIGER

@<TRIPOS>ATOM
      1 C           5.4574   -3.0814   19.6957 C.ar    1  UNL1        0.0645
      2 C           5.4130   -2.7231   18.2399 C.ar    1  UNL1        0.0158
      3 C           4.4933   -1.6388   17.7620 C.ar    1  UNL1        0.0014
      4 C           3.6179   -0.9128   18.7400 C.ar    1  UNL1        0.0032
      5 C           2.7800    0.1278   18.0580 C.ar    1  UNL1        0.0016
      6 C           1.7794    1.0670   18.6636 C.ar    1  UNL1        0.0192
      7 C           1.3696    1.1977   20.1006 C.ar    1  UNL1        0.0844
      8 N           0.3328    2.2668   20.2797 N.ar    1  UNL1       -0.2437
      9 C          -0.2144    2.5595   21.6453 C.ar    1  UNL1        0.0988
     10 C           0.2752    1.7831   22.8318 C.ar    1  UNL1        0.0193
     11 C           1.3120    0.7141   22.6526 C.ar    1  UNL1        0.0062
     12 C           1.8592    0.4214   21.2870 C.ar    1  UNL1        0.0566
     13 C           2.8796   -0.6773   21.3294 C.ar    1  UNL1        0.1970
     14 O           3.1533   -1.2592   22.6845 O.2     1  UNL1       -0.2865
     15 C           3.6622   -1.2711   20.1959 C.ar    1  UNL1        0.0403
     16 C           4.5820   -2.3554   20.6737 C.ar    1  UNL1        0.0190
     17 C          -0.2721    2.0759   24.1973 C.ar    1  UNL1        0.0015
     18 C           0.1778    1.2638   25.3755 C.ar    1  UNL1        0.0000
     19 C          -0.3694    1.5566   26.7411 C.ar    1  UNL1        0.0000
     20 C          -1.3665    2.6613   26.9285 C.ar    1  UNL1        0.0000
     21 C          -1.8164    3.4734   25.7503 C.ar    1  UNL1        0.0000
     22 C          -1.2692    3.1807   24.3847 C.ar    1  UNL1        0.0000
     23 N           6.3771   -4.1657   20.1736 N.pl3   1  UNL1       -0.2187
     24 H           6.2918   -5.0779   19.8131 H       1  UNL1        0.1734
     25 C           8.4763   -3.5549   22.2279 C.3     1  UNL1        0.1996
     26 S           7.4267   -3.8603   21.2007 S.O2    1  UNL1        0.0558
     27 O           8.1692   -3.0311   20.1953 O.2     1  UNL1       -0.1544
     28 O           6.6841   -4.6896   22.2061 O.2     1  UNL1       -0.1544
@<TRIPOS>BOND
     1    25    26    1
     2    26    27    2
     3    26    28    2
     4    26    23    1
     5    23     1    1
     6     1     2   ar
     7     2     3   ar
     8     3     4   ar
     9     4     5   ar
    10     5     6   ar
    11     6     7   ar
    12     7     8   ar
    13     8     9   ar
    14     9    10   ar
    15    10    17    1
    16    17    18   ar
    17    18    19   ar
    18    19    20   ar
    19    20    21   ar
    20    21    22   ar
    21    10    11   ar
    22    11    12   ar
    23    12    13   ar
    24    13    14    2
    25    13    15   ar
    26    15    16   ar
    27    16     1   ar
    28    15     4   ar
    29    12     7   ar
    30    22    17   ar
    31    23    24    1
@<TRIPOS>MOLECULE
*****
 28 31 0 0 0
SMALL
GASTEIGER

@<TRIPOS>ATOM
      1 C           3.9105    1.5652   36.9690 C.ar    1  UNL1        0.0645
      2 C           5.1192    0.7148   37.2254 C.ar    1  UNL1        0.0158
      3 C           5.7153   -0.0961   36.1132 C.ar    1  UNL1        0.0014
      4 C           5.1028   -0.0567   34.7446 C.ar    1  UNL1        0.0032
      5 C           5.8490   -0.9352   33.7847 C.ar    1  UNL1        0.0016
      6 C           5.5707   -1.1802   32.3312 C.ar    1  UNL1        0.0192
      7 C           4.4776   -0.6073   31.4787 C.ar    1  UNL1        0.0844
      8 N           4.5585   -1.1151   30.0696 N.ar    1  UNL1       -0.2437
      9 C           3.5544   -0.6634   29.0508 C.ar    1  UNL1        0.0988
     10 C           2.4694    0.2960   29.4413 C.ar    1  UNL1        0.0193
     11 C           2.3886    0.8037   30.8503 C.ar    1  UNL1        0.0062
     12 C           3.3926    0.3521   31.8691 C.ar    1  UNL1        0.0566
     13 C           3.1330    0.9756   33.2085 C.ar    1  UNL1        0.1970
     14 O           1.9566    1.9037   33.2771 O.2     1  UNL1       -0.2865
     15 C           3.8940    0.7936   34.4882 C.ar    1  UNL1        0.0403
     16 C           3.2979    1.6046   35.6004 C.ar    1  UNL1        0.0190
     17 C           1.4653    0.7477   28.4225 C.ar    1  UNL1        0.0015
     18 C           0.0280    0.9248   28.8133 C.ar    1  UNL1        0.0000
     19 C          -0.9760    1.3765   27.7946 C.ar    1  UNL1        0.0000
     20 C          -0.5428    1.6510   26.3851 C.ar    1  UNL1        0.0000
     21 C           0.8945    1.4739   25.9942 C.ar    1  UNL1        0.0000
     22 C           1.8986    1.0223   27.0129 C.ar    1  UNL1        0.0000
     23 N           3.3143    2.3761   38.0812 N.pl3   1  UNL1       -0.2187
     24 H           3.7513    3.2090   38.3720 H       1  UNL1        0.1734
     25 C           0.7902    1.4602   39.4191 C.3     1  UNL1        0.1996
     26 S           2.0523    1.9182   38.7501 S.O2    1  UNL1        0.0558
     27 O           1.2754    2.9552   37.9945 O.2     1  UNL1       -0.1544
     28 O           2.8292    0.8811   39.5057 O.2     1  UNL1       -0.1544
@<TRIPOS>BOND
     1    25    26    1
     2    26    27    2
     3    26    28    2
     4    26    23    1
     5    23     1    1
     6     1     2   ar
     7     2     3   ar
     8     3     4   ar
     9     4     5   ar
    10     5     6   ar
    11     6     7   ar
    12     7     8   ar
    13     8     9   ar
    14     9    10   ar
    15    10    17    1
    16    17    18   ar
    17    18    19   ar
    18    19    20   ar
    19    20    21   ar
    20    21    22   ar
    21    10    11   ar
    22    11    12   ar
    23    12    13   ar
    24    13    14    2
    25    13    15   ar
    26    15    16   ar
    27    16     1   ar
    28    15     4   ar
    29    12     7   ar
    30    22    17   ar
    31    23    24    1
@<TRIPOS>MOLECULE
*****
 28 31 0 0 0
SMALL
GASTEIGER

@<TRIPOS>ATOM
      1 C           4.4236   -2.0459   18.6933 C.ar    1  UNL1        0.0645
      2 C           4.0157   -1.2895   17.4639 C.ar    1  UNL1        0.0158
      3 C           3.0668   -0.1331   17.5751 C.ar    1  UNL1        0.0014
      4 C           2.5258    0.2669   18.9157 C.ar    1  UNL1        0.0032
      5 C           1.5990    1.4410   18.8045 C.ar    1  UNL1        0.0016
      6 C           0.8512    2.1488   19.8953 C.ar    1  UNL1        0.0192
      7 C           0.8455    1.8572   21.3667 C.ar    1  UNL1        0.0844
      8 N          -0.0427    2.8099   22.1107 N.ar    1  UNL1       -0.2437
      9 C          -0.1902    2.6911   23.5987 C.ar    1  UNL1        0.0988
     10 C           0.5505    1.6198   24.3427 C.ar    1  UNL1        0.0193
     11 C           1.4387    0.6672   23.5987 C.ar    1  UNL1        0.0062
     12 C           1.5862    0.7859   22.1107 C.ar    1  UNL1        0.0566
     13 C           2.5156   -0.2585   21.5670 C.ar    1  UNL1        0.1970
     14 O           3.1047   -1.1958   22.5791 O.2     1  UNL1       -0.2865
     15 C           2.9338   -0.4895   20.1451 C.ar    1  UNL1        0.0403
     16 C           3.8826   -1.6459   20.0339 C.ar    1  UNL1        0.0190
     17 C           0.4030    1.5010   25.8307 C.ar    1  UNL1        0.0015
     18 C          -0.9041    1.8392   26.4842 C.ar    1  UNL1        0.0000
     19 C          -1.0516    1.7205   27.9722 C.ar    1  UNL1        0.0000
     20 C           0.1080    1.2635   28.8067 C.ar    1  UNL1        0.0000
     21 C           1.4152    0.9253   28.1532 C.ar    1  UNL1        0.0000
     22 C           1.5627    1.0440   26.6652 C.ar    1  UNL1        0.0000
     23 N           5.3725   -3.2023   18.5821 N.pl3   1  UNL1       -0.2187
     24 H           5.4294   -3.7133   17.7425 H       1  UNL1        0.1734
     25 C           7.0966   -3.9580   20.9179 C.3     1  UNL1        0.1996
     26 S           6.2345   -3.5801   19.7500 S.O2    1  UNL1        0.0558
     27 O           5.2840   -4.6886   20.0930 O.2     1  UNL1       -0.1544
     28 O           7.1850   -2.4716   19.4069 O.2     1  UNL1       -0.1544
@<TRIPOS>BOND
     1    25    26    1
     2    26    27    2
     3    26    28    2
     4    26    23    1
     5    23     1    1
     6     1     2   ar
     7     2     3   ar
     8     3     4   ar
     9     4     5   ar
    10     5     6   ar
    11     6     7   ar
    12     7     8   ar
    13     8     9   ar
    14     9    10   ar
    15    10    17    1
    16    17    18   ar
    17    18    19   ar
    18    19    20   ar
    19    20    21   ar
    20    21    22   ar
    21    10    11   ar
    22    11    12   ar
    23    12    13   ar
    24    13    14    2
    25    13    15   ar
    26    15    16   ar
    27    16     1   ar
    28    15     4   ar
    29    12     7   ar
    30    22    17   ar
    31    23    24    1
@<TRIPOS>MOLECULE
*****
 28 31 0 0 0
SMALL
GASTEIGER

@<TRIPOS>ATOM
      1 C           7.2132   -3.9973   23.5988 C.ar    1  UNL1        0.0645
      2 C           7.7037   -5.3941   23.3575 C.ar    1  UNL1        0.0158
      3 C           7.9298   -6.3202   24.5156 C.ar    1  UNL1        0.0014
      4 C           7.6653   -5.8495   25.9150 C.ar    1  UNL1        0.0032
      5 C           7.9539   -6.9260   26.9189 C.ar    1  UNL1        0.0016
      6 C           7.8231   -6.8715   28.4122 C.ar    1  UNL1        0.0192
      7 C           7.3716   -5.7271   29.2704 C.ar    1  UNL1        0.0844
      8 N           7.3862   -6.0937   30.7248 N.ar    1  UNL1       -0.2437
      9 C           6.9684   -5.0877   31.7561 C.ar    1  UNL1        0.0988
     10 C           6.5361   -3.7151   31.3328 C.ar    1  UNL1        0.0193
     11 C           6.5215   -3.3485   29.8785 C.ar    1  UNL1        0.0062
     12 C           6.9393   -4.3545   28.8472 C.ar    1  UNL1        0.0566
     13 C           6.8517   -3.7874   27.4613 C.ar    1  UNL1        0.1970
     14 O           6.3784   -2.3671   27.3681 O.2     1  UNL1       -0.2865
     15 C           7.1748   -4.4527   26.1563 C.ar    1  UNL1        0.0403
     16 C           6.9488   -3.5266   24.9982 C.ar    1  UNL1        0.0190
     17 C           6.1184   -2.7091   32.3641 C.ar    1  UNL1        0.0015
     18 C           7.0872   -1.6608   32.8249 C.ar    1  UNL1        0.0000
     19 C           6.6695   -0.6548   33.8562 C.ar    1  UNL1        0.0000
     20 C           5.2829   -0.6971   34.4265 C.ar    1  UNL1        0.0000
     21 C           4.3139   -1.7453   33.9657 C.ar    1  UNL1        0.0000
     22 C           4.7317   -2.7513   32.9345 C.ar    1  UNL1        0.0000
     23 N           6.9871   -3.0712   22.4407 N.pl3   1  UNL1       -0.2187
     24 H           7.3919   -2.1738   22.4417 H       1  UNL1        0.1734
     25 C           5.3012   -3.9535   20.1214 C.3     1  UNL1        0.1996
     26 S           6.1442   -3.5123   21.2810 S.O2    1  UNL1        0.0558
     27 O           4.9617   -3.6512   22.1934 O.2     1  UNL1       -0.1544
     28 O           7.3266   -3.3734   20.3687 O.2     1  UNL1       -0.1544
@<TRIPOS>BOND
     1    25    26    1
     2    26    27    2
     3    26    28    2
     4    26    23    1
     5    23     1    1
     6     1     2   ar
     7     2     3   ar
     8     3     4   ar
     9     4     5   ar
    10     5     6   ar
    11     6     7   ar
    12     7     8   ar
    13     8     9   ar
    14     9    10   ar
    15    10    17    1
    16    17    18   ar
    17    18    19   ar
    18    19    20   ar
    19    20    21   ar
    20    21    22   ar
    21    10    11   ar
    22    11    12   ar
    23    12    13   ar
    24    13    14    2
    25    13    15   ar
    26    15    16   ar
    27    16     1   ar
    28    15     4   ar
    29    12     7   ar
    30    22    17   ar
    31    23    24    1
@<TRIPOS>MOLECULE
*****
 28 31 0 0 0
SMALL
GASTEIGER

@<TRIPOS>ATOM
      1 C           7.3564   -3.9903   27.3593 C.ar    1  UNL1        0.0645
      2 C           8.4968   -4.8907   26.9870 C.ar    1  UNL1        0.0158
      3 C           8.7891   -5.1729   25.5431 C.ar    1  UNL1        0.0014
      4 C           7.9409   -4.5548   24.4714 C.ar    1  UNL1        0.0032
      5 C           8.4011   -4.9645   23.1039 C.ar    1  UNL1        0.0016
      6 C           7.8343   -4.5751   21.7707 C.ar    1  UNL1        0.0192
      7 C           6.6675   -3.6797   21.4760 C.ar    1  UNL1        0.0844
      8 N           6.4327   -3.5536   19.9998 N.ar    1  UNL1       -0.2437
      9 C           5.3096   -2.7004   19.4893 C.ar    1  UNL1        0.0988
     10 C           4.4213   -1.9733   20.4549 C.ar    1  UNL1        0.0193
     11 C           4.6562   -2.0995   21.9309 C.ar    1  UNL1        0.0062
     12 C           5.7793   -2.9526   22.4415 C.ar    1  UNL1        0.0566
     13 C           5.8385   -2.9414   23.9403 C.ar    1  UNL1        0.1970
     14 O           4.7980   -2.1067   24.6264 O.2     1  UNL1       -0.2865
     15 C           6.8005   -3.6544   24.8437 C.ar    1  UNL1        0.0403
     16 C           6.5082   -3.3722   26.2876 C.ar    1  UNL1        0.0190
     17 C           3.2982   -1.1202   19.9443 C.ar    1  UNL1        0.0015
     18 C           1.9929   -1.0784   20.6820 C.ar    1  UNL1        0.0000
     19 C           0.8697   -0.2252   20.1715 C.ar    1  UNL1        0.0000
     20 C           1.0520    0.5862   18.9232 C.ar    1  UNL1        0.0000
     21 C           2.3574    0.5445   18.1854 C.ar    1  UNL1        0.0000
     22 C           3.4805   -0.3087   18.6959 C.ar    1  UNL1        0.0000
     23 N           7.0641   -3.7081   28.8032 N.pl3   1  UNL1       -0.2187
     24 H           6.5511   -2.9061   29.0540 H       1  UNL1        0.1734
     25 C           8.0428   -5.5875   30.9269 C.3     1  UNL1        0.1996
     26 S           7.5535   -4.6477   29.8650 S.O2    1  UNL1        0.0558
     27 O           6.4631   -5.6152   29.5114 O.2     1  UNL1       -0.1544
     28 O           8.6438   -3.6802   30.2187 O.2     1  UNL1       -0.1544
@<TRIPOS>BOND
     1    25    26    1
     2    26    27    2
     3    26    28    2
     4    26    23    1
     5    23     1    1
     6     1     2   ar
     7     2     3   ar
     8     3     4   ar
     9     4     5   ar
    10     5     6   ar
    11     6     7   ar
    12     7     8   ar
    13     8     9   ar
    14     9    10   ar
    15    10    17    1
    16    17    18   ar
    17    18    19   ar
    18    19    20   ar
    19    20    21   ar
    20    21    22   ar
    21    10    11   ar
    22    11    12   ar
    23    12    13   ar
    24    13    14    2
    25    13    15   ar
    26    15    16   ar
    27    16     1   ar
    28    15     4   ar
    29    12     7   ar
    30    22    17   ar
    31    23    24    1
@<TRIPOS>MOLECULE
*****
 28 31 0 0 0
SMALL
GASTEIGER

@<TRIPOS>ATOM
      1 C           7.0919   -4.9469   31.0187 C.ar    1  UNL1        0.0645
      2 C           8.0203   -6.1244   31.0573 C.ar    1  UNL1        0.0158
      3 C           8.5272   -6.7221   29.7783 C.ar    1  UNL1        0.0014
      4 C           8.1058   -6.1422   28.4607 C.ar    1  UNL1        0.0032
      5 C           8.7232   -6.8844   27.3128 C.ar    1  UNL1        0.0016
      6 C           8.5648   -6.6323   25.8426 C.ar    1  UNL1        0.0192
      7 C           7.7498   -5.5758   25.1573 C.ar    1  UNL1        0.0844
      8 N           7.8684   -5.6740   23.6652 N.ar    1  UNL1       -0.2437
      9 C           7.1291   -4.7069   22.7888 C.ar    1  UNL1        0.0988
     10 C           6.2713   -3.6415   23.4045 C.ar    1  UNL1        0.0193
     11 C           6.1527   -3.5433   24.8965 C.ar    1  UNL1        0.0062
     12 C           6.8919   -4.5104   25.7730 C.ar    1  UNL1        0.0566
     13 C           6.6372   -4.2385   27.2260 C.ar    1  UNL1        0.1970
     14 O           5.7212   -3.0882   27.5219 O.2     1  UNL1       -0.2865
     15 C           7.1775   -4.9646   28.4221 C.ar    1  UNL1        0.0403
     16 C           6.6705   -4.3670   29.7011 C.ar    1  UNL1        0.0190
     17 C           5.5320   -2.6743   22.5281 C.ar    1  UNL1        0.0015
     18 C           6.1980   -2.1056   21.3103 C.ar    1  UNL1        0.0000
     19 C           5.4587   -1.1384   20.4339 C.ar    1  UNL1        0.0000
     20 C           4.0535   -0.7399   20.7753 C.ar    1  UNL1        0.0000
     21 C           3.3875   -1.3086   21.9932 C.ar    1  UNL1        0.0000
     22 C           4.1268   -2.2758   22.8696 C.ar    1  UNL1        0.0000
     23 N           6.5850   -4.3493   32.2977 N.pl3   1  UNL1       -0.2187
     24 H           6.2181   -4.9315   33.0017 H       1  UNL1        0.1734
     25 C           6.6890   -1.3796   32.7106 C.3     1  UNL1        0.1996
     26 S           6.6370   -2.8645   32.5041 S.O2    1  UNL1        0.0558
     27 O           5.1380   -2.8144   32.5219 O.2     1  UNL1       -0.1544
     28 O           8.1361   -2.9146   32.4864 O.2     1  UNL1       -0.1544
@<TRIPOS>BOND
     1    25    26    1
     2    26    27    2
     3    26    28    2
     4    26    23    1
     5    23     1    1
     6     1     2   ar
     7     2     3   ar
     8     3     4   ar
     9     4     5   ar
    10     5     6   ar
    11     6     7   ar
    12     7     8   ar
    13     8     9   ar
    14     9    10   ar
    15    10    17    1
    16    17    18   ar
    17    18    19   ar
    18    19    20   ar
    19    20    21   ar
    20    21    22   ar
    21    10    11   ar
    22    11    12   ar
    23    12    13   ar
    24    13    14    2
    25    13    15   ar
    26    15    16   ar
    27    16     1   ar
    28    15     4   ar
    29    12     7   ar
    30    22    17   ar
    31    23    24    1
