@<TRIPOS>MOLECULE
*****
 37 39 0 0 0
SMALL
GASTEIGER

@<TRIPOS>ATOM
      1 C          -6.1208  -19.5259   21.8515 C.3     1  UNL1        0.1194
      2 C          -6.0379  -20.7240   22.7501 C.3     1  UNL1        0.0802
      3 N          -7.2935  -21.3828   23.2395 N.3     1  UNL1       -0.2965
      4 C          -8.6319  -20.8434   22.8303 C.3     1  UNL1        0.0802
      5 C          -8.7149  -19.6453   21.9317 C.3     1  UNL1        0.1200
      6 C          -7.4593  -18.9865   21.4423 C.3     1  UNL1        0.1303
      7 O          -7.5422  -17.7883   20.5437 O.3     1  UNL1       -0.3834
      8 H          -7.2633  -21.3536   24.2586 H       1  UNL1        0.1233
      9 H          -8.4732  -17.5721   20.3782 H       1  UNL1        0.2104
     10 N          -3.7371  -18.6020   22.3145 N.am    1  UNL1       -0.3034
     11 C          -4.8652  -18.8671   21.3621 C.2     1  UNL1        0.2258
     12 O          -4.7377  -18.4733   19.9204 O.2     1  UNL1       -0.2750
     13 H          -3.8207  -18.8604   23.2608 H       1  UNL1        0.1495
     14 C          -2.4815  -17.9432   21.8251 C.3     1  UNL1        0.1011
     15 C          -2.2001  -16.5120   22.1749 C.3     1  UNL1        0.1615
     16 O          -3.2610  -15.4696   21.9798 O.3     1  UNL1       -0.3520
     17 C          -4.9663  -16.0568   23.8498 C.3     1  UNL1        0.0346
     18 C          -4.1183  -15.0465   23.1355 C.3     1  UNL1        0.1423
     19 C          -1.5073  -18.7157   20.9859 C.3     1  UNL1        0.0221
     20 C          -0.8507  -18.0623   19.8061 C.3     1  UNL1        0.0017
     21 C          -1.6134  -17.8841   18.5268 C.3     1  UNL1        0.0001
     22 C           0.5686  -17.5871   19.9055 C.3     1  UNL1        0.0001
     23 C         -10.0534  -19.1059   21.5225 C.2     1  UNL1        0.2336
     24 O         -10.7676  -19.6898   20.3397 O.2     1  UNL1       -0.2744
     25 N         -10.6777  -17.9825   22.2960 N.am    1  UNL1       -0.2454
     26 C          -9.9634  -17.3986   23.4789 C.ar    1  UNL1        0.1373
     27 C          -9.2091  -16.1098   23.3382 C.ar    1  UNL1        0.0344
     28 C          -8.4949  -15.5260   24.5210 C.ar    1  UNL1        0.0001
     29 C          -8.5350  -16.2310   25.8444 C.ar    1  UNL1       -0.0033
     30 C          -9.2893  -17.5198   25.9850 C.ar    1  UNL1        0.0960
     31 N         -10.0035  -18.1036   24.8022 N.ar    1  UNL1       -0.2291
     32 C          -7.8207  -15.6471   27.0272 C.3     1  UNL1        0.0239
     33 C          -6.3754  -15.9702   27.2651 C.3     1  UNL1        0.0047
     34 C          -8.5518  -14.7401   27.9721 C.3     1  UNL1        0.0047
     35 C         -12.0161  -17.4431   21.8869 C.3     1  UNL1        0.0812
     36 C         -12.8407  -16.3798   21.2240 C.3     1  UNL1        0.0219
     37 C         -13.5099  -17.5720   21.8410 C.3     1  UNL1        0.0219
@<TRIPOS>BOND
     1    17    18    1
     2    18    16    1
     3    16    15    1
     4    14    15    1
     5    14    19    1
     6    19    20    1
     7    20    21    1
     8    20    22    1
     9    14    10    1
    10    10    11   am
    11    11    12    2
    12     1    11    1
    13     1     2    1
    14     2     3    1
    15     3     4    1
    16     4     5    1
    17     5    23    1
    18    23    24    2
    19    23    25   am
    20    25    26    1
    21    26    27   ar
    22    27    28   ar
    23    28    29   ar
    24    29    32    1
    25    32    33    1
    26    32    34    1
    27    29    30   ar
    28    30    31   ar
    29    25    35    1
    30    35    36    1
    31    36    37    1
    32     5     6    1
    33     6     7    1
    34     6     1    1
    35    31    26   ar
    36    37    35    1
    37    10    13    1
    38     3     8    1
    39     7     9    1
@<TRIPOS>MOLECULE
*****
 37 39 0 0 0
SMALL
GASTEIGER

@<TRIPOS>ATOM
      1 C          -6.9596  -20.4243   21.9392 C.3     1  UNL1        0.1194
      2 C          -7.1010  -21.3236   23.1313 C.3     1  UNL1        0.0802
      3 N          -8.3864  -21.3481   23.9040 N.3     1  UNL1       -0.2965
      4 C          -9.5304  -20.4732   23.4846 C.3     1  UNL1        0.0802
      5 C          -9.3890  -19.5739   22.2925 C.3     1  UNL1        0.1200
      6 C          -8.1036  -19.5494   21.5198 C.3     1  UNL1        0.1303
      7 O          -7.9622  -18.6500   20.3276 O.3     1  UNL1       -0.3834
      8 H          -8.1574  -21.0929   24.8646 H       1  UNL1        0.1233
      9 H          -8.7868  -18.1569   20.1950 H       1  UNL1        0.2104
     10 N          -4.6324  -19.3661   21.4764 N.am    1  UNL1       -0.3034
     11 C          -5.6742  -20.3998   21.1664 C.2     1  UNL1        0.2258
     12 O          -5.4305  -21.4090   20.0838 O.2     1  UNL1       -0.2750
     13 H          -4.7922  -18.7037   22.1869 H       1  UNL1        0.1495
     14 C          -3.3469  -19.3416   20.7036 C.3     1  UNL1        0.1011
     15 C          -2.0553  -19.6830   21.3856 C.3     1  UNL1        0.1615
     16 O          -1.3784  -18.6699   22.2605 O.3     1  UNL1       -0.3520
     17 C          -2.1481  -16.2097   21.9367 C.3     1  UNL1        0.0346
     18 C          -2.1385  -17.4719   22.7472 C.3     1  UNL1        0.1423
     19 C          -3.3532  -18.9756   19.2489 C.3     1  UNL1        0.0221
     20 C          -2.4709  -17.8700   18.7499 C.3     1  UNL1        0.0017
     21 C          -0.9800  -17.9931   18.8587 C.3     1  UNL1        0.0001
     22 C          -3.0796  -16.6410   18.1422 C.3     1  UNL1        0.0001
     23 C         -10.5330  -18.6990   21.8731 C.2     1  UNL1        0.2336
     24 O         -11.5634  -19.2196   20.9153 O.2     1  UNL1       -0.2744
     25 N         -10.6466  -17.3036   22.4114 N.am    1  UNL1       -0.2454
     26 C          -9.6161  -16.7830   23.3692 C.ar    1  UNL1        0.1373
     27 C          -9.6982  -17.1370   24.8245 C.ar    1  UNL1        0.0344
     28 C          -8.6678  -16.6164   25.7822 C.ar    1  UNL1        0.0001
     29 C          -7.5553  -15.7419   25.2846 C.ar    1  UNL1       -0.0033
     30 C          -7.4732  -15.3880   23.8293 C.ar    1  UNL1        0.0960
     31 N          -8.5036  -15.9085   22.8716 N.ar    1  UNL1       -0.2291
     32 C          -6.5249  -15.2214   26.2424 C.3     1  UNL1        0.0239
     33 C          -5.1044  -15.0459   25.7934 C.3     1  UNL1        0.0047
     34 C          -6.9149  -14.8764   27.6491 C.3     1  UNL1        0.0047
     35 C         -11.7905  -16.4287   21.9920 C.3     1  UNL1        0.0812
     36 C         -12.6712  -15.8698   20.9140 C.3     1  UNL1        0.0219
     37 C         -12.8911  -15.4721   22.3435 C.3     1  UNL1        0.0219
@<TRIPOS>BOND
     1    17    18    1
     2    18    16    1
     3    16    15    1
     4    14    15    1
     5    14    19    1
     6    19    20    1
     7    20    21    1
     8    20    22    1
     9    14    10    1
    10    10    11   am
    11    11    12    2
    12     1    11    1
    13     1     2    1
    14     2     3    1
    15     3     4    1
    16     4     5    1
    17     5    23    1
    18    23    24    2
    19    23    25   am
    20    25    26    1
    21    26    27   ar
    22    27    28   ar
    23    28    29   ar
    24    29    32    1
    25    32    33    1
    26    32    34    1
    27    29    30   ar
    28    30    31   ar
    29    25    35    1
    30    35    36    1
    31    36    37    1
    32     5     6    1
    33     6     7    1
    34     6     1    1
    35    31    26   ar
    36    37    35    1
    37    10    13    1
    38     3     8    1
    39     7     9    1
@<TRIPOS>MOLECULE
*****
 37 39 0 0 0
SMALL
GASTEIGER

@<TRIPOS>ATOM
      1 C           5.9375   -1.0779   27.3452 C.3     1  UNL1        0.1194
      2 C           6.8415    0.1177   27.4024 C.3     1  UNL1        0.0802
      3 N           6.2614    1.4999   27.3485 N.3     1  UNL1       -0.2965
      4 C           4.7772    1.6866   27.2375 C.3     1  UNL1        0.0802
      5 C           3.8732    0.4910   27.1803 C.3     1  UNL1        0.1200
      6 C           4.4534   -0.8912   27.2342 C.3     1  UNL1        0.1303
      7 O           3.5493   -2.0869   27.1770 O.3     1  UNL1       -0.3834
      8 H           6.6776    1.9627   26.5404 H       1  UNL1        0.1233
      9 H           2.6277   -1.7923   27.1066 H       1  UNL1        0.2104
     10 N           5.7603   -3.5656   28.0730 N.am    1  UNL1       -0.3034
     11 C           6.5177   -2.4601   27.3991 C.2     1  UNL1        0.2258
     12 O           7.8552   -2.7368   26.7791 O.2     1  UNL1       -0.2750
     13 H           4.8825   -3.3840   28.4799 H       1  UNL1        0.1495
     14 C           6.3405   -4.9478   28.1269 C.3     1  UNL1        0.1011
     15 C           6.8162   -5.5112   29.4331 C.3     1  UNL1        0.1615
     16 O           7.9971   -4.9004   30.1277 O.3     1  UNL1       -0.3520
     17 C           6.4442   -3.5223   31.6896 C.3     1  UNL1        0.0346
     18 C           7.7971   -4.0869   31.3720 C.3     1  UNL1        0.1423
     19 C           6.4450   -5.7667   26.8744 C.3     1  UNL1        0.0221
     20 C           7.6611   -6.6098   26.6288 C.3     1  UNL1        0.0017
     21 C           7.5169   -8.0848   26.3975 C.3     1  UNL1        0.0001
     22 C           9.0214   -5.9777   26.6144 C.3     1  UNL1        0.0001
     23 C           2.3889    0.6776   27.0693 C.2     1  UNL1        0.2336
     24 O           1.7548    0.8612   25.7224 O.2     1  UNL1       -0.2744
     25 N           1.5389    0.6805   28.3051 N.am    1  UNL1       -0.2454
     26 C           2.1731    0.4969   29.6521 C.ar    1  UNL1        0.1373
     27 C           2.3369    1.6716   30.5703 C.ar    1  UNL1        0.0344
     28 C           2.9711    1.4879   31.9172 C.ar    1  UNL1        0.0001
     29 C           3.4415    0.1296   32.3458 C.ar    1  UNL1       -0.0033
     30 C           3.2776   -1.0451   31.4275 C.ar    1  UNL1        0.0960
     31 N           2.6435   -0.8614   30.0807 N.ar    1  UNL1       -0.2291
     32 C           4.0757   -0.0540   33.6927 C.3     1  UNL1        0.0239
     33 C           4.4384   -1.4292   34.1697 C.3     1  UNL1        0.0047
     34 C           4.3471    1.1374   34.5626 C.3     1  UNL1        0.0047
     35 C           0.0547    0.8671   28.1942 C.3     1  UNL1        0.0812
     36 C          -1.1232    1.6047   27.6298 C.3     1  UNL1        0.0219
     37 C          -1.3380    0.4528   28.5662 C.3     1  UNL1        0.0219
@<TRIPOS>BOND
     1    17    18    1
     2    18    16    1
     3    16    15    1
     4    14    15    1
     5    14    19    1
     6    19    20    1
     7    20    21    1
     8    20    22    1
     9    14    10    1
    10    10    11   am
    11    11    12    2
    12     1    11    1
    13     1     2    1
    14     2     3    1
    15     3     4    1
    16     4     5    1
    17     5    23    1
    18    23    24    2
    19    23    25   am
    20    25    26    1
    21    26    27   ar
    22    27    28   ar
    23    28    29   ar
    24    29    32    1
    25    32    33    1
    26    32    34    1
    27    29    30   ar
    28    30    31   ar
    29    25    35    1
    30    35    36    1
    31    36    37    1
    32     5     6    1
    33     6     7    1
    34     6     1    1
    35    31    26   ar
    36    37    35    1
    37    10    13    1
    38     3     8    1
    39     7     9    1
@<TRIPOS>MOLECULE
*****
 37 39 0 0 0
SMALL
GASTEIGER

@<TRIPOS>ATOM
      1 C          -6.5805  -19.7931   22.0397 C.3     1  UNL1        0.1194
      2 C          -6.6911  -21.0091   22.9109 C.3     1  UNL1        0.0802
      3 N          -8.0308  -21.4407   23.4297 N.3     1  UNL1       -0.2965
      4 C          -9.2597  -20.6563   23.0772 C.3     1  UNL1        0.0802
      5 C          -9.1491  -19.4403   22.2060 C.3     1  UNL1        0.1200
      6 C          -7.8094  -19.0087   21.6872 C.3     1  UNL1        0.1303
      7 O          -7.6988  -17.7926   20.8159 O.3     1  UNL1       -0.3834
      8 H          -7.9653  -21.4438   24.4476 H       1  UNL1        0.1233
      9 H          -8.5791  -17.4063   20.6867 H       1  UNL1        0.2104
     10 N          -3.9974  -19.6832   22.2957 N.am    1  UNL1       -0.3034
     11 C          -5.2408  -19.3616   21.5209 C.2     1  UNL1        0.2258
     12 O          -5.1446  -18.6084   20.2273 O.2     1  UNL1       -0.2750
     13 H          -4.0605  -20.1775   23.1448 H       1  UNL1        0.1495
     14 C          -2.6577  -19.2516   21.7770 C.3     1  UNL1        0.1011
     15 C          -2.0801  -19.9048   20.5565 C.3     1  UNL1        0.1615
     16 O          -1.0132  -19.2070   19.7662 O.3     1  UNL1       -0.3520
     17 C          -2.6226  -17.4235   18.7769 C.3     1  UNL1        0.0346
     18 C          -1.3924  -18.2731   18.6554 C.3     1  UNL1        0.1423
     19 C          -1.8957  -18.1667   22.4788 C.3     1  UNL1        0.0221
     20 C          -2.4088  -16.7573   22.4603 C.3     1  UNL1        0.0017
     21 C          -1.6689  -15.6998   21.6960 C.3     1  UNL1        0.0001
     22 C          -3.6619  -16.4055   23.2060 C.3     1  UNL1        0.0001
     23 C         -10.3781  -18.6558   21.8535 C.2     1  UNL1        0.2336
     24 O         -11.3453  -19.1923   20.8403 O.2     1  UNL1       -0.2744
     25 N         -10.6397  -17.3348   22.5141 N.am    1  UNL1       -0.2454
     26 C          -9.6724  -16.7983   23.5273 C.ar    1  UNL1        0.1373
     27 C          -8.7040  -15.7196   23.1419 C.ar    1  UNL1        0.0344
     28 C          -7.7367  -15.1831   24.1551 C.ar    1  UNL1        0.0001
     29 C          -7.7378  -15.7254   25.5536 C.ar    1  UNL1       -0.0033
     30 C          -8.7062  -16.8041   25.9390 C.ar    1  UNL1        0.0960
     31 N          -9.6735  -17.3405   24.9259 N.ar    1  UNL1       -0.2291
     32 C          -6.7705  -15.1889   26.5668 C.3     1  UNL1        0.0239
     33 C          -5.3291  -14.9960   26.1989 C.3     1  UNL1        0.0047
     34 C          -7.2445  -14.8453   27.9478 C.3     1  UNL1        0.0047
     35 C         -11.8686  -16.5503   22.1617 C.3     1  UNL1        0.0812
     36 C         -12.9095  -16.1472   21.1596 C.3     1  UNL1        0.0219
     37 C         -12.9564  -15.5946   22.5532 C.3     1  UNL1        0.0219
@<TRIPOS>BOND
     1    17    18    1
     2    18    16    1
     3    16    15    1
     4    14    15    1
     5    14    19    1
     6    19    20    1
     7    20    21    1
     8    20    22    1
     9    14    10    1
    10    10    11   am
    11    11    12    2
    12     1    11    1
    13     1     2    1
    14     2     3    1
    15     3     4    1
    16     4     5    1
    17     5    23    1
    18    23    24    2
    19    23    25   am
    20    25    26    1
    21    26    27   ar
    22    27    28   ar
    23    28    29   ar
    24    29    32    1
    25    32    33    1
    26    32    34    1
    27    29    30   ar
    28    30    31   ar
    29    25    35    1
    30    35    36    1
    31    36    37    1
    32     5     6    1
    33     6     7    1
    34     6     1    1
    35    31    26   ar
    36    37    35    1
    37    10    13    1
    38     3     8    1
    39     7     9    1
@<TRIPOS>MOLECULE
*****
 37 39 0 0 0
SMALL
GASTEIGER

@<TRIPOS>ATOM
      1 C           5.9610   -2.4302   19.8443 C.3     1  UNL1        0.1194
      2 C           7.0381   -1.5816   19.2363 C.3     1  UNL1        0.0802
      3 N           8.4785   -1.9670   19.3998 N.3     1  UNL1       -0.2965
      4 C           8.8418   -3.2010   20.1712 C.3     1  UNL1        0.0802
      5 C           7.7647   -4.0497   20.7792 C.3     1  UNL1        0.1200
      6 C           6.3243   -3.6642   20.6157 C.3     1  UNL1        0.1303
      7 O           5.2472   -4.5130   21.2237 O.3     1  UNL1       -0.3834
      8 H           8.9422   -1.1843   19.8610 H       1  UNL1        0.1233
      9 H           5.6500   -5.2659   21.6839 H       1  UNL1        0.2104
     10 N           4.1168   -0.6023   19.7584 N.am    1  UNL1       -0.3034
     11 C           4.5206   -2.0448   19.6809 C.2     1  UNL1        0.2258
     12 O           3.4841   -3.1019   19.4399 O.2     1  UNL1       -0.2750
     13 H           4.7971    0.0915   19.9166 H       1  UNL1        0.1495
     14 C           2.6764   -0.2169   19.5950 C.3     1  UNL1        0.1011
     15 C           2.1932    0.3429   18.2900 C.3     1  UNL1        0.1615
     16 O           0.7824    0.8360   18.1618 O.3     1  UNL1       -0.3520
     17 C           1.5637    3.2410   18.7580 C.3     1  UNL1        0.0346
     18 C           0.4788    2.2944   18.3375 C.3     1  UNL1        0.1423
     19 C           1.7191   -0.3914   20.7366 C.3     1  UNL1        0.0221
     20 C           1.9947    0.2703   22.0543 C.3     1  UNL1        0.0017
     21 C           1.4285    1.6287   22.3443 C.3     1  UNL1        0.0001
     22 C           2.8365   -0.4264   23.0819 C.3     1  UNL1        0.0001
     23 C           8.1280   -5.2838   21.5507 C.2     1  UNL1        0.2336
     24 O           8.5490   -6.5262   20.8233 O.2     1  UNL1       -0.2744
     25 N           8.0703   -5.2754   23.0495 N.am    1  UNL1       -0.2454
     26 C           7.6493   -4.0329   23.7769 C.ar    1  UNL1        0.1373
     27 C           8.6723   -3.0046   24.1592 C.ar    1  UNL1        0.0344
     28 C           8.2513   -1.7622   24.8865 C.ar    1  UNL1        0.0001
     29 C           6.8073   -1.5480   25.2316 C.ar    1  UNL1       -0.0033
     30 C           5.7843   -2.5763   24.8493 C.ar    1  UNL1        0.0960
     31 N           6.2054   -3.8187   24.1220 N.ar    1  UNL1       -0.2291
     32 C           6.3863   -0.3055   25.9590 C.3     1  UNL1        0.0239
     33 C           6.4139   -0.2685   27.4583 C.3     1  UNL1        0.0047
     34 C           5.9378    0.8999   25.1871 C.3     1  UNL1        0.0047
     35 C           8.4336   -6.5094   23.8210 C.3     1  UNL1        0.0812
     36 C           8.1026   -7.5312   24.8680 C.3     1  UNL1        0.0219
     37 C           9.3937   -7.6249   24.1103 C.3     1  UNL1        0.0219
@<TRIPOS>BOND
     1    17    18    1
     2    18    16    1
     3    16    15    1
     4    14    15    1
     5    14    19    1
     6    19    20    1
     7    20    21    1
     8    20    22    1
     9    14    10    1
    10    10    11   am
    11    11    12    2
    12     1    11    1
    13     1     2    1
    14     2     3    1
    15     3     4    1
    16     4     5    1
    17     5    23    1
    18    23    24    2
    19    23    25   am
    20    25    26    1
    21    26    27   ar
    22    27    28   ar
    23    28    29   ar
    24    29    32    1
    25    32    33    1
    26    32    34    1
    27    29    30   ar
    28    30    31   ar
    29    25    35    1
    30    35    36    1
    31    36    37    1
    32     5     6    1
    33     6     7    1
    34     6     1    1
    35    31    26   ar
    36    37    35    1
    37    10    13    1
    38     3     8    1
    39     7     9    1
@<TRIPOS>MOLECULE
*****
 37 39 0 0 0
SMALL
GASTEIGER

@<TRIPOS>ATOM
      1 C           2.4915    2.9288   18.6441 C.3     1  UNL1        0.1194
      2 C           3.7347    3.7392   18.4256 C.3     1  UNL1        0.0802
      3 N           5.0182    3.0581   18.0535 N.3     1  UNL1       -0.2965
      4 C           5.0587    1.5665   17.8998 C.3     1  UNL1        0.0802
      5 C           3.8155    0.7562   18.1183 C.3     1  UNL1        0.1200
      6 C           2.5319    1.4373   18.4904 C.3     1  UNL1        0.1303
      7 O           1.2887    0.6268   18.7089 O.3     1  UNL1       -0.3834
      8 H           5.6988    3.2984   18.7742 H       1  UNL1        0.1233
      9 H           1.4868   -0.3127   18.5709 H       1  UNL1        0.2104
     10 N           0.4779    3.2051   20.2624 N.am    1  UNL1       -0.3034
     11 C           1.2079    3.6100   19.0162 C.2     1  UNL1        0.2258
     12 O           0.6544    4.6960   18.1421 O.2     1  UNL1       -0.2750
     13 H           0.8412    2.4923   20.8361 H       1  UNL1        0.1495
     14 C          -0.8057    3.8862   20.6345 C.3     1  UNL1        0.1011
     15 C          -2.0936    3.4608   19.9941 C.3     1  UNL1        0.1615
     16 O          -3.0780    2.6335   20.7665 O.3     1  UNL1       -0.3520
     17 C          -4.9366    3.0531   22.5327 C.3     1  UNL1        0.0346
     18 C          -4.4138    3.2075   21.1353 C.3     1  UNL1        0.1423
     19 C          -0.8013    4.9929   21.6472 C.3     1  UNL1        0.0221
     20 C          -1.6005    4.8576   22.9094 C.3     1  UNL1        0.0017
     21 C          -1.4102    3.6606   23.7929 C.3     1  UNL1        0.0001
     22 C          -2.5900    5.9196   23.2879 C.3     1  UNL1        0.0001
     23 C           3.8559   -0.7355   17.9647 C.2     1  UNL1        0.2336
     24 O           3.8731   -1.3482   16.5957 O.2     1  UNL1       -0.2744
     25 N           3.8790   -1.6142   19.1801 N.am    1  UNL1       -0.2454
     26 C           3.8617   -1.0014   20.5491 C.ar    1  UNL1        0.1373
     27 C           5.1492   -0.6115   21.2126 C.ar    1  UNL1        0.0344
     28 C           5.1319    0.0013   22.5816 C.ar    1  UNL1        0.0001
     29 C           3.8271    0.2242   23.2871 C.ar    1  UNL1       -0.0033
     30 C           2.5396   -0.1657   22.6236 C.ar    1  UNL1        0.0960
     31 N           2.5569   -0.7785   21.2546 N.ar    1  UNL1       -0.2291
     32 C           3.8098    0.8370   24.6561 C.3     1  UNL1        0.0239
     33 C           5.0123    1.5778   25.1614 C.3     1  UNL1        0.0047
     34 C           2.5901    0.7091   25.5198 C.3     1  UNL1        0.0047
     35 C           3.9194   -3.1058   19.0265 C.3     1  UNL1        0.0812
     36 C           4.6742   -4.3568   18.6872 C.3     1  UNL1        0.0219
     37 C           3.2344   -4.4382   19.0998 C.3     1  UNL1        0.0219
@<TRIPOS>BOND
     1    17    18    1
     2    18    16    1
     3    16    15    1
     4    14    15    1
     5    14    19    1
     6    19    20    1
     7    20    21    1
     8    20    22    1
     9    14    10    1
    10    10    11   am
    11    11    12    2
    12     1    11    1
    13     1     2    1
    14     2     3    1
    15     3     4    1
    16     4     5    1
    17     5    23    1
    18    23    24    2
    19    23    25   am
    20    25    26    1
    21    26    27   ar
    22    27    28   ar
    23    28    29   ar
    24    29    32    1
    25    32    33    1
    26    32    34    1
    27    29    30   ar
    28    30    31   ar
    29    25    35    1
    30    35    36    1
    31    36    37    1
    32     5     6    1
    33     6     7    1
    34     6     1    1
    35    31    26   ar
    36    37    35    1
    37    10    13    1
    38     3     8    1
    39     7     9    1
@<TRIPOS>MOLECULE
*****
 37 39 0 0 0
SMALL
GASTEIGER

@<TRIPOS>ATOM
      1 C           0.9445    2.6225   19.1039 C.3     1  UNL1        0.1194
      2 C           1.8110    3.8419   18.9936 C.3     1  UNL1        0.0802
      3 N           3.2490    3.7060   18.5891 N.3     1  UNL1       -0.2965
      4 C           3.8206    2.3508   18.2950 C.3     1  UNL1        0.0802
      5 C           2.9541    1.1314   18.4053 C.3     1  UNL1        0.1200
      6 C           1.5160    1.2672   18.8097 C.3     1  UNL1        0.1303
      7 O           0.6495    0.0477   18.9200 O.3     1  UNL1       -0.3834
      8 H           3.8064    4.1028   19.3457 H       1  UNL1        0.1233
      9 H           1.1701   -0.7400   18.6978 H       1  UNL1        0.2104
     10 N          -1.3387    3.8483   18.9188 N.am    1  UNL1       -0.3034
     11 C          -0.4936    2.7583   19.5083 C.2     1  UNL1        0.2258
     12 O          -1.0865    1.8042   20.5023 O.2     1  UNL1       -0.2750
     13 H          -0.9496    4.4746   18.2663 H       1  UNL1        0.1495
     14 C          -2.7768    3.9842   19.3232 C.3     1  UNL1        0.1011
     15 C          -3.1326    4.2166   20.7617 C.3     1  UNL1        0.1615
     16 O          -3.6739    3.0905   21.5918 O.3     1  UNL1       -0.3520
     17 C          -5.6358    4.6006   22.3797 C.3     1  UNL1        0.0346
     18 C          -4.9701    3.2574   22.3280 C.3     1  UNL1        0.1423
     19 C          -3.8590    3.8876   18.2890 C.3     1  UNL1        0.0221
     20 C          -5.2680    4.2637   18.6405 C.3     1  UNL1        0.0017
     21 C          -5.6557    5.7092   18.7403 C.3     1  UNL1        0.0001
     22 C          -6.2891    3.1941   18.8923 C.3     1  UNL1        0.0001
     23 C           3.5256   -0.2240   18.1111 C.2     1  UNL1        0.2336
     24 O           3.5727   -0.7277   16.6990 O.2     1  UNL1       -0.2744
     25 N           4.0500   -1.0755   19.2291 N.am    1  UNL1       -0.2454
     26 C           4.0029   -0.5717   20.6412 C.ar    1  UNL1        0.1373
     27 C           2.8695   -0.9665   21.5409 C.ar    1  UNL1        0.0344
     28 C           2.8224   -0.4627   22.9529 C.ar    1  UNL1        0.0001
     29 C           3.9087    0.4359   23.4653 C.ar    1  UNL1       -0.0033
     30 C           5.0421    0.8306   22.5656 C.ar    1  UNL1        0.0960
     31 N           5.0892    0.3268   21.1536 N.ar    1  UNL1       -0.2291
     32 C           3.8615    0.9397   24.8774 C.3     1  UNL1        0.0239
     33 C           3.1556    0.1434   25.9346 C.3     1  UNL1        0.0047
     34 C           4.5203    2.2396   25.2323 C.3     1  UNL1        0.0047
     35 C           4.6215   -2.4308   18.9350 C.3     1  UNL1        0.0812
     36 C           5.7652   -3.2871   18.4780 C.3     1  UNL1        0.0219
     37 C           4.4678   -3.9219   18.8826 C.3     1  UNL1        0.0219
@<TRIPOS>BOND
     1    17    18    1
     2    18    16    1
     3    16    15    1
     4    14    15    1
     5    14    19    1
     6    19    20    1
     7    20    21    1
     8    20    22    1
     9    14    10    1
    10    10    11   am
    11    11    12    2
    12     1    11    1
    13     1     2    1
    14     2     3    1
    15     3     4    1
    16     4     5    1
    17     5    23    1
    18    23    24    2
    19    23    25   am
    20    25    26    1
    21    26    27   ar
    22    27    28   ar
    23    28    29   ar
    24    29    32    1
    25    32    33    1
    26    32    34    1
    27    29    30   ar
    28    30    31   ar
    29    25    35    1
    30    35    36    1
    31    36    37    1
    32     5     6    1
    33     6     7    1
    34     6     1    1
    35    31    26   ar
    36    37    35    1
    37    10    13    1
    38     3     8    1
    39     7     9    1
@<TRIPOS>MOLECULE
*****
 37 39 0 0 0
SMALL
GASTEIGER

@<TRIPOS>ATOM
      1 C           3.7165    3.3830   33.6769 C.3     1  UNL1        0.1194
      2 C           4.8125    4.1477   32.9957 C.3     1  UNL1        0.0802
      3 N           4.7610    4.3725   31.5136 N.3     1  UNL1       -0.2965
      4 C           3.6135    3.8324   30.7125 C.3     1  UNL1        0.0802
      5 C           2.5176    3.0677   31.3937 C.3     1  UNL1        0.1200
      6 C           2.5691    2.8430   32.8759 C.3     1  UNL1        0.1303
      7 O           1.4730    2.0782   33.5570 O.3     1  UNL1       -0.3834
      8 H           5.6103    3.9634   31.1240 H       1  UNL1        0.1233
      9 H           0.8148    1.8023   32.9001 H       1  UNL1        0.2104
     10 N           3.0067    2.0204   35.7720 N.am    1  UNL1       -0.3034
     11 C           3.7680    3.1582   35.1591 C.2     1  UNL1        0.2258
     12 O           4.5809    4.0713   36.0283 O.2     1  UNL1       -0.2750
     13 H           2.4732    1.4212   35.2015 H       1  UNL1        0.1495
     14 C           3.0582    1.7957   37.2542 C.3     1  UNL1        0.1011
     15 C           4.0808    0.8657   37.8367 C.3     1  UNL1        0.1615
     16 O           5.5167    0.9712   37.4157 O.3     1  UNL1       -0.3520
     17 C           5.1003   -0.6710   35.4460 C.3     1  UNL1        0.0346
     18 C           6.0487    0.0783   36.3343 C.3     1  UNL1        0.1423
     19 C           2.0871    2.5010   38.1539 C.3     1  UNL1        0.0221
     20 C           1.1201    1.7080   38.9823 C.3     1  UNL1        0.0017
     21 C          -0.0777    2.3799   39.5853 C.3     1  UNL1        0.0001
     22 C           1.3511    0.2431   39.2076 C.3     1  UNL1        0.0001
     23 C           1.3700    2.5276   30.5927 C.2     1  UNL1        0.2336
     24 O           0.1814    3.3963   30.3053 O.2     1  UNL1       -0.2744
     25 N           1.4111    1.1189   30.0791 N.am    1  UNL1       -0.2454
     26 C           2.5998    0.2502   30.3665 C.ar    1  UNL1        0.1373
     27 C           3.6711    0.0784   29.3308 C.ar    1  UNL1        0.0344
     28 C           4.8597   -0.7903   29.6183 C.ar    1  UNL1        0.0001
     29 C           4.9770   -1.4870   30.9414 C.ar    1  UNL1       -0.0033
     30 C           3.9057   -1.3152   31.9771 C.ar    1  UNL1        0.0960
     31 N           2.7171   -0.4465   31.6897 N.ar    1  UNL1       -0.2291
     32 C           6.1657   -2.3557   31.2288 C.3     1  UNL1        0.0239
     33 C           6.6119   -3.3736   30.2214 C.3     1  UNL1        0.0047
     34 C           6.9081   -2.2065   32.5236 C.3     1  UNL1        0.0047
     35 C           0.2637    0.5788   29.2781 C.3     1  UNL1        0.0812
     36 C          -0.5484    0.5667   28.0170 C.3     1  UNL1        0.0219
     37 C          -0.9117   -0.3444   29.1518 C.3     1  UNL1        0.0219
@<TRIPOS>BOND
     1    17    18    1
     2    18    16    1
     3    16    15    1
     4    14    15    1
     5    14    19    1
     6    19    20    1
     7    20    21    1
     8    20    22    1
     9    14    10    1
    10    10    11   am
    11    11    12    2
    12     1    11    1
    13     1     2    1
    14     2     3    1
    15     3     4    1
    16     4     5    1
    17     5    23    1
    18    23    24    2
    19    23    25   am
    20    25    26    1
    21    26    27   ar
    22    27    28   ar
    23    28    29   ar
    24    29    32    1
    25    32    33    1
    26    32    34    1
    27    29    30   ar
    28    30    31   ar
    29    25    35    1
    30    35    36    1
    31    36    37    1
    32     5     6    1
    33     6     7    1
    34     6     1    1
    35    31    26   ar
    36    37    35    1
    37    10    13    1
    38     3     8    1
    39     7     9    1
@<TRIPOS>MOLECULE
*****
 37 39 0 0 0
SMALL
GASTEIGER

@<TRIPOS>ATOM
      1 C           4.9109   -0.2595   25.8919 C.3     1  UNL1        0.1194
      2 C           5.6961    0.6085   24.9538 C.3     1  UNL1        0.0802
      3 N           6.9409    0.0784   24.3060 N.3     1  UNL1       -0.2965
      4 C           7.4004   -1.3196   24.5963 C.3     1  UNL1        0.0802
      5 C           6.6152   -2.1876   25.5344 C.3     1  UNL1        0.1200
      6 C           5.3705   -1.6575   26.1822 C.3     1  UNL1        0.1303
      7 O           4.5853   -2.5255   27.1204 O.3     1  UNL1       -0.3834
      8 H           7.7020    0.7008   24.5773 H       1  UNL1        0.1233
      9 H           5.0160   -3.3913   27.1968 H       1  UNL1        0.2104
     10 N           3.4281    0.0451   28.0034 N.am    1  UNL1       -0.3034
     11 C           3.6662    0.2706   26.5397 C.2     1  UNL1        0.2258
     12 O           2.6595    1.0261   25.7238 O.2     1  UNL1       -0.2750
     13 H           4.0889   -0.4507   28.5389 H       1  UNL1        0.1495
     14 C           2.1834    0.5752   28.6512 C.3     1  UNL1        0.1011
     15 C           2.1818    1.9440   29.2646 C.3     1  UNL1        0.1615
     16 O           1.9855    2.1030   30.7432 O.3     1  UNL1       -0.3520
     17 C           0.3430    3.6560   32.0240 C.3     1  UNL1        0.0346
     18 C           0.6168    2.3750   31.2932 C.3     1  UNL1        0.1423
     19 C           0.9403   -0.2636   28.6855 C.3     1  UNL1        0.0221
     20 C          -0.3804    0.3369   28.3043 C.3     1  UNL1        0.0017
     21 C          -0.4878    1.1968   27.0800 C.3     1  UNL1        0.0001
     22 C          -1.5936    0.0773   29.1474 C.3     1  UNL1        0.0001
     23 C           7.0748   -3.5857   25.8248 C.2     1  UNL1        0.2336
     24 O           7.5757   -3.9415   27.1931 O.2     1  UNL1       -0.2744
     25 N           7.0334   -4.6278   24.7467 N.am    1  UNL1       -0.2454
     26 C           6.5325   -4.2719   23.3783 C.ar    1  UNL1        0.1373
     27 C           5.1148   -3.8180   23.1932 C.ar    1  UNL1        0.0344
     28 C           4.6140   -3.4621   21.8248 C.ar    1  UNL1        0.0001
     29 C           5.5308   -3.5601   20.6416 C.ar    1  UNL1       -0.0033
     30 C           6.9484   -4.0140   20.8268 C.ar    1  UNL1        0.0960
     31 N           7.4492   -4.3699   22.1951 N.ar    1  UNL1       -0.2291
     32 C           5.0298   -3.2042   19.2732 C.3     1  UNL1        0.0239
     33 C           3.6021   -3.4767   18.9029 C.3     1  UNL1        0.0047
     34 C           5.9567   -2.5757   18.2753 C.3     1  UNL1        0.0047
     35 C           7.4929   -6.0259   25.0371 C.3     1  UNL1        0.0812
     36 C           8.2660   -7.2481   24.6391 C.3     1  UNL1        0.0219
     37 C           7.5157   -7.2251   25.9378 C.3     1  UNL1        0.0219
@<TRIPOS>BOND
     1    17    18    1
     2    18    16    1
     3    16    15    1
     4    14    15    1
     5    14    19    1
     6    19    20    1
     7    20    21    1
     8    20    22    1
     9    14    10    1
    10    10    11   am
    11    11    12    2
    12     1    11    1
    13     1     2    1
    14     2     3    1
    15     3     4    1
    16     4     5    1
    17     5    23    1
    18    23    24    2
    19    23    25   am
    20    25    26    1
    21    26    27   ar
    22    27    28   ar
    23    28    29   ar
    24    29    32    1
    25    32    33    1
    26    32    34    1
    27    29    30   ar
    28    30    31   ar
    29    25    35    1
    30    35    36    1
    31    36    37    1
    32     5     6    1
    33     6     7    1
    34     6     1    1
    35    31    26   ar
    36    37    35    1
    37    10    13    1
    38     3     8    1
    39     7     9    1
