@<TRIPOS>MOLECULE
*****
 37 40 0 0 0
SMALL
GASTEIGER

@<TRIPOS>ATOM
      1 C          -5.5918  -18.5311   21.7975 C.3     1  UNL1        0.0815
      2 N          -4.2717  -18.3598   21.1061 N.3     1  UNL1       -0.2719
      3 C          -4.1613  -18.6013   19.6298 C.3     1  UNL1        0.0748
      4 C          -2.8413  -18.4300   18.9384 C.3     1  UNL1        0.0528
      5 C          -1.6315  -18.0172   19.7233 C.3     1  UNL1        0.1779
      6 O          -1.0283  -18.1288   18.3545 O.3     1  UNL1       -0.3786
      7 C          -1.7419  -17.7756   21.1997 C.3     1  UNL1        0.0528
      8 C          -3.0619  -17.9469   21.8911 C.3     1  UNL1        0.0748
      9 H          -1.7120  -18.3965   17.7207 H       1  UNL1        0.2106
     10 C          -0.2123  -17.6431   20.0329 C.3     1  UNL1        0.4194
     11 F           1.2069  -17.2689   20.3424 F       1  UNL1       -0.1676
     12 F           0.2356  -19.0208   19.6439 F       1  UNL1       -0.1676
     13 F          -0.6602  -16.2653   20.4218 F       1  UNL1       -0.1676
     14 C          -6.1560  -17.4138   22.6242 C.3     1  UNL1        0.1056
     15 O          -7.9251  -15.3974   21.2810 O.2     1  UNL1       -0.2748
     16 C          -8.5075  -16.3697   22.2637 C.2     1  UNL1        0.2254
     17 N          -7.6229  -17.3778   22.9353 N.am    1  UNL1       -0.3028
     18 H          -8.0052  -18.0159   23.5802 H       1  UNL1        0.1495
     19 C          -9.9745  -16.3336   22.5747 C.3     1  UNL1        0.0875
     20 C         -11.3452  -16.3140   23.1838 C.3     1  UNL1        0.0127
     21 C         -12.3462  -16.2311   22.0698 C.3     1  UNL1        0.0008
     22 C         -11.5943  -16.1996   20.7722 C.3     1  UNL1        0.0008
     23 C         -10.1284  -16.2629   21.0843 C.3     1  UNL1        0.0127
     24 C          -9.5139  -16.4119   24.0001 C.ar    1  UNL1       -0.0146
     25 C          -9.7820  -17.6469   24.8082 C.ar    1  UNL1       -0.0030
     26 C          -9.3214  -17.7251   26.2336 C.ar    1  UNL1        0.0111
     27 C          -8.5926  -16.5684   26.8509 C.ar    1  UNL1        0.0577
     28 CL         -8.1320  -16.6466   28.2763 Cl      1  UNL1       -0.0822
     29 C          -8.3246  -15.3334   26.0428 C.ar    1  UNL1        0.0111
     30 C          -8.7852  -15.2552   24.6174 C.ar    1  UNL1       -0.0030
     31 C          -6.3476  -19.8196   21.6623 C.3     1  UNL1        0.0440
     32 C          -7.7989  -19.8016   21.2834 C.ar    1  UNL1       -0.0208
     33 C          -8.8492  -20.0497   22.3252 C.ar    1  UNL1       -0.0042
     34 C         -10.3004  -20.0317   21.9463 C.ar    1  UNL1       -0.0003
     35 C         -10.7014  -19.7657   20.5256 C.ar    1  UNL1       -0.0000
     36 C          -9.6511  -19.5176   19.4838 C.ar    1  UNL1       -0.0003
     37 C          -8.1999  -19.5356   19.8627 C.ar    1  UNL1       -0.0042
@<TRIPOS>BOND
     1    15    16    2
     2    16    17   am
     3    17    14    1
     4     1    14    1
     5     1    31    1
     6    31    32    1
     7    32    33   ar
     8    33    34   ar
     9    34    35   ar
    10    35    36   ar
    11    36    37   ar
    12     1     2    1
    13     2     3    1
    14     3     4    1
    15     4     5    1
    16     5     6    1
    17     5    10    1
    18    10    11    1
    19    10    12    1
    20    10    13    1
    21     5     7    1
    22     7     8    1
    23    16    19    1
    24    19    24    1
    25    24    25   ar
    26    25    26   ar
    27    26    27   ar
    28    27    28    1
    29    27    29   ar
    30    29    30   ar
    31    19    20    1
    32    20    21    1
    33    21    22    1
    34    22    23    1
    35    37    32   ar
    36     8     2    1
    37    23    19    1
    38    30    24   ar
    39    17    18    1
    40     6     9    1
@<TRIPOS>MOLECULE
*****
 37 40 0 0 0
SMALL
GASTEIGER

@<TRIPOS>ATOM
      1 C          -5.4475  -19.9064   21.3623 C.3     1  UNL1        0.0815
      2 N          -4.2102  -19.2864   20.7839 N.3     1  UNL1       -0.2719
      3 C          -4.1843  -18.8669   19.3440 C.3     1  UNL1        0.0748
      4 C          -2.9470  -18.2468   18.7656 C.3     1  UNL1        0.0528
      5 C          -1.7356  -18.0462   19.6270 C.3     1  UNL1        0.1779
      6 O          -1.2277  -17.4899   18.3298 O.3     1  UNL1       -0.3786
      7 C          -1.7614  -18.4658   21.0670 C.3     1  UNL1        0.0528
      8 C          -2.9987  -19.0858   21.6454 C.3     1  UNL1        0.0748
      9 H          -1.9229  -17.5540   17.6563 H       1  UNL1        0.2106
     10 C          -0.3477  -17.6525   20.0380 C.3     1  UNL1        0.4194
     11 F           1.0401  -17.2587   20.4489 F       1  UNL1       -0.1676
     12 F           0.1732  -18.9674   19.5384 F       1  UNL1       -0.1676
     13 F          -0.8687  -16.3375   20.5375 F       1  UNL1       -0.1676
     14 C          -6.1088  -19.2863   22.5574 C.3     1  UNL1        0.1056
     15 O          -8.6365  -20.5345   23.5833 O.2     1  UNL1       -0.2748
     16 C          -8.6803  -19.1921   22.9154 C.2     1  UNL1        0.2254
     17 N          -7.4165  -18.5680   22.4025 N.am    1  UNL1       -0.3028
     18 H          -7.4452  -17.6870   21.9641 H       1  UNL1        0.1495
     19 C          -9.9881  -18.4738   22.7605 C.3     1  UNL1        0.0875
     20 C         -11.1917  -17.5828   22.8457 C.3     1  UNL1        0.0127
     21 C         -12.1599  -18.0086   21.7820 C.3     1  UNL1        0.0008
     22 C         -11.5545  -19.1628   21.0394 C.3     1  UNL1        0.0008
     23 C         -10.2122  -19.4503   21.6442 C.3     1  UNL1        0.0127
     24 C          -9.4905  -17.6475   23.9092 C.ar    1  UNL1       -0.0146
     25 C          -8.9341  -16.2767   23.6615 C.ar    1  UNL1       -0.0030
     26 C          -8.4365  -15.4503   24.8102 C.ar    1  UNL1        0.0111
     27 C          -8.4953  -15.9948   26.2067 C.ar    1  UNL1        0.0577
     28 CL         -7.9978  -15.1685   27.3554 Cl      1  UNL1       -0.0822
     29 C          -9.0517  -17.3656   26.4545 C.ar    1  UNL1        0.0111
     30 C          -9.5493  -18.1920   25.3056 C.ar    1  UNL1       -0.0030
     31 C          -6.0235  -21.1466   20.7457 C.3     1  UNL1        0.0440
     32 C          -7.0824  -21.0366   19.6890 C.ar    1  UNL1       -0.0208
     33 C          -7.7708  -19.7254   19.4507 C.ar    1  UNL1       -0.0042
     34 C          -8.8296  -19.6154   18.3939 C.ar    1  UNL1       -0.0003
     35 C          -9.2000  -20.8166   17.5755 C.ar    1  UNL1       -0.0000
     36 C          -8.5116  -22.1278   17.8138 C.ar    1  UNL1       -0.0003
     37 C          -7.4528  -22.2378   18.8705 C.ar    1  UNL1       -0.0042
@<TRIPOS>BOND
     1    15    16    2
     2    16    17   am
     3    17    14    1
     4     1    14    1
     5     1    31    1
     6    31    32    1
     7    32    33   ar
     8    33    34   ar
     9    34    35   ar
    10    35    36   ar
    11    36    37   ar
    12     1     2    1
    13     2     3    1
    14     3     4    1
    15     4     5    1
    16     5     6    1
    17     5    10    1
    18    10    11    1
    19    10    12    1
    20    10    13    1
    21     5     7    1
    22     7     8    1
    23    16    19    1
    24    19    24    1
    25    24    25   ar
    26    25    26   ar
    27    26    27   ar
    28    27    28    1
    29    27    29   ar
    30    29    30   ar
    31    19    20    1
    32    20    21    1
    33    21    22    1
    34    22    23    1
    35    37    32   ar
    36     8     2    1
    37    23    19    1
    38    30    24   ar
    39    17    18    1
    40     6     9    1
@<TRIPOS>MOLECULE
*****
 37 40 0 0 0
SMALL
GASTEIGER

@<TRIPOS>ATOM
      1 C          -4.9236  -17.0840   23.0838 C.3     1  UNL1        0.0815
      2 N          -3.6911  -17.3976   22.2883 N.3     1  UNL1       -0.2719
      3 C          -3.4643  -18.7881   21.7736 C.3     1  UNL1        0.0748
      4 C          -2.2318  -19.1016   20.9781 C.3     1  UNL1        0.0528
      5 C          -1.2262  -18.0246   20.6974 C.3     1  UNL1        0.1779
      6 O          -0.5711  -19.1806   20.0012 O.3     1  UNL1       -0.3786
      7 C          -1.4530  -16.6341   21.2122 C.3     1  UNL1        0.0528
      8 C          -2.6854  -16.3205   22.0077 C.3     1  UNL1        0.0748
      9 H          -1.1229  -19.9722   20.0997 H       1  UNL1        0.2106
     10 C           0.0070  -17.3491   20.1749 C.3     1  UNL1        0.4194
     11 F           1.2401  -16.6736   19.6524 F       1  UNL1       -0.1676
     12 F          -0.5548  -16.0163   20.5724 F       1  UNL1       -0.1676
     13 F           0.5687  -18.6820   19.7774 F       1  UNL1       -0.1676
     14 C          -6.0910  -18.0256   23.0604 C.3     1  UNL1        0.1056
     15 O          -8.4957  -19.8191   23.0349 O.2     1  UNL1       -0.2748
     16 C          -8.0198  -19.1846   21.7617 C.2     1  UNL1        0.2254
     17 N          -6.8174  -18.2878   21.7745 N.am    1  UNL1       -0.3028
     18 H          -6.5051  -17.8713   20.9389 H       1  UNL1        0.1495
     19 C          -8.7462  -19.4468   20.4758 C.3     1  UNL1        0.0875
     20 C          -9.6928  -19.5238   19.3148 C.3     1  UNL1        0.0127
     21 C          -9.0730  -20.4023   18.2688 C.3     1  UNL1        0.0008
     22 C          -7.7432  -20.8683   18.7835 C.3     1  UNL1        0.0008
     23 C          -7.5413  -20.2777   20.1475 C.3     1  UNL1        0.0127
     24 C          -9.7993  -18.5611   21.0730 C.ar    1  UNL1       -0.0146
     25 C         -11.2031  -19.0657   21.2300 C.ar    1  UNL1       -0.0030
     26 C         -12.2561  -18.1800   21.8272 C.ar    1  UNL1        0.0111
     27 C         -11.9053  -16.7895   22.2673 C.ar    1  UNL1        0.0577
     28 CL        -12.9584  -15.9038   22.8645 Cl      1  UNL1       -0.0822
     29 C         -10.5015  -16.2848   22.1102 C.ar    1  UNL1        0.0111
     30 C          -9.4485  -17.1706   21.5130 C.ar    1  UNL1       -0.0030
     31 C          -4.9886  -15.8290   23.9026 C.3     1  UNL1        0.0440
     32 C          -6.0754  -15.6536   24.9215 C.ar    1  UNL1       -0.0208
     33 C          -7.4993  -15.4907   24.4789 C.ar    1  UNL1       -0.0042
     34 C          -8.5861  -15.3154   25.4977 C.ar    1  UNL1       -0.0003
     35 C          -8.2490  -15.3030   26.9593 C.ar    1  UNL1       -0.0000
     36 C          -6.8251  -15.4659   27.4020 C.ar    1  UNL1       -0.0003
     37 C          -5.7383  -15.6412   26.3831 C.ar    1  UNL1       -0.0042
@<TRIPOS>BOND
     1    15    16    2
     2    16    17   am
     3    17    14    1
     4     1    14    1
     5     1    31    1
     6    31    32    1
     7    32    33   ar
     8    33    34   ar
     9    34    35   ar
    10    35    36   ar
    11    36    37   ar
    12     1     2    1
    13     2     3    1
    14     3     4    1
    15     4     5    1
    16     5     6    1
    17     5    10    1
    18    10    11    1
    19    10    12    1
    20    10    13    1
    21     5     7    1
    22     7     8    1
    23    16    19    1
    24    19    24    1
    25    24    25   ar
    26    25    26   ar
    27    26    27   ar
    28    27    28    1
    29    27    29   ar
    30    29    30   ar
    31    19    20    1
    32    20    21    1
    33    21    22    1
    34    22    23    1
    35    37    32   ar
    36     8     2    1
    37    23    19    1
    38    30    24   ar
    39    17    18    1
    40     6     9    1
@<TRIPOS>MOLECULE
*****
 37 40 0 0 0
SMALL
GASTEIGER

@<TRIPOS>ATOM
      1 C          -7.5563  -17.9351   22.5275 C.3     1  UNL1        0.0815
      2 N          -6.2808  -18.2875   21.8211 N.3     1  UNL1       -0.2719
      3 C          -6.3245  -18.8627   20.4365 C.3     1  UNL1        0.0748
      4 C          -5.0491  -19.2152   19.7302 C.3     1  UNL1        0.0528
      5 C          -3.7299  -18.9924   20.4084 C.3     1  UNL1        0.1779
      6 O          -3.2586  -19.5586   19.1017 O.3     1  UNL1       -0.3786
      7 C          -3.6861  -18.4172   21.7931 C.3     1  UNL1        0.0528
      8 C          -4.9615  -18.0648   22.4995 C.3     1  UNL1        0.0748
      9 H          -4.0244  -19.7576   18.5406 H       1  UNL1        0.2106
     10 C          -2.2469  -18.9663   20.6328 C.3     1  UNL1        0.4194
     11 F          -0.7641  -18.9402   20.8573 F       1  UNL1       -0.1676
     12 F          -2.1126  -17.8710   19.6169 F       1  UNL1       -0.1676
     13 F          -2.3814  -20.0616   21.6488 F       1  UNL1       -0.1676
     14 C          -8.5859  -18.9941   22.7895 C.3     1  UNL1        0.1056
     15 O         -10.1987  -18.5260   25.2753 O.2     1  UNL1       -0.2748
     16 C         -10.8516  -18.4293   23.9283 C.2     1  UNL1        0.2254
     17 N         -10.0452  -18.6634   22.6854 N.am    1  UNL1       -0.3028
     18 H         -10.4737  -18.5999   21.8013 H       1  UNL1        0.1495
     19 C         -12.3110  -18.0986   23.8243 C.3     1  UNL1        0.0875
     20 C         -13.6848  -17.6215   23.4565 C.3     1  UNL1        0.0127
     21 C         -14.6384  -18.0958   24.5127 C.3     1  UNL1        0.0008
     22 C         -13.8541  -18.8660   25.5334 C.3     1  UNL1        0.0008
     23 C         -12.4156  -18.8677   25.1078 C.3     1  UNL1        0.0127
     24 C         -11.9013  -17.3986   22.5625 C.ar    1  UNL1       -0.0146
     25 C         -12.2211  -18.0073   21.2294 C.ar    1  UNL1       -0.0030
     26 C         -11.8114  -17.3072   19.9676 C.ar    1  UNL1        0.0111
     27 C         -11.0819  -15.9984   20.0389 C.ar    1  UNL1        0.0577
     28 CL        -10.6722  -15.2984   18.7772 Cl      1  UNL1       -0.0822
     29 C         -10.7621  -15.3897   21.3721 C.ar    1  UNL1        0.0111
     30 C         -11.1719  -16.0898   22.6339 C.ar    1  UNL1       -0.0030
     31 C          -7.8022  -16.5237   22.9720 C.3     1  UNL1        0.0440
     32 C          -7.4333  -16.1004   24.3630 C.ar    1  UNL1       -0.0208
     33 C          -6.0150  -15.7323   24.6837 C.ar    1  UNL1       -0.0042
     34 C          -5.6463  -15.3090   26.0746 C.ar    1  UNL1       -0.0003
     35 C          -6.6958  -15.2537   27.1448 C.ar    1  UNL1       -0.0000
     36 C          -8.1141  -15.6218   26.8241 C.ar    1  UNL1       -0.0003
     37 C          -8.4829  -16.0451   25.4332 C.ar    1  UNL1       -0.0042
@<TRIPOS>BOND
     1    15    16    2
     2    16    17   am
     3    17    14    1
     4     1    14    1
     5     1    31    1
     6    31    32    1
     7    32    33   ar
     8    33    34   ar
     9    34    35   ar
    10    35    36   ar
    11    36    37   ar
    12     1     2    1
    13     2     3    1
    14     3     4    1
    15     4     5    1
    16     5     6    1
    17     5    10    1
    18    10    11    1
    19    10    12    1
    20    10    13    1
    21     5     7    1
    22     7     8    1
    23    16    19    1
    24    19    24    1
    25    24    25   ar
    26    25    26   ar
    27    26    27   ar
    28    27    28    1
    29    27    29   ar
    30    29    30   ar
    31    19    20    1
    32    20    21    1
    33    21    22    1
    34    22    23    1
    35    37    32   ar
    36     8     2    1
    37    23    19    1
    38    30    24   ar
    39    17    18    1
    40     6     9    1
@<TRIPOS>MOLECULE
*****
 37 40 0 0 0
SMALL
GASTEIGER

@<TRIPOS>ATOM
      1 C          -5.0943  -16.9556   23.1012 C.3     1  UNL1        0.0815
      2 N          -3.8747  -17.2946   22.2964 N.3     1  UNL1       -0.2719
      3 C          -3.7421  -18.6514   21.6709 C.3     1  UNL1        0.0748
      4 C          -2.5225  -18.9904   20.8661 C.3     1  UNL1        0.0528
      5 C          -1.4355  -17.9725   20.6869 C.3     1  UNL1        0.1779
      6 O          -0.8554  -19.1135   19.9048 O.3     1  UNL1       -0.3786
      7 C          -1.5680  -16.6156   21.3124 C.3     1  UNL1        0.0528
      8 C          -2.7876  -16.2766   22.1172 C.3     1  UNL1        0.0748
      9 H          -1.4657  -19.8670   19.9312 H       1  UNL1        0.2106
     10 C          -0.1469  -17.3509   20.2360 C.3     1  UNL1        0.4194
     11 F           1.1415  -16.7292   19.7852 F       1  UNL1       -0.1676
     12 F           0.3700  -18.7043   19.8475 F       1  UNL1       -0.1676
     13 F          -0.6640  -15.9974   20.6245 F       1  UNL1       -0.1676
     14 C          -6.3141  -17.8246   23.0166 C.3     1  UNL1        0.1056
     15 O          -8.8316  -19.4553   23.0660 O.2     1  UNL1       -0.2748
     16 C          -8.8066  -18.1358   22.3531 C.2     1  UNL1        0.2254
     17 N          -7.5478  -17.3204   22.3284 N.am    1  UNL1       -0.3028
     18 H          -7.5314  -16.4544   21.8605 H       1  UNL1        0.1495
     19 C         -10.0404  -17.6316   21.6648 C.3     1  UNL1        0.0875
     20 C         -11.1962  -17.3359   20.7557 C.3     1  UNL1        0.0127
     21 C         -12.0255  -16.2617   21.3947 C.3     1  UNL1        0.0008
     22 C         -11.3823  -15.8935   22.6988 C.3     1  UNL1        0.0008
     23 C         -10.1553  -16.7402   22.8657 C.3     1  UNL1        0.0127
     24 C          -9.6675  -18.6285   20.6078 C.ar    1  UNL1       -0.0146
     25 C         -10.7394  -19.3526   19.8483 C.ar    1  UNL1       -0.0030
     26 C         -10.3665  -20.3494   18.7913 C.ar    1  UNL1        0.0111
     27 C          -8.9217  -20.6221   18.4937 C.ar    1  UNL1        0.0577
     28 CL         -8.5489  -21.6189   17.4367 Cl      1  UNL1       -0.0822
     29 C          -7.8499  -19.8980   19.2533 C.ar    1  UNL1        0.0111
     30 C          -8.2229  -18.9011   20.3103 C.ar    1  UNL1       -0.0030
     31 C          -5.0942  -15.7478   23.9906 C.3     1  UNL1        0.0440
     32 C          -6.1246  -15.6128   25.0723 C.ar    1  UNL1       -0.0208
     33 C          -7.5358  -15.2443   24.7222 C.ar    1  UNL1       -0.0042
     34 C          -8.5661  -15.1093   25.8039 C.ar    1  UNL1       -0.0003
     35 C          -8.1851  -15.3428   27.2358 C.ar    1  UNL1       -0.0000
     36 C          -6.7739  -15.7112   27.5860 C.ar    1  UNL1       -0.0003
     37 C          -5.7436  -15.8462   26.5043 C.ar    1  UNL1       -0.0042
@<TRIPOS>BOND
     1    15    16    2
     2    16    17   am
     3    17    14    1
     4     1    14    1
     5     1    31    1
     6    31    32    1
     7    32    33   ar
     8    33    34   ar
     9    34    35   ar
    10    35    36   ar
    11    36    37   ar
    12     1     2    1
    13     2     3    1
    14     3     4    1
    15     4     5    1
    16     5     6    1
    17     5    10    1
    18    10    11    1
    19    10    12    1
    20    10    13    1
    21     5     7    1
    22     7     8    1
    23    16    19    1
    24    19    24    1
    25    24    25   ar
    26    25    26   ar
    27    26    27   ar
    28    27    28    1
    29    27    29   ar
    30    29    30   ar
    31    19    20    1
    32    20    21    1
    33    21    22    1
    34    22    23    1
    35    37    32   ar
    36     8     2    1
    37    23    19    1
    38    30    24   ar
    39    17    18    1
    40     6     9    1
@<TRIPOS>MOLECULE
*****
 37 40 0 0 0
SMALL
GASTEIGER

@<TRIPOS>ATOM
      1 C          -6.2675  -18.9722   21.1699 C.3     1  UNL1        0.0815
      2 N          -4.8220  -18.5773   21.1022 N.3     1  UNL1       -0.2719
      3 C          -4.1443  -18.0016   22.3102 C.3     1  UNL1        0.0748
      4 C          -2.6988  -17.6068   22.2424 C.3     1  UNL1        0.0528
      5 C          -1.9310  -17.7875   20.9667 C.3     1  UNL1        0.1779
      6 O          -0.8571  -17.2043   21.8366 O.3     1  UNL1       -0.3786
      7 C          -2.6086  -18.3632   19.7585 C.3     1  UNL1        0.0528
      8 C          -4.0541  -18.7581   19.8263 C.3     1  UNL1        0.0748
      9 H          -1.2164  -17.0294   22.7204 H       1  UNL1        0.2106
     10 C          -0.7901  -17.7658   19.9929 C.3     1  UNL1        0.4194
     11 F           0.3507  -17.7439   19.0193 F       1  UNL1       -0.1676
     12 F          -0.9327  -19.2455   19.7929 F       1  UNL1       -0.1676
     13 F          -0.6476  -16.2860   20.1930 F       1  UNL1       -0.1676
     14 C          -7.3110  -17.9451   21.4958 C.3     1  UNL1        0.1056
     15 O          -6.8530  -15.2932   22.8215 O.2     1  UNL1       -0.2748
     16 C          -7.5083  -16.4083   23.5813 C.2     1  UNL1        0.2254
     17 N          -7.7373  -17.7342   22.9184 N.am    1  UNL1       -0.3028
     18 H          -8.1674  -18.4661   23.4171 H       1  UNL1        0.1495
     19 C          -7.9345  -16.1974   25.0039 C.3     1  UNL1        0.0875
     20 C          -8.6375  -16.0932   26.3249 C.3     1  UNL1        0.0127
     21 C          -7.6590  -15.5622   27.3301 C.3     1  UNL1        0.0008
     22 C          -6.3512  -15.3382   26.6305 C.3     1  UNL1        0.0008
     23 C          -6.5215  -15.7308   25.1927 C.3     1  UNL1        0.0127
     24 C          -9.2584  -16.7080   24.5177 C.ar    1  UNL1       -0.0146
     25 C          -9.7960  -18.0095   25.0346 C.ar    1  UNL1       -0.0030
     26 C         -11.1199  -18.5202   24.5484 C.ar    1  UNL1        0.0111
     27 C         -11.9063  -17.7294   23.5451 C.ar    1  UNL1        0.0577
     28 CL        -13.2302  -18.2401   23.0589 Cl      1  UNL1       -0.0822
     29 C         -11.3687  -16.4279   23.0282 C.ar    1  UNL1        0.0111
     30 C         -10.0447  -15.9172   23.5145 C.ar    1  UNL1       -0.0030
     31 C          -6.6694  -20.3940   20.9118 C.3     1  UNL1        0.0440
     32 C          -7.5190  -20.7291   19.7218 C.ar    1  UNL1       -0.0208
     33 C          -8.6662  -19.8392   19.3449 C.ar    1  UNL1       -0.0042
     34 C          -9.5157  -20.1743   18.1549 C.ar    1  UNL1       -0.0003
     35 C          -9.2180  -21.3992   17.3419 C.ar    1  UNL1       -0.0000
     36 C          -8.0708  -22.2890   17.7188 C.ar    1  UNL1       -0.0003
     37 C          -7.2213  -21.9539   18.9087 C.ar    1  UNL1       -0.0042
@<TRIPOS>BOND
     1    15    16    2
     2    16    17   am
     3    17    14    1
     4     1    14    1
     5     1    31    1
     6    31    32    1
     7    32    33   ar
     8    33    34   ar
     9    34    35   ar
    10    35    36   ar
    11    36    37   ar
    12     1     2    1
    13     2     3    1
    14     3     4    1
    15     4     5    1
    16     5     6    1
    17     5    10    1
    18    10    11    1
    19    10    12    1
    20    10    13    1
    21     5     7    1
    22     7     8    1
    23    16    19    1
    24    19    24    1
    25    24    25   ar
    26    25    26   ar
    27    26    27   ar
    28    27    28    1
    29    27    29   ar
    30    29    30   ar
    31    19    20    1
    32    20    21    1
    33    21    22    1
    34    22    23    1
    35    37    32   ar
    36     8     2    1
    37    23    19    1
    38    30    24   ar
    39    17    18    1
    40     6     9    1
@<TRIPOS>MOLECULE
*****
 37 40 0 0 0
SMALL
GASTEIGER

@<TRIPOS>ATOM
      1 C          -6.0272  -18.0993   22.1270 C.3     1  UNL1        0.0815
      2 N          -6.1847  -17.1977   23.3154 N.3     1  UNL1       -0.2719
      3 C          -5.0445  -16.3264   23.7521 C.3     1  UNL1        0.0748
      4 C          -5.2019  -15.4248   24.9406 C.3     1  UNL1        0.0528
      5 C          -6.4996  -15.3946   25.6923 C.3     1  UNL1        0.1779
      6 O          -5.7154  -14.3918   26.4858 O.3     1  UNL1       -0.3786
      7 C          -7.6398  -16.2660   25.2557 C.3     1  UNL1        0.0528
      8 C          -7.4824  -17.1676   24.0672 C.3     1  UNL1        0.0748
      9 H          -4.8273  -14.3022   26.1061 H       1  UNL1        0.2106
     10 C          -7.5249  -15.0162   26.7197 C.3     1  UNL1        0.4194
     11 F          -8.5502  -14.6377   27.7471 F       1  UNL1       -0.1676
     12 F          -8.5675  -14.9243   25.6453 F       1  UNL1       -0.1676
     13 F          -6.4822  -15.1080   27.7942 F       1  UNL1       -0.1676
     14 C          -7.0907  -18.1393   21.0698 C.3     1  UNL1        0.1056
     15 O          -9.3295  -18.6427   19.1375 O.2     1  UNL1       -0.2748
     16 C          -9.5916  -17.8937   20.4104 C.2     1  UNL1        0.2254
     17 N          -8.4722  -17.6420   21.3766 N.am    1  UNL1       -0.3028
     18 H          -8.6442  -17.1504   22.2120 H       1  UNL1        0.1495
     19 C         -10.9732  -17.3965   20.7171 C.3     1  UNL1        0.0875
     20 C         -12.3287  -17.0821   21.2772 C.3     1  UNL1        0.0127
     21 C         -13.0021  -16.1169   20.3471 C.3     1  UNL1        0.0008
     22 C         -12.0627  -15.8347   19.2122 C.3     1  UNL1        0.0008
     23 C         -10.8087  -16.6256   19.4409 C.3     1  UNL1        0.0127
     24 C         -10.8488  -18.2714   21.9291 C.ar    1  UNL1       -0.0146
     25 C         -10.6427  -19.7486   21.7699 C.ar    1  UNL1       -0.0030
     26 C         -10.5183  -20.6235   22.9819 C.ar    1  UNL1        0.0111
     27 C         -10.6000  -20.0211   24.3533 C.ar    1  UNL1        0.0577
     28 CL        -10.4756  -20.8960   25.5654 Cl      1  UNL1       -0.0822
     29 C         -10.8062  -18.5439   24.5126 C.ar    1  UNL1        0.0111
     30 C         -10.9306  -17.6690   23.3004 C.ar    1  UNL1       -0.0030
     31 C          -4.8064  -18.9608   21.9957 C.3     1  UNL1        0.0440
     32 C          -3.6615  -18.5132   21.1360 C.ar    1  UNL1       -0.0208
     33 C          -3.5961  -18.9312   19.6969 C.ar    1  UNL1       -0.0042
     34 C          -2.4512  -18.4836   18.8373 C.ar    1  UNL1       -0.0003
     35 C          -1.3718  -17.6181   19.4168 C.ar    1  UNL1       -0.0000
     36 C          -1.4372  -17.2002   20.8559 C.ar    1  UNL1       -0.0003
     37 C          -2.5821  -17.6478   21.7155 C.ar    1  UNL1       -0.0042
@<TRIPOS>BOND
     1    15    16    2
     2    16    17   am
     3    17    14    1
     4     1    14    1
     5     1    31    1
     6    31    32    1
     7    32    33   ar
     8    33    34   ar
     9    34    35   ar
    10    35    36   ar
    11    36    37   ar
    12     1     2    1
    13     2     3    1
    14     3     4    1
    15     4     5    1
    16     5     6    1
    17     5    10    1
    18    10    11    1
    19    10    12    1
    20    10    13    1
    21     5     7    1
    22     7     8    1
    23    16    19    1
    24    19    24    1
    25    24    25   ar
    26    25    26   ar
    27    26    27   ar
    28    27    28    1
    29    27    29   ar
    30    29    30   ar
    31    19    20    1
    32    20    21    1
    33    21    22    1
    34    22    23    1
    35    37    32   ar
    36     8     2    1
    37    23    19    1
    38    30    24   ar
    39    17    18    1
    40     6     9    1
@<TRIPOS>MOLECULE
*****
 37 40 0 0 0
SMALL
GASTEIGER

@<TRIPOS>ATOM
      1 C          -5.9206  -19.3076   21.0641 C.3     1  UNL1        0.0815
      2 N          -5.5690  -18.4442   22.2391 N.3     1  UNL1       -0.2719
      3 C          -4.2957  -18.6871   22.9940 C.3     1  UNL1        0.0748
      4 C          -3.9440  -17.8237   24.1691 C.3     1  UNL1        0.0528
      5 C          -4.8656  -16.7173   24.5893 C.3     1  UNL1        0.1779
      6 O          -3.7816  -16.5566   25.6137 O.3     1  UNL1       -0.3786
      7 C          -6.1389  -16.4743   23.8344 C.3     1  UNL1        0.0528
      8 C          -6.4906  -17.3377   22.6593 C.3     1  UNL1        0.0748
      9 H          -3.0940  -17.2242   25.4642 H       1  UNL1        0.2106
     10 C          -5.4107  -15.5550   25.3653 C.3     1  UNL1        0.4194
     11 F          -5.9558  -14.3928   26.1412 F       1  UNL1       -0.1676
     12 F          -5.2562  -16.3328   26.6385 F       1  UNL1       -0.1676
     13 F          -5.5651  -14.7773   24.0919 F       1  UNL1       -0.1676
     14 C          -7.3576  -19.5043   20.6813 C.3     1  UNL1        0.1056
     15 O         -10.2098  -20.0384   21.4424 O.2     1  UNL1       -0.2748
     16 C          -9.7540  -18.6336   21.1804 C.2     1  UNL1        0.2254
     17 N          -8.3279  -18.3665   20.7999 N.am    1  UNL1       -0.3028
     18 H          -8.0286  -17.4444   20.6280 H       1  UNL1        0.1495
     19 C         -10.7243  -17.4958   21.2991 C.3     1  UNL1        0.0875
     20 C         -11.5949  -16.3472   21.7149 C.3     1  UNL1        0.0127
     21 C         -12.4066  -15.9267   20.5256 C.3     1  UNL1        0.0008
     22 C         -12.0376  -16.8153   19.3748 C.3     1  UNL1        0.0008
     23 C         -10.9978  -17.7850   19.8529 C.3     1  UNL1        0.0127
     24 C         -10.2478  -17.4443   22.7205 C.ar    1  UNL1       -0.0146
     25 C          -9.7375  -16.1558   23.2943 C.ar    1  UNL1       -0.0030
     26 C          -9.2610  -16.1044   24.7156 C.ar    1  UNL1        0.0111
     27 C          -9.2950  -17.3415   25.5633 C.ar    1  UNL1        0.0577
     28 CL         -8.8186  -17.2901   26.9847 Cl      1  UNL1       -0.0822
     29 C          -9.8054  -18.6301   24.9895 C.ar    1  UNL1        0.0111
     30 C         -10.2818  -18.6814   23.5680 C.ar    1  UNL1       -0.0030
     31 C          -4.8354  -19.9743   20.2718 C.3     1  UNL1        0.0440
     32 C          -3.5790  -19.2243   19.9416 C.ar    1  UNL1       -0.0208
     33 C          -3.6100  -18.1184   18.9288 C.ar    1  UNL1       -0.0042
     34 C          -2.3537  -17.3684   18.5986 C.ar    1  UNL1       -0.0003
     35 C          -1.0663  -17.7244   19.2812 C.ar    1  UNL1       -0.0000
     36 C          -1.0353  -18.8304   20.2940 C.ar    1  UNL1       -0.0003
     37 C          -2.2917  -19.5804   20.6242 C.ar    1  UNL1       -0.0042
@<TRIPOS>BOND
     1    15    16    2
     2    16    17   am
     3    17    14    1
     4     1    14    1
     5     1    31    1
     6    31    32    1
     7    32    33   ar
     8    33    34   ar
     9    34    35   ar
    10    35    36   ar
    11    36    37   ar
    12     1     2    1
    13     2     3    1
    14     3     4    1
    15     4     5    1
    16     5     6    1
    17     5    10    1
    18    10    11    1
    19    10    12    1
    20    10    13    1
    21     5     7    1
    22     7     8    1
    23    16    19    1
    24    19    24    1
    25    24    25   ar
    26    25    26   ar
    27    26    27   ar
    28    27    28    1
    29    27    29   ar
    30    29    30   ar
    31    19    20    1
    32    20    21    1
    33    21    22    1
    34    22    23    1
    35    37    32   ar
    36     8     2    1
    37    23    19    1
    38    30    24   ar
    39    17    18    1
    40     6     9    1
@<TRIPOS>MOLECULE
*****
 37 40 0 0 0
SMALL
GASTEIGER

@<TRIPOS>ATOM
      1 C           4.2633    0.0964   25.2115 C.3     1  UNL1        0.0815
      2 N           3.3720    0.0351   26.4165 N.3     1  UNL1       -0.2719
      3 C           3.7847   -0.7675   27.6145 C.3     1  UNL1        0.0748
      4 C           2.8935   -0.8288   28.8195 C.3     1  UNL1        0.0528
      5 C           1.5895   -0.0875   28.8264 C.3     1  UNL1        0.1779
      6 O           1.5439   -0.7074   30.1916 O.3     1  UNL1       -0.3786
      7 C           1.1767    0.7152   27.6282 C.3     1  UNL1        0.0528
      8 C           2.0680    0.7764   26.4233 C.3     1  UNL1        0.0748
      9 H           2.3463   -1.2333   30.3348 H       1  UNL1        0.2106
     10 C           0.2697    0.4385   29.3074 C.3     1  UNL1        0.4194
     11 F          -1.0501    0.9646   29.7883 F       1  UNL1       -0.1676
     12 F          -0.4105   -0.7932   28.7876 F       1  UNL1       -0.1676
     13 F           0.9500    1.6703   29.8271 F       1  UNL1       -0.1676
     14 C           3.6853    0.4260   23.8671 C.3     1  UNL1        0.1056
     15 O           5.1165    0.2076   21.2397 O.2     1  UNL1       -0.2748
     16 C           4.0499   -0.7845   21.5974 C.2     1  UNL1        0.2254
     17 N           3.3342   -0.6753   22.9111 N.am    1  UNL1       -0.3028
     18 H           2.6342   -1.3264   23.1460 H       1  UNL1        0.1495
     19 C           3.6989   -1.8858   20.6414 C.3     1  UNL1        0.0875
     20 C           3.1689   -2.7680   19.5501 C.3     1  UNL1        0.0127
     21 C           3.7710   -4.1310   19.7225 C.3     1  UNL1        0.0008
     22 C           4.6732   -4.0912   20.9203 C.3     1  UNL1        0.0008
     23 C           4.6286   -2.7035   21.4882 C.3     1  UNL1        0.0127
     24 C           2.8426   -0.8378   19.9945 C.ar    1  UNL1       -0.0146
     25 C           1.4435   -0.6059   20.4831 C.ar    1  UNL1       -0.0030
     26 C           0.5872    0.4421   19.8362 C.ar    1  UNL1        0.0111
     27 C           1.1300    1.2582   18.7006 C.ar    1  UNL1        0.0577
     28 CL          0.2737    2.3061   18.0537 Cl      1  UNL1       -0.0822
     29 C           2.5291    1.0262   18.2120 C.ar    1  UNL1        0.0111
     30 C           3.3854   -0.0218   18.8589 C.ar    1  UNL1       -0.0030
     31 C           5.7324   -0.1720   25.3509 C.3     1  UNL1        0.0440
     32 C           6.3409   -1.3748   24.6929 C.ar    1  UNL1       -0.0208
     33 C           7.3732   -1.2003   23.6187 C.ar    1  UNL1       -0.0042
     34 C           7.9816   -2.4032   22.9607 C.ar    1  UNL1       -0.0003
     35 C           7.5578   -3.7805   23.3770 C.ar    1  UNL1       -0.0000
     36 C           6.5255   -3.9550   24.4512 C.ar    1  UNL1       -0.0003
     37 C           5.9171   -2.7522   25.1091 C.ar    1  UNL1       -0.0042
@<TRIPOS>BOND
     1    15    16    2
     2    16    17   am
     3    17    14    1
     4     1    14    1
     5     1    31    1
     6    31    32    1
     7    32    33   ar
     8    33    34   ar
     9    34    35   ar
    10    35    36   ar
    11    36    37   ar
    12     1     2    1
    13     2     3    1
    14     3     4    1
    15     4     5    1
    16     5     6    1
    17     5    10    1
    18    10    11    1
    19    10    12    1
    20    10    13    1
    21     5     7    1
    22     7     8    1
    23    16    19    1
    24    19    24    1
    25    24    25   ar
    26    25    26   ar
    27    26    27   ar
    28    27    28    1
    29    27    29   ar
    30    29    30   ar
    31    19    20    1
    32    20    21    1
    33    21    22    1
    34    22    23    1
    35    37    32   ar
    36     8     2    1
    37    23    19    1
    38    30    24   ar
    39    17    18    1
    40     6     9    1
