@<TRIPOS>MOLECULE
*****
 23 26 0 0 0
SMALL
GASTEIGER

@<TRIPOS>ATOM
      1 O          -5.7730  -15.9364   24.4267 O.2     1  UNL1       -0.2666
      2 C          -6.2863  -16.9320   23.4291 C.2     1  UNL1        0.2834
      3 C          -7.7368  -16.9312   23.0469 C.ar    1  UNL1        0.1985
      4 N          -8.8893  -16.0760   23.4833 N.ar    1  UNL1       -0.2227
      5 C         -10.1149  -16.5430   22.7554 C.ar    1  UNL1        0.0988
      6 C         -11.5395  -16.0745   22.7851 C.ar    1  UNL1        0.0206
      7 C         -12.5691  -16.7498   21.9285 C.ar    1  UNL1        0.0016
      8 C         -12.1740  -17.8937   21.0423 C.ar    1  UNL1        0.0054
      9 C         -10.7494  -18.3622   21.0125 C.ar    1  UNL1        0.0887
     10 C          -9.7198  -17.6869   21.8691 C.ar    1  UNL1        0.0829
     11 N          -8.2501  -17.9267   22.0493 N.ar    1  UNL1       -0.3061
     12 C          -7.3130  -18.9231   21.4338 C.3     1  UNL1        0.1291
     13 C          -5.8624  -18.9239   21.8160 C.3     1  UNL1        0.1183
     14 N          -5.3491  -17.9283   22.8136 N.am    1  UNL1       -0.2716
     15 C         -10.3544  -19.5061   20.1263 C.3     1  UNL1        0.4200
     16 F          -9.9594  -20.6500   19.2400 F       1  UNL1       -0.1658
     17 F          -9.7224  -18.5433   19.1653 F       1  UNL1       -0.1658
     18 F         -10.9865  -20.4689   21.0872 F       1  UNL1       -0.1658
     19 C          -3.8986  -17.9291   23.1958 C.3     1  UNL1        0.0938
     20 C          -2.8606  -17.5017   22.2008 C.3     1  UNL1        0.0199
     21 C          -2.1721  -16.2093   21.8753 C.3     1  UNL1        0.0017
     22 C          -1.3928  -16.8971   20.7938 C.3     1  UNL1        0.0001
     23 C          -2.0812  -18.1893   21.1194 C.3     1  UNL1        0.0017
@<TRIPOS>BOND
     1     1     2    2
     2     2     3    1
     3     3     4   ar
     4     4     5   ar
     5     5     6   ar
     6     6     7   ar
     7     7     8   ar
     8     8     9   ar
     9     9    15    1
    10    15    16    1
    11    15    17    1
    12    15    18    1
    13     9    10   ar
    14    10    11   ar
    15    11    12    1
    16    12    13    1
    17    13    14    1
    18    14    19    1
    19    19    20    1
    20    20    21    1
    21    21    22    1
    22    22    23    1
    23    14     2   am
    24    23    20    1
    25    11     3   ar
    26    10     5   ar
@<TRIPOS>MOLECULE
*****
 23 26 0 0 0
SMALL
GASTEIGER

@<TRIPOS>ATOM
      1 O          -4.2393  -18.0824   23.2664 O.2     1  UNL1       -0.2666
      2 C          -5.2783  -18.5401   22.2861 C.2     1  UNL1        0.2834
      3 C          -6.7017  -18.0922   22.4380 C.ar    1  UNL1        0.1985
      4 N          -7.3735  -17.2074   23.4460 N.ar    1  UNL1       -0.2227
      5 C          -8.8276  -17.1184   23.0887 C.ar    1  UNL1        0.0988
      6 C          -9.9742  -16.3890   23.7235 C.ar    1  UNL1        0.0206
      7 C         -11.3479  -16.4893   23.1295 C.ar    1  UNL1        0.0016
      8 C         -11.5749  -17.3191   21.9007 C.ar    1  UNL1        0.0054
      9 C         -10.4282  -18.0485   21.2659 C.ar    1  UNL1        0.0887
     10 C          -9.0546  -17.9482   21.8599 C.ar    1  UNL1        0.0829
     11 N          -7.7407  -18.5500   21.4578 N.ar    1  UNL1       -0.3061
     12 C          -7.3562  -19.4557   20.3256 C.3     1  UNL1        0.1291
     13 C          -5.9327  -19.9037   20.1737 C.3     1  UNL1        0.1183
     14 N          -4.8938  -19.4459   21.1540 N.am    1  UNL1       -0.2716
     15 C         -10.6552  -18.8783   20.0371 C.3     1  UNL1        0.4200
     16 F         -10.8822  -19.7080   18.8082 F       1  UNL1       -0.1658
     17 F         -10.7025  -17.6317   19.2040 F       1  UNL1       -0.1658
     18 F         -10.6080  -20.1248   20.8701 F       1  UNL1       -0.1658
     19 C          -3.4703  -19.8938   21.0021 C.3     1  UNL1        0.0938
     20 C          -2.4611  -18.9833   20.3677 C.3     1  UNL1        0.0199
     21 C          -2.2230  -18.4670   18.9796 C.3     1  UNL1        0.0017
     22 C          -1.0339  -17.6956   19.4705 C.3     1  UNL1        0.0001
     23 C          -1.2720  -18.2119   20.8585 C.3     1  UNL1        0.0017
@<TRIPOS>BOND
     1     1     2    2
     2     2     3    1
     3     3     4   ar
     4     4     5   ar
     5     5     6   ar
     6     6     7   ar
     7     7     8   ar
     8     8     9   ar
     9     9    15    1
    10    15    16    1
    11    15    17    1
    12    15    18    1
    13     9    10   ar
    14    10    11   ar
    15    11    12    1
    16    12    13    1
    17    13    14    1
    18    14    19    1
    19    19    20    1
    20    20    21    1
    21    21    22    1
    22    22    23    1
    23    14     2   am
    24    23    20    1
    25    11     3   ar
    26    10     5   ar
@<TRIPOS>MOLECULE
*****
 23 26 0 0 0
SMALL
GASTEIGER

@<TRIPOS>ATOM
      1 O          -7.6156  -15.1247   24.5600 O.2     1  UNL1       -0.2666
      2 C          -7.6068  -16.3352   23.6743 C.2     1  UNL1        0.2834
      3 C          -6.3038  -16.9545   23.2633 C.ar    1  UNL1        0.1985
      4 N          -4.8804  -16.5958   23.5721 N.ar    1  UNL1       -0.2227
      5 C          -3.9920  -17.5846   22.8772 C.ar    1  UNL1        0.0988
      6 C          -2.4998  -17.7272   22.8213 C.ar    1  UNL1        0.0206
      7 C          -1.8820  -18.8396   22.0272 C.ar    1  UNL1        0.0016
      8 C          -2.7562  -19.8094   21.2889 C.ar    1  UNL1        0.0054
      9 C          -4.2484  -19.6668   21.3448 C.ar    1  UNL1        0.0887
     10 C          -4.8662  -18.5544   22.1389 C.ar    1  UNL1        0.0829
     11 N          -6.2950  -18.1650   22.3776 N.ar    1  UNL1       -0.3061
     12 C          -7.5892  -18.7563   21.9028 C.3     1  UNL1        0.1291
     13 C          -8.8922  -18.1370   22.3137 C.3     1  UNL1        0.1183
     14 N          -8.9009  -16.9265   23.1995 N.am    1  UNL1       -0.2716
     15 C          -5.1226  -20.6367   20.6065 C.3     1  UNL1        0.4200
     16 F          -5.9969  -21.6065   19.8682 F       1  UNL1       -0.1658
     17 F          -4.4720  -20.2397   19.3145 F       1  UNL1       -0.1658
     18 F          -5.7733  -21.0336   21.8984 F       1  UNL1       -0.1658
     19 C         -10.2039  -16.3073   23.6104 C.3     1  UNL1        0.0938
     20 C         -11.4986  -16.9627   23.2306 C.3     1  UNL1        0.0199
     21 C         -12.5744  -16.6816   22.2238 C.3     1  UNL1        0.0017
     22 C         -13.3295  -17.8895   22.6935 C.3     1  UNL1        0.0001
     23 C         -12.2537  -18.1706   23.7002 C.3     1  UNL1        0.0017
@<TRIPOS>BOND
     1     1     2    2
     2     2     3    1
     3     3     4   ar
     4     4     5   ar
     5     5     6   ar
     6     6     7   ar
     7     7     8   ar
     8     8     9   ar
     9     9    15    1
    10    15    16    1
    11    15    17    1
    12    15    18    1
    13     9    10   ar
    14    10    11   ar
    15    11    12    1
    16    12    13    1
    17    13    14    1
    18    14    19    1
    19    19    20    1
    20    20    21    1
    21    21    22    1
    22    22    23    1
    23    14     2   am
    24    23    20    1
    25    11     3   ar
    26    10     5   ar
@<TRIPOS>MOLECULE
*****
 23 26 0 0 0
SMALL
GASTEIGER

@<TRIPOS>ATOM
      1 O          -4.4843  -20.4979   19.7098 O.2     1  UNL1       -0.2666
      2 C          -5.0878  -19.6017   20.7502 C.2     1  UNL1        0.2834
      3 C          -6.5658  -19.3457   20.7536 C.ar    1  UNL1        0.1985
      4 N          -7.6710  -19.8335   19.8645 N.ar    1  UNL1       -0.2227
      5 C          -8.9576  -19.2389   20.3554 C.ar    1  UNL1        0.0988
      6 C         -10.3714  -19.3658   19.8706 C.ar    1  UNL1        0.0206
      7 C         -11.4752  -18.6372   20.5784 C.ar    1  UNL1        0.0016
      8 C         -11.1651  -17.7818   21.7709 C.ar    1  UNL1        0.0054
      9 C          -9.7513  -17.6549   22.2557 C.ar    1  UNL1        0.0887
     10 C          -8.6476  -18.3835   21.5480 C.ar    1  UNL1        0.0829
     11 N          -7.1694  -18.4495   21.7940 N.ar    1  UNL1       -0.3061
     12 C          -6.2950  -17.8093   22.8311 C.3     1  UNL1        0.1291
     13 C          -4.8170  -18.0654   22.8277 C.3     1  UNL1        0.1183
     14 N          -4.2134  -18.9616   21.7873 N.am    1  UNL1       -0.2716
     15 C          -9.4413  -16.7995   23.4483 C.3     1  UNL1        0.4200
     16 F          -9.1313  -15.9441   24.6408 F       1  UNL1       -0.1658
     17 F          -8.8812  -15.7419   22.5440 F       1  UNL1       -0.1658
     18 F         -10.0014  -17.8572   24.3525 F       1  UNL1       -0.1658
     19 C          -2.7354  -19.2176   21.7839 C.3     1  UNL1        0.0938
     20 C          -1.8117  -18.2702   21.0774 C.3     1  UNL1        0.0199
     21 C          -1.5985  -16.7855   21.0953 C.3     1  UNL1        0.0017
     22 C          -0.5054  -16.9303   20.0783 C.3     1  UNL1        0.0001
     23 C          -0.7187  -18.4149   20.0605 C.3     1  UNL1        0.0017
@<TRIPOS>BOND
     1     1     2    2
     2     2     3    1
     3     3     4   ar
     4     4     5   ar
     5     5     6   ar
     6     6     7   ar
     7     7     8   ar
     8     8     9   ar
     9     9    15    1
    10    15    16    1
    11    15    17    1
    12    15    18    1
    13     9    10   ar
    14    10    11   ar
    15    11    12    1
    16    12    13    1
    17    13    14    1
    18    14    19    1
    19    19    20    1
    20    20    21    1
    21    21    22    1
    22    22    23    1
    23    14     2   am
    24    23    20    1
    25    11     3   ar
    26    10     5   ar
@<TRIPOS>MOLECULE
*****
 23 26 0 0 0
SMALL
GASTEIGER

@<TRIPOS>ATOM
      1 O          -9.4990  -17.6267   22.9284 O.2     1  UNL1       -0.2666
      2 C          -8.6013  -18.3277   21.9523 C.2     1  UNL1        0.2834
      3 C          -7.1122  -18.2574   22.1187 C.ar    1  UNL1        0.1985
      4 N          -6.2472  -17.5786   23.1389 N.ar    1  UNL1       -0.2227
      5 C          -4.8149  -17.8601   22.7934 C.ar    1  UNL1        0.0988
      6 C          -3.5265  -17.4501   23.4429 C.ar    1  UNL1        0.0206
      7 C          -2.2179  -17.8929   22.8585 C.ar    1  UNL1        0.0016
      8 C          -2.1978  -18.7457   21.6247 C.ar    1  UNL1        0.0054
      9 C          -3.4862  -19.1557   20.9752 C.ar    1  UNL1        0.0887
     10 C          -4.7947  -18.7129   21.5596 C.ar    1  UNL1        0.0829
     11 N          -6.2145  -18.9584   21.1426 N.ar    1  UNL1       -0.3061
     12 C          -6.8060  -19.7298   20.0001 C.3     1  UNL1        0.1291
     13 C          -8.2951  -19.8001   19.8338 C.3     1  UNL1        0.1183
     14 N          -9.1927  -19.0991   20.8098 N.am    1  UNL1       -0.2716
     15 C          -3.4660  -20.0085   19.7414 C.3     1  UNL1        0.4200
     16 F          -3.4458  -20.8612   18.5075 F       1  UNL1       -0.1658
     17 F          -2.9483  -18.8464   18.9467 F       1  UNL1       -0.1658
     18 F          -3.9837  -21.1705   20.5361 F       1  UNL1       -0.1658
     19 C         -10.6819  -19.1694   20.6435 C.3     1  UNL1        0.0938
     20 C         -11.4937  -17.9084   20.6153 C.3     1  UNL1        0.0199
     21 C         -11.4233  -16.6183   19.8533 C.3     1  UNL1        0.0017
     22 C         -12.6419  -16.1252   20.5755 C.3     1  UNL1        0.0001
     23 C         -12.7124  -17.4152   21.3375 C.3     1  UNL1        0.0017
@<TRIPOS>BOND
     1     1     2    2
     2     2     3    1
     3     3     4   ar
     4     4     5   ar
     5     5     6   ar
     6     6     7   ar
     7     7     8   ar
     8     8     9   ar
     9     9    15    1
    10    15    16    1
    11    15    17    1
    12    15    18    1
    13     9    10   ar
    14    10    11   ar
    15    11    12    1
    16    12    13    1
    17    13    14    1
    18    14    19    1
    19    19    20    1
    20    20    21    1
    21    21    22    1
    22    22    23    1
    23    14     2   am
    24    23    20    1
    25    11     3   ar
    26    10     5   ar
@<TRIPOS>MOLECULE
*****
 23 26 0 0 0
SMALL
GASTEIGER

@<TRIPOS>ATOM
      1 O         -14.8266   -9.7133   18.5475 O.2     1  UNL1       -0.2666
      2 C         -15.0654   -8.2649   18.8558 C.2     1  UNL1        0.2834
      3 C         -13.9235   -7.2928   18.8222 C.ar    1  UNL1        0.1985
      4 N         -12.4646   -7.4680   18.5209 N.ar    1  UNL1       -0.2227
      5 C         -11.8018   -6.1279   18.6429 C.ar    1  UNL1        0.0988
      6 C         -10.3784   -5.6918   18.4596 C.ar    1  UNL1        0.0206
      7 C         -10.0043   -4.2522   18.6531 C.ar    1  UNL1        0.0016
      8 C         -11.0536   -3.2487   19.0299 C.ar    1  UNL1        0.0054
      9 C         -12.4770   -3.6848   19.2132 C.ar    1  UNL1        0.0887
     10 C         -12.8511   -5.1244   19.0197 C.ar    1  UNL1        0.0829
     11 N         -14.1624   -5.8443   19.1305 N.ar    1  UNL1       -0.3061
     12 C         -15.5431   -5.3681   19.4723 C.3     1  UNL1        0.1291
     13 C         -16.6849   -6.3403   19.5058 C.3     1  UNL1        0.1183
     14 N         -16.4461   -7.7887   19.1976 N.am    1  UNL1       -0.2716
     15 C         -13.5263   -2.6813   19.5900 C.3     1  UNL1        0.4200
     16 F         -14.5756   -1.6778   19.9668 F       1  UNL1       -0.1658
     17 F         -13.3580   -3.0478   21.0347 F       1  UNL1       -0.1658
     18 F         -13.6945   -2.3148   18.1452 F       1  UNL1       -0.1658
     19 C         -17.5879   -8.7608   19.2311 C.3     1  UNL1        0.0938
     20 C         -18.3233   -9.0979   17.9679 C.3     1  UNL1        0.0199
     21 C         -19.1635  -10.2513   17.5053 C.3     1  UNL1        0.0017
     22 C         -19.3632   -9.5747   16.1815 C.3     1  UNL1        0.0001
     23 C         -18.5230   -8.4215   16.6442 C.3     1  UNL1        0.0017
@<TRIPOS>BOND
     1     1     2    2
     2     2     3    1
     3     3     4   ar
     4     4     5   ar
     5     5     6   ar
     6     6     7   ar
     7     7     8   ar
     8     8     9   ar
     9     9    15    1
    10    15    16    1
    11    15    17    1
    12    15    18    1
    13     9    10   ar
    14    10    11   ar
    15    11    12    1
    16    12    13    1
    17    13    14    1
    18    14    19    1
    19    19    20    1
    20    20    21    1
    21    21    22    1
    22    22    23    1
    23    14     2   am
    24    23    20    1
    25    11     3   ar
    26    10     5   ar
@<TRIPOS>MOLECULE
*****
 23 26 0 0 0
SMALL
GASTEIGER

@<TRIPOS>ATOM
      1 O         -15.8075   -9.0457   17.9810 O.2     1  UNL1       -0.2666
      2 C         -15.5632   -7.5798   18.1850 C.2     1  UNL1        0.2834
      3 C         -14.1636   -7.0703   18.3626 C.ar    1  UNL1        0.1985
      4 N         -12.8362   -7.7686   18.3827 N.ar    1  UNL1       -0.2227
      5 C         -11.7716   -6.7343   18.5991 C.ar    1  UNL1        0.0988
      6 C         -10.2791   -6.8376   18.7073 C.ar    1  UNL1        0.0206
      7 C          -9.4560   -5.6034   18.9291 C.ar    1  UNL1        0.0016
      8 C         -10.1255   -4.2659   19.0428 C.ar    1  UNL1        0.0054
      9 C         -11.6179   -4.1626   18.9346 C.ar    1  UNL1        0.0887
     10 C         -12.4410   -5.3968   18.7127 C.ar    1  UNL1        0.0829
     11 N         -13.9194   -5.6045   18.5666 N.ar    1  UNL1       -0.3061
     12 C         -15.0747   -4.6482   18.5929 C.3     1  UNL1        0.1291
     13 C         -16.4743   -5.1577   18.4152 C.3     1  UNL1        0.1183
     14 N         -16.7185   -6.6235   18.2113 N.am    1  UNL1       -0.2716
     15 C         -12.2874   -2.8251   19.0483 C.3     1  UNL1        0.4200
     16 F         -12.9568   -1.4875   19.1619 F       1  UNL1       -0.1658
     17 F         -12.7401   -3.1696   20.4362 F       1  UNL1       -0.1658
     18 F         -11.8346   -2.4805   17.6603 F       1  UNL1       -0.1658
     19 C         -18.1181   -7.1331   18.0336 C.3     1  UNL1        0.0938
     20 C         -18.9181   -7.5601   19.2284 C.3     1  UNL1        0.0199
     21 C         -18.8298   -8.6847   20.2172 C.3     1  UNL1        0.0017
     22 C         -20.0495   -8.1641   20.9181 C.3     1  UNL1        0.0001
     23 C         -20.1378   -7.0396   19.9294 C.3     1  UNL1        0.0017
@<TRIPOS>BOND
     1     1     2    2
     2     2     3    1
     3     3     4   ar
     4     4     5   ar
     5     5     6   ar
     6     6     7   ar
     7     7     8   ar
     8     8     9   ar
     9     9    15    1
    10    15    16    1
    11    15    17    1
    12    15    18    1
    13     9    10   ar
    14    10    11   ar
    15    11    12    1
    16    12    13    1
    17    13    14    1
    18    14    19    1
    19    19    20    1
    20    20    21    1
    21    21    22    1
    22    22    23    1
    23    14     2   am
    24    23    20    1
    25    11     3   ar
    26    10     5   ar
@<TRIPOS>MOLECULE
*****
 23 26 0 0 0
SMALL
GASTEIGER

@<TRIPOS>ATOM
      1 O         -14.0122   -4.1085   18.1286 O.2     1  UNL1       -0.2666
      2 C         -14.2693   -5.5863   18.1370 C.2     1  UNL1        0.2834
      3 C         -15.6134   -6.1114   18.5467 C.ar    1  UNL1        0.1985
      4 N         -16.8687   -5.4200   18.9894 N.ar    1  UNL1       -0.2227
      5 C         -17.9017   -6.4704   19.2714 C.ar    1  UNL1        0.0988
      6 C         -19.3244   -6.3793   19.7379 C.ar    1  UNL1        0.0206
      7 C         -20.1301   -7.6289   19.9361 C.ar    1  UNL1        0.0016
      8 C         -19.5132   -8.9696   19.6677 C.ar    1  UNL1        0.0054
      9 C         -18.0905   -9.0606   19.2012 C.ar    1  UNL1        0.0887
     10 C         -17.2848   -7.8110   19.0030 C.ar    1  UNL1        0.0829
     11 N         -15.8705   -7.5891   18.5552 N.ar    1  UNL1       -0.3061
     12 C         -14.7836   -8.5418   18.1539 C.3     1  UNL1        0.1291
     13 C         -13.4395   -8.0167   17.7442 C.3     1  UNL1        0.1183
     14 N         -13.1824   -6.5390   17.7358 N.am    1  UNL1       -0.2716
     15 C         -17.4735  -10.4013   18.9328 C.3     1  UNL1        0.4200
     16 F         -16.8566  -11.7419   18.6644 F       1  UNL1       -0.1658
     17 F         -18.2458  -10.5000   17.6507 F       1  UNL1       -0.1658
     18 F         -16.7013  -10.3026   20.2149 F       1  UNL1       -0.1658
     19 C         -11.8383   -6.0139   17.3261 C.3     1  UNL1        0.0938
     20 C         -10.6485   -6.2234   18.2150 C.3     1  UNL1        0.0199
     21 C          -9.8295   -7.4101   18.6288 C.3     1  UNL1        0.0017
     22 C          -8.9657   -6.5198   19.4722 C.3     1  UNL1        0.0001
     23 C          -9.7847   -5.3333   19.0584 C.3     1  UNL1        0.0017
@<TRIPOS>BOND
     1     1     2    2
     2     2     3    1
     3     3     4   ar
     4     4     5   ar
     5     5     6   ar
     6     6     7   ar
     7     7     8   ar
     8     8     9   ar
     9     9    15    1
    10    15    16    1
    11    15    17    1
    12    15    18    1
    13     9    10   ar
    14    10    11   ar
    15    11    12    1
    16    12    13    1
    17    13    14    1
    18    14    19    1
    19    19    20    1
    20    20    21    1
    21    21    22    1
    22    22    23    1
    23    14     2   am
    24    23    20    1
    25    11     3   ar
    26    10     5   ar
@<TRIPOS>MOLECULE
*****
 23 26 0 0 0
SMALL
GASTEIGER

@<TRIPOS>ATOM
      1 O          -6.2254  -14.9617   24.6783 O.2     1  UNL1       -0.2666
      2 C          -6.1879  -16.1747   23.7967 C.2     1  UNL1        0.2834
      3 C          -4.9525  -16.4892   23.0060 C.ar    1  UNL1        0.1985
      4 N          -3.6282  -15.7938   22.8943 N.ar    1  UNL1       -0.2227
      5 C          -2.7721  -16.5770   21.9436 C.ar    1  UNL1        0.0988
      6 C          -1.3712  -16.3686   21.4497 C.ar    1  UNL1        0.0206
      7 C          -0.7656  -17.3396   20.4801 C.ar    1  UNL1        0.0016
      8 C          -1.5608  -18.5190   20.0043 C.ar    1  UNL1        0.0054
      9 C          -2.9618  -18.7275   20.4981 C.ar    1  UNL1        0.0887
     10 C          -3.5674  -17.7565   21.4678 C.ar    1  UNL1        0.0829
     11 N          -4.9149  -17.7022   22.1244 N.ar    1  UNL1       -0.3061
     12 C          -6.1127  -18.6006   22.0334 C.3     1  UNL1        0.1291
     13 C          -7.3480  -18.2861   22.8241 C.3     1  UNL1        0.1183
     14 N          -7.3856  -17.0731   23.7057 N.am    1  UNL1       -0.2716
     15 C          -3.7570  -19.9070   20.0223 C.3     1  UNL1        0.4200
     16 F          -4.5523  -21.0864   19.5465 F       1  UNL1       -0.1658
     17 F          -2.9247  -20.8139   20.8795 F       1  UNL1       -0.1658
     18 F          -4.5893  -19.0000   19.1652 F       1  UNL1       -0.1658
     19 C          -8.6209  -16.7585   24.4963 C.3     1  UNL1        0.0938
     20 C          -9.8110  -17.6685   24.4218 C.3     1  UNL1        0.0199
     21 C         -10.2269  -18.9300   25.1188 C.3     1  UNL1        0.0017
     22 C         -11.4940  -18.9554   24.3165 C.3     1  UNL1        0.0001
     23 C         -11.0782  -17.6939   23.6197 C.3     1  UNL1        0.0017
@<TRIPOS>BOND
     1     1     2    2
     2     2     3    1
     3     3     4   ar
     4     4     5   ar
     5     5     6   ar
     6     6     7   ar
     7     7     8   ar
     8     8     9   ar
     9     9    15    1
    10    15    16    1
    11    15    17    1
    12    15    18    1
    13     9    10   ar
    14    10    11   ar
    15    11    12    1
    16    12    13    1
    17    13    14    1
    18    14    19    1
    19    19    20    1
    20    20    21    1
    21    21    22    1
    22    22    23    1
    23    14     2   am
    24    23    20    1
    25    11     3   ar
    26    10     5   ar
