@<TRIPOS>MOLECULE
*****
 26 28 0 0 0
SMALL
GASTEIGER

@<TRIPOS>ATOM
      1 C           4.1034   -0.9563   17.8839 C.2     1  UNL1        0.2520
      2 O           3.9635   -0.9403   16.3906 O.2     1  UNL1       -0.2698
      3 N           3.0901   -0.2555   18.7397 N.am    1  UNL1       -0.2753
      4 C           3.2300   -0.2715   20.2331 C.3     1  UNL1        0.0981
      5 C           2.2168    0.4292   21.0888 C.3     1  UNL1        0.0442
      6 C           1.0636    1.1459   20.4511 C.2     1  UNL1       -0.0326
      7 C           0.0503    1.8466   21.3069 C.2     1  UNL1        0.0412
      8 C           0.9237    1.1618   18.9578 C.3     1  UNL1        0.0442
      9 C           1.9369    0.4611   18.1021 C.3     1  UNL1        0.0981
     10 C           5.0679   -3.0546   19.0741 C.ar    1  UNL1        0.1430
     11 C           6.2211   -3.7712   19.7117 C.ar    1  UNL1        0.0371
     12 C           7.5629   -3.1061   19.7969 C.ar    1  UNL1        0.0031
     13 C           7.7515   -1.7244   19.2444 C.ar    1  UNL1        0.0003
     14 C           6.5984   -1.0078   18.6068 C.ar    1  UNL1        0.0076
     15 C           5.2566   -1.6729   18.5216 C.ar    1  UNL1        0.0875
     16 C           3.5252   -5.0820   19.5837 C.3     1  UNL1        0.2525
     17 O           3.7262   -3.7197   18.9889 O.3     1  UNL1       -0.4713
     18 C           0.1902    1.8306   22.8003 C.1     1  UNL1       -0.0583
     19 C           0.3301    1.8146   24.2936 C.1     1  UNL1       -0.0405
     20 C           0.4701    1.7986   25.7870 C.ar    1  UNL1        0.1224
     21 C           1.6163    2.5122   26.4406 C.ar    1  UNL1        0.0276
     22 C           1.7562    2.4961   27.9339 C.ar    1  UNL1        0.0034
     23 C           0.7500    1.7666   28.7737 C.ar    1  UNL1        0.0148
     24 C          -0.3962    1.0530   28.1202 C.ar    1  UNL1        0.0600
     25 C          -1.4024    0.3234   28.9600 C.3     1  UNL1        0.0521
     26 N          -0.5361    1.0690   26.6268 N.ar    1  UNL1       -0.2414
@<TRIPOS>BOND
     1    16    17    1
     2    17    10    1
     3    10    11   ar
     4    11    12   ar
     5    12    13   ar
     6    13    14   ar
     7    14    15   ar
     8    15     1    1
     9     1     2    2
    10     1     3   am
    11     3     4    1
    12     4     5    1
    13     5     6    1
    14     6     7    2
    15     7    18    1
    16    18    19    3
    17    19    20    1
    18    20    21   ar
    19    21    22   ar
    20    22    23   ar
    21    23    24   ar
    22    24    25    1
    23    24    26   ar
    24     6     8    1
    25     8     9    1
    26    15    10   ar
    27     9     3    1
    28    26    20   ar
@<TRIPOS>MOLECULE
*****
 26 28 0 0 0
SMALL
GASTEIGER

@<TRIPOS>ATOM
      1 C          -3.3011    5.1123   21.8781 C.2     1  UNL1        0.2520
      2 O          -4.0691    6.2628   21.2982 O.2     1  UNL1       -0.2698
      3 N          -2.3223    4.3589   21.0270 N.am    1  UNL1       -0.2753
      4 C          -1.5542    3.2084   21.6071 C.3     1  UNL1        0.0981
      5 C          -0.5754    2.4550   20.7560 C.3     1  UNL1        0.0442
      6 C          -0.3646    2.8522   19.3249 C.2     1  UNL1       -0.0326
      7 C           0.6142    2.0988   18.4739 C.2     1  UNL1        0.0412
      8 C          -1.1326    4.0027   18.7450 C.3     1  UNL1        0.0442
      9 C          -2.1115    4.7561   19.5961 C.3     1  UNL1        0.0981
     10 C          -4.7270    3.9260   23.6973 C.ar    1  UNL1        0.1430
     11 C          -4.9377    3.5288   25.1283 C.ar    1  UNL1        0.0371
     12 C          -3.9333    3.9208   26.1712 C.ar    1  UNL1        0.0031
     13 C          -2.7182    4.7100   25.7830 C.ar    1  UNL1        0.0003
     14 C          -2.5075    5.1071   24.3520 C.ar    1  UNL1        0.0076
     15 C          -3.5119    4.7151   23.3092 C.ar    1  UNL1        0.0875
     16 C          -6.9767    4.3491   22.4686 C.3     1  UNL1        0.2525
     17 O          -5.7314    3.5339   22.6545 O.3     1  UNL1       -0.4713
     18 C           1.3823    0.9482   19.0539 C.1     1  UNL1       -0.0583
     19 C           2.1503   -0.2023   19.6338 C.1     1  UNL1       -0.0405
     20 C           2.9183   -1.3528   20.2137 C.ar    1  UNL1        0.1224
     21 C           3.3455   -1.3209   21.6513 C.ar    1  UNL1        0.0276
     22 C           4.1135   -2.4714   22.2313 C.ar    1  UNL1        0.0034
     23 C           4.4544   -3.6539   21.3737 C.ar    1  UNL1        0.0148
     24 C           4.0273   -3.6859   19.9362 C.ar    1  UNL1        0.0600
     25 C           4.3683   -4.8684   19.0786 C.3     1  UNL1        0.0521
     26 N           3.2593   -2.5353   19.3561 N.ar    1  UNL1       -0.2414
@<TRIPOS>BOND
     1    16    17    1
     2    17    10    1
     3    10    11   ar
     4    11    12   ar
     5    12    13   ar
     6    13    14   ar
     7    14    15   ar
     8    15     1    1
     9     1     2    2
    10     1     3   am
    11     3     4    1
    12     4     5    1
    13     5     6    1
    14     6     7    2
    15     7    18    1
    16    18    19    3
    17    19    20    1
    18    20    21   ar
    19    21    22   ar
    20    22    23   ar
    21    23    24   ar
    22    24    25    1
    23    24    26   ar
    24     6     8    1
    25     8     9    1
    26    15    10   ar
    27     9     3    1
    28    26    20   ar
@<TRIPOS>MOLECULE
*****
 26 28 0 0 0
SMALL
GASTEIGER

@<TRIPOS>ATOM
      1 C           3.5474   -1.0293   18.1185 C.2     1  UNL1        0.2520
      2 O           3.5199   -0.9031   16.6241 O.2     1  UNL1       -0.2698
      3 N           2.6658   -0.1561   18.9613 N.am    1  UNL1       -0.2753
      4 C           2.6933   -0.2824   20.4558 C.3     1  UNL1        0.0981
      5 C           1.8117    0.5908   21.2986 C.3     1  UNL1        0.0442
      6 C           0.9025    1.5903   20.6469 C.2     1  UNL1       -0.0326
      7 C           0.0209    2.4635   21.4897 C.2     1  UNL1        0.0412
      8 C           0.8750    1.7165   19.1525 C.3     1  UNL1        0.0442
      9 C           1.7566    0.8433   18.3097 C.3     1  UNL1        0.0981
     10 C           5.8525   -1.6351   19.1528 C.ar    1  UNL1        0.1430
     11 C           6.7615   -2.6345   19.8044 C.ar    1  UNL1        0.0371
     12 C           6.2747   -4.0276   20.0735 C.ar    1  UNL1        0.0031
     13 C           4.8788   -4.4212   19.6909 C.ar    1  UNL1        0.0003
     14 C           3.9697   -3.4218   19.0393 C.ar    1  UNL1        0.0076
     15 C           4.4565   -2.0288   18.7702 C.ar    1  UNL1        0.0875
     16 C           6.9722    0.0896   17.5649 C.3     1  UNL1        0.2525
     17 O           6.3393   -0.2421   18.8837 O.3     1  UNL1       -0.4713
     18 C           0.0485    2.3372   22.9842 C.1     1  UNL1       -0.0583
     19 C           0.0760    2.2110   24.4786 C.1     1  UNL1       -0.0405
     20 C           0.1036    2.0848   25.9730 C.ar    1  UNL1        0.1224
     21 C           0.8085    3.1188   26.8001 C.ar    1  UNL1        0.0276
     22 C           0.8360    2.9926   28.2945 C.ar    1  UNL1        0.0034
     23 C           0.1587    1.8325   28.9618 C.ar    1  UNL1        0.0148
     24 C          -0.5462    0.7986   28.1348 C.ar    1  UNL1        0.0600
     25 C          -1.2236   -0.3616   28.8021 C.3     1  UNL1        0.0521
     26 N          -0.5738    0.9247   26.6403 N.ar    1  UNL1       -0.2414
@<TRIPOS>BOND
     1    16    17    1
     2    17    10    1
     3    10    11   ar
     4    11    12   ar
     5    12    13   ar
     6    13    14   ar
     7    14    15   ar
     8    15     1    1
     9     1     2    2
    10     1     3   am
    11     3     4    1
    12     4     5    1
    13     5     6    1
    14     6     7    2
    15     7    18    1
    16    18    19    3
    17    19    20    1
    18    20    21   ar
    19    21    22   ar
    20    22    23   ar
    21    23    24   ar
    22    24    25    1
    23    24    26   ar
    24     6     8    1
    25     8     9    1
    26    15    10   ar
    27     9     3    1
    28    26    20   ar
@<TRIPOS>MOLECULE
*****
 26 28 0 0 0
SMALL
GASTEIGER

@<TRIPOS>ATOM
      1 C          -0.9476    2.7166   26.3759 C.2     1  UNL1        0.2520
      2 O          -1.9339    3.7561   26.8191 O.2     1  UNL1       -0.2698
      3 N          -0.6295    2.5574   24.9187 N.am    1  UNL1       -0.2753
      4 C           0.3569    1.5178   24.4756 C.3     1  UNL1        0.0981
      5 C           0.6750    1.3586   23.0184 C.3     1  UNL1        0.0442
      6 C           0.0067    2.2390   22.0043 C.2     1  UNL1       -0.0326
      7 C           0.3248    2.0799   20.5471 C.2     1  UNL1        0.0412
      8 C          -0.9797    3.2786   22.4474 C.3     1  UNL1        0.0442
      9 C          -1.2978    3.4377   23.9047 C.3     1  UNL1        0.0981
     10 C           1.0837    2.1890   27.9075 C.ar    1  UNL1        0.1430
     11 C           1.7520    1.3086   28.9216 C.ar    1  UNL1        0.0371
     12 C           1.0573    0.0754   29.4180 C.ar    1  UNL1        0.0031
     13 C          -0.3056   -0.2775   28.9005 C.ar    1  UNL1        0.0003
     14 C          -0.9739    0.6029   27.8865 C.ar    1  UNL1        0.0076
     15 C          -0.2792    1.8361   27.3900 C.ar    1  UNL1        0.0875
     16 C           3.0549    3.3021   26.6327 C.3     1  UNL1        0.2525
     17 O           1.7783    3.4223   27.4111 O.3     1  UNL1       -0.4713
     18 C           1.3112    1.0403   20.1039 C.1     1  UNL1       -0.0583
     19 C           2.2975    0.0007   19.6608 C.1     1  UNL1       -0.0405
     20 C           3.2839   -1.0388   19.2176 C.ar    1  UNL1        0.1224
     21 C           4.5089   -0.6328   18.4531 C.ar    1  UNL1        0.0276
     22 C           5.4953   -1.6723   18.0099 C.ar    1  UNL1        0.0034
     23 C           5.2566   -3.1180   18.3313 C.ar    1  UNL1        0.0148
     24 C           4.0316   -3.5240   19.0957 C.ar    1  UNL1        0.0600
     25 C           3.7929   -4.9696   19.4171 C.3     1  UNL1        0.0521
     26 N           3.0452   -2.4844   19.5389 N.ar    1  UNL1       -0.2414
@<TRIPOS>BOND
     1    16    17    1
     2    17    10    1
     3    10    11   ar
     4    11    12   ar
     5    12    13   ar
     6    13    14   ar
     7    14    15   ar
     8    15     1    1
     9     1     2    2
    10     1     3   am
    11     3     4    1
    12     4     5    1
    13     5     6    1
    14     6     7    2
    15     7    18    1
    16    18    19    3
    17    19    20    1
    18    20    21   ar
    19    21    22   ar
    20    22    23   ar
    21    23    24   ar
    22    24    25    1
    23    24    26   ar
    24     6     8    1
    25     8     9    1
    26    15    10   ar
    27     9     3    1
    28    26    20   ar
@<TRIPOS>MOLECULE
*****
 26 28 0 0 0
SMALL
GASTEIGER

@<TRIPOS>ATOM
      1 C           1.1738    1.9383   31.1772 C.2     1  UNL1        0.2520
      2 O           0.6032    2.9935   32.0776 O.2     1  UNL1       -0.2698
      3 N           2.2586    1.0315   31.6779 N.am    1  UNL1       -0.2753
      4 C           2.8292   -0.0238   30.7773 C.3     1  UNL1        0.0981
      5 C           3.9141   -0.9306   31.2781 C.3     1  UNL1        0.0442
      6 C           4.4284   -0.7821   32.6793 C.2     1  UNL1       -0.0326
      7 C           5.5133   -1.6889   33.1800 C.2     1  UNL1        0.0412
      8 C           3.8579    0.2731   33.5798 C.3     1  UNL1        0.0442
      9 C           2.7730    1.1799   33.0791 C.3     1  UNL1        0.0981
     10 C           1.2581    2.6035   28.6671 C.ar    1  UNL1        0.1430
     11 C           0.7437    2.4550   27.2659 C.ar    1  UNL1        0.0371
     12 C          -0.3693    1.4928   26.9736 C.ar    1  UNL1        0.0031
     13 C          -0.9679    0.6791   28.0824 C.ar    1  UNL1        0.0003
     14 C          -0.4536    0.8276   29.4835 C.ar    1  UNL1        0.0076
     15 C           0.6594    1.7898   29.7759 C.ar    1  UNL1        0.0875
     16 C           3.7982    3.1333   28.7972 C.3     1  UNL1        0.2525
     17 O           2.3711    3.5656   28.9594 O.3     1  UNL1       -0.4713
     18 C           6.0839   -2.7442   32.2795 C.1     1  UNL1       -0.0583
     19 C           6.6544   -3.7995   31.3790 C.1     1  UNL1       -0.0405
     20 C           7.2250   -4.8547   30.4786 C.ar    1  UNL1        0.1224
     21 C           8.3294   -5.7430   30.9699 C.ar    1  UNL1        0.0276
     22 C           8.8999   -6.7982   30.0694 C.ar    1  UNL1        0.0034
     23 C           8.3661   -6.9653   28.6776 C.ar    1  UNL1        0.0148
     24 C           7.2617   -6.0771   28.1863 C.ar    1  UNL1        0.0600
     25 C           6.7279   -6.2442   26.7945 C.3     1  UNL1        0.0521
     26 N           6.6911   -5.0218   29.0868 N.ar    1  UNL1       -0.2414
@<TRIPOS>BOND
     1    16    17    1
     2    17    10    1
     3    10    11   ar
     4    11    12   ar
     5    12    13   ar
     6    13    14   ar
     7    14    15   ar
     8    15     1    1
     9     1     2    2
    10     1     3   am
    11     3     4    1
    12     4     5    1
    13     5     6    1
    14     6     7    2
    15     7    18    1
    16    18    19    3
    17    19    20    1
    18    20    21   ar
    19    21    22   ar
    20    22    23   ar
    21    23    24   ar
    22    24    25    1
    23    24    26   ar
    24     6     8    1
    25     8     9    1
    26    15    10   ar
    27     9     3    1
    28    26    20   ar
@<TRIPOS>MOLECULE
*****
 26 28 0 0 0
SMALL
GASTEIGER

@<TRIPOS>ATOM
      1 C           1.5204    2.1385   30.7719 C.2     1  UNL1        0.2520
      2 O           0.8643    3.1552   31.6583 O.2     1  UNL1       -0.2698
      3 N           2.4551    1.1231   31.3594 N.am    1  UNL1       -0.2753
      4 C           3.1113    0.1063   30.4729 C.3     1  UNL1        0.0981
      5 C           4.0460   -0.9091   31.0603 C.3     1  UNL1        0.0442
      6 C           4.3247   -0.9078   32.5343 C.2     1  UNL1       -0.0326
      7 C           5.2595   -1.9232   33.1217 C.2     1  UNL1        0.0412
      8 C           3.6686    0.1089   33.4207 C.3     1  UNL1        0.0442
      9 C           2.7338    1.1244   32.8332 C.3     1  UNL1        0.0981
     10 C           0.1233    1.3032   28.7469 C.ar    1  UNL1        0.1430
     11 C          -0.1553    1.3019   27.2730 C.ar    1  UNL1        0.0371
     12 C           0.6845    2.1345   26.3502 C.ar    1  UNL1        0.0031
     13 C           1.8029    2.9685   26.9013 C.ar    1  UNL1        0.0003
     14 C           2.0815    2.9698   28.3752 C.ar    1  UNL1        0.0076
     15 C           1.2417    2.1372   29.2980 C.ar    1  UNL1        0.0875
     16 C          -1.7137   -0.4983   29.1070 C.3     1  UNL1        0.2525
     17 O          -0.7165    0.4706   29.6697 O.3     1  UNL1       -0.4713
     18 C           5.9156   -2.9400   32.2352 C.1     1  UNL1       -0.0583
     19 C           6.5716   -3.9567   31.3488 C.1     1  UNL1       -0.0405
     20 C           7.2277   -4.9735   30.4623 C.ar    1  UNL1        0.1224
     21 C           8.3701   -5.7954   30.9814 C.ar    1  UNL1        0.0276
     22 C           9.0261   -6.8121   30.0950 C.ar    1  UNL1        0.0034
     23 C           8.5398   -7.0070   28.6895 C.ar    1  UNL1        0.0148
     24 C           7.3975   -6.1851   28.1704 C.ar    1  UNL1        0.0600
     25 C           6.9112   -6.3800   26.7648 C.3     1  UNL1        0.0521
     26 N           6.7414   -5.1683   29.0568 N.ar    1  UNL1       -0.2414
@<TRIPOS>BOND
     1    16    17    1
     2    17    10    1
     3    10    11   ar
     4    11    12   ar
     5    12    13   ar
     6    13    14   ar
     7    14    15   ar
     8    15     1    1
     9     1     2    2
    10     1     3   am
    11     3     4    1
    12     4     5    1
    13     5     6    1
    14     6     7    2
    15     7    18    1
    16    18    19    3
    17    19    20    1
    18    20    21   ar
    19    21    22   ar
    20    22    23   ar
    21    23    24   ar
    22    24    25    1
    23    24    26   ar
    24     6     8    1
    25     8     9    1
    26    15    10   ar
    27     9     3    1
    28    26    20   ar
@<TRIPOS>MOLECULE
*****
 26 28 0 0 0
SMALL
GASTEIGER

@<TRIPOS>ATOM
      1 C         -18.9048    0.6880   20.4671 C.2     1  UNL1        0.2520
      2 O         -20.3804    0.8697   20.6659 O.2     1  UNL1       -0.2698
      3 N         -18.3392   -0.6862   20.2625 N.am    1  UNL1       -0.2753
      4 C         -16.8635   -0.8678   20.0637 C.3     1  UNL1        0.0981
      5 C         -16.2979   -2.2420   19.8591 C.3     1  UNL1        0.0442
      6 C         -17.2080   -3.4344   19.8533 C.2     1  UNL1       -0.0326
      7 C         -16.6423   -4.8085   19.6487 C.2     1  UNL1        0.0412
      8 C         -18.6835   -3.2527   20.0521 C.3     1  UNL1        0.0442
      9 C         -19.2491   -1.8786   20.2567 C.3     1  UNL1        0.0981
     10 C         -17.4499    2.4018   21.7695 C.ar    1  UNL1        0.1430
     11 C         -16.5399    3.5941   21.7753 C.ar    1  UNL1        0.0371
     12 C         -16.1747    4.2651   20.4844 C.ar    1  UNL1        0.0031
     13 C         -16.7195    3.7438   19.1878 C.ar    1  UNL1        0.0003
     14 C         -17.6295    2.5514   19.1820 C.ar    1  UNL1        0.0076
     15 C         -17.9947    1.8804   20.4729 C.ar    1  UNL1        0.0875
     16 C         -18.8603    2.3352   23.9504 C.3     1  UNL1        0.2525
     17 O         -17.8151    1.7308   23.0604 O.3     1  UNL1       -0.4713
     18 C         -15.1667   -4.9902   19.4499 C.1     1  UNL1       -0.0583
     19 C         -13.6911   -5.1719   19.2512 C.1     1  UNL1       -0.0405
     20 C         -12.2155   -5.3536   19.0524 C.ar    1  UNL1        0.1224
     21 C         -11.3151   -4.1559   18.9820 C.ar    1  UNL1        0.0276
     22 C          -9.8395   -4.3375   18.7833 C.ar    1  UNL1        0.0034
     23 C          -9.2642   -5.7169   18.6549 C.ar    1  UNL1        0.0148
     24 C         -10.1645   -6.9145   18.7253 C.ar    1  UNL1        0.0600
     25 C          -9.5892   -8.2939   18.5969 C.3     1  UNL1        0.0521
     26 N         -11.6402   -6.7329   18.9241 N.ar    1  UNL1       -0.2414
@<TRIPOS>BOND
     1    16    17    1
     2    17    10    1
     3    10    11   ar
     4    11    12   ar
     5    12    13   ar
     6    13    14   ar
     7    14    15   ar
     8    15     1    1
     9     1     2    2
    10     1     3   am
    11     3     4    1
    12     4     5    1
    13     5     6    1
    14     6     7    2
    15     7    18    1
    16    18    19    3
    17    19    20    1
    18    20    21   ar
    19    21    22   ar
    20    22    23   ar
    21    23    24   ar
    22    24    25    1
    23    24    26   ar
    24     6     8    1
    25     8     9    1
    26    15    10   ar
    27     9     3    1
    28    26    20   ar
@<TRIPOS>MOLECULE
*****
 26 28 0 0 0
SMALL
GASTEIGER

@<TRIPOS>ATOM
      1 C           5.9824   -0.8592   18.9776 C.2     1  UNL1        0.2520
      2 O           7.4757   -0.7870   18.8563 O.2     1  UNL1       -0.2698
      3 N           5.1509    0.3675   18.7457 N.am    1  UNL1       -0.2753
      4 C           3.6575    0.2953   18.8669 C.3     1  UNL1        0.0981
      5 C           2.8260    1.5220   18.6351 C.3     1  UNL1        0.0442
      6 C           3.4879    2.8210   18.2820 C.2     1  UNL1       -0.0326
      7 C           2.6564    4.0477   18.0502 C.2     1  UNL1        0.0412
      8 C           4.9812    2.8932   18.1608 C.3     1  UNL1        0.0442
      9 C           5.8127    1.6665   18.3926 C.3     1  UNL1        0.0981
     10 C           4.9663   -2.4559   20.7574 C.ar    1  UNL1        0.1430
     11 C           4.3044   -3.7549   21.1105 C.ar    1  UNL1        0.0371
     12 C           3.9968   -4.7560   20.0367 C.ar    1  UNL1        0.0031
     13 C           4.3510   -4.4583   18.6099 C.ar    1  UNL1        0.0003
     14 C           5.0128   -3.1593   18.2568 C.ar    1  UNL1        0.0076
     15 C           5.3205   -2.1582   19.3306 C.ar    1  UNL1        0.0875
     16 C           4.1636   -0.6725   22.4677 C.3     1  UNL1        0.2525
     17 O           5.2739   -1.4548   21.8312 O.3     1  UNL1       -0.4713
     18 C           1.1630    3.9755   18.1714 C.1     1  UNL1       -0.0583
     19 C          -0.3303    3.9032   18.2926 C.1     1  UNL1       -0.0405
     20 C          -1.8236    3.8310   18.4138 C.ar    1  UNL1        0.1224
     21 C          -2.6837    3.9912   17.1952 C.ar    1  UNL1        0.0276
     22 C          -4.1770    3.9189   17.3164 C.ar    1  UNL1        0.0034
     23 C          -4.8104    3.6866   18.6561 C.ar    1  UNL1        0.0148
     24 C          -3.9504    3.5264   19.8746 C.ar    1  UNL1        0.0600
     25 C          -4.5838    3.2940   21.2143 C.3     1  UNL1        0.0521
     26 N          -2.4570    3.5986   19.7535 N.ar    1  UNL1       -0.2414
@<TRIPOS>BOND
     1    16    17    1
     2    17    10    1
     3    10    11   ar
     4    11    12   ar
     5    12    13   ar
     6    13    14   ar
     7    14    15   ar
     8    15     1    1
     9     1     2    2
    10     1     3   am
    11     3     4    1
    12     4     5    1
    13     5     6    1
    14     6     7    2
    15     7    18    1
    16    18    19    3
    17    19    20    1
    18    20    21   ar
    19    21    22   ar
    20    22    23   ar
    21    23    24   ar
    22    24    25    1
    23    24    26   ar
    24     6     8    1
    25     8     9    1
    26    15    10   ar
    27     9     3    1
    28    26    20   ar
@<TRIPOS>MOLECULE
*****
 26 28 0 0 0
SMALL
GASTEIGER

@<TRIPOS>ATOM
      1 C           4.1275    0.0294   18.8417 C.2     1  UNL1        0.2520
      2 O           4.2602    0.7253   17.5195 O.2     1  UNL1       -0.2698
      3 N           5.1686   -0.9589   19.2769 N.am    1  UNL1       -0.2753
      4 C           5.0359   -1.6548   20.5991 C.3     1  UNL1        0.0981
      5 C           6.0770   -2.6431   21.0343 C.3     1  UNL1        0.0442
      6 C           7.2508   -2.9354   20.1473 C.2     1  UNL1       -0.0326
      7 C           8.2919   -3.9237   20.5825 C.2     1  UNL1        0.0412
      8 C           7.3835   -2.2395   18.8252 C.3     1  UNL1        0.0442
      9 C           6.3424   -1.2512   18.3900 C.3     1  UNL1        0.0981
     10 C           3.0462    1.4045   20.7626 C.ar    1  UNL1        0.1430
     11 C           1.8723    1.6968   21.6495 C.ar    1  UNL1        0.0371
     12 C           0.6060    0.9064   21.5025 C.ar    1  UNL1        0.0031
     13 C           0.5135   -0.1764   20.4685 C.ar    1  UNL1        0.0003
     14 C           1.6873   -0.4687   19.5816 C.ar    1  UNL1        0.0076
     15 C           2.9536    0.3218   19.7286 C.ar    1  UNL1        0.0875
     16 C           5.2978    1.8400   21.9834 C.3     1  UNL1        0.2525
     17 O           4.3125    2.1950   20.9096 O.3     1  UNL1       -0.4713
     18 C           8.1592   -4.6196   21.9047 C.1     1  UNL1       -0.0583
     19 C           8.0264   -5.3155   23.2269 C.1     1  UNL1       -0.0405
     20 C           7.8936   -6.0113   24.5490 C.ar    1  UNL1        0.1224
     21 C           8.4798   -7.3790   24.7390 C.ar    1  UNL1        0.0276
     22 C           8.3470   -8.0748   26.0611 C.ar    1  UNL1        0.0034
     23 C           7.6280   -7.4032   27.1933 C.ar    1  UNL1        0.0148
     24 C           7.0418   -6.0356   27.0034 C.ar    1  UNL1        0.0600
     25 C           6.3228   -5.3639   28.1356 C.3     1  UNL1        0.0521
     26 N           7.1746   -5.3397   25.6812 N.ar    1  UNL1       -0.2414
@<TRIPOS>BOND
     1    16    17    1
     2    17    10    1
     3    10    11   ar
     4    11    12   ar
     5    12    13   ar
     6    13    14   ar
     7    14    15   ar
     8    15     1    1
     9     1     2    2
    10     1     3   am
    11     3     4    1
    12     4     5    1
    13     5     6    1
    14     6     7    2
    15     7    18    1
    16    18    19    3
    17    19    20    1
    18    20    21   ar
    19    21    22   ar
    20    22    23   ar
    21    23    24   ar
    22    24    25    1
    23    24    26   ar
    24     6     8    1
    25     8     9    1
    26    15    10   ar
    27     9     3    1
    28    26    20   ar
