@<TRIPOS>MOLECULE
*****
 30 32 0 0 0
SMALL
GASTEIGER

@<TRIPOS>ATOM
      1 N          -8.9457  -18.2596   22.2300 N.am    1  UNL1       -0.2916
      2 C          -7.8656  -19.2872   22.3955 C.2     1  UNL1        0.2484
      3 O          -8.1574  -20.5737   23.1094 O.2     1  UNL1       -0.2701
      4 H          -8.7542  -17.4152   21.7614 H       1  UNL1        0.1502
      5 C          -6.4936  -19.0282   21.8471 C.ar    1  UNL1        0.0808
      6 C          -5.3894  -18.5921   22.7640 C.ar    1  UNL1        0.0068
      7 C          -4.0175  -18.3332   22.2156 C.ar    1  UNL1        0.0003
      8 C          -3.7498  -18.5103   20.7504 C.ar    1  UNL1        0.0022
      9 C          -4.8539  -18.9464   19.8335 C.ar    1  UNL1        0.0298
     10 C          -6.2258  -19.2053   20.3819 C.ar    1  UNL1        0.1444
     11 F          -7.3301  -19.6414   19.4650 F       1  UNL1       -0.2040
     12 C          -2.3778  -18.2513   20.2020 C.ar    1  UNL1        0.0001
     13 C          -1.2078  -18.1336   21.1332 C.ar    1  UNL1        0.0000
     14 C           0.1642  -17.8746   20.5849 C.ar    1  UNL1        0.0000
     15 C           0.3661  -17.7334   19.1052 C.ar    1  UNL1        0.0000
     16 C          -0.8039  -17.8512   18.1740 C.ar    1  UNL1        0.0000
     17 C          -2.1759  -18.1101   18.7224 C.ar    1  UNL1        0.0000
     18 C         -10.3177  -18.5186   22.7783 C.3     1  UNL1        0.1945
     19 C         -11.4006  -19.0338   21.8772 C.2     1  UNL1        0.3369
     20 O         -11.4117  -20.4766   21.4669 O.2     1  UNL1       -0.2482
     21 O         -12.4724  -18.1062   21.3865 O.3     1  UNL1       -0.4511
     22 C         -12.4230  -15.7198   22.4124 C.3     1  UNL1        0.0473
     23 C         -12.1902  -16.6393   21.2504 C.3     1  UNL1        0.1691
     24 C         -11.6752  -16.0919   19.9523 C.3     1  UNL1        0.0473
     25 C         -10.6067  -18.2624   24.2277 C.3     1  UNL1        0.1386
     26 N          -9.7021  -17.3720   25.0269 N.ar    1  UNL1       -0.3055
     27 C          -9.1987  -16.0224   24.6081 C.ar    1  UNL1        0.0981
     28 C          -8.3275  -15.4910   25.7075 C.ar    1  UNL1        0.1193
     29 N          -8.2925  -16.5122   26.8058 N.ar    1  UNL1       -0.2223
     30 C          -9.1421  -17.6747   26.3851 C.ar    1  UNL1        0.1787
@<TRIPOS>BOND
     1    22    23    1
     2    23    24    1
     3    23    21    1
     4    21    19    1
     5    19    20    2
     6    19    18    1
     7    18    25    1
     8    25    26    1
     9    26    27   ar
    10    27    28   ar
    11    28    29   ar
    12    29    30   ar
    13    18     1    1
    14     1     2   am
    15     2     3    2
    16     2     5    1
    17     5     6   ar
    18     6     7   ar
    19     7     8   ar
    20     8    12    1
    21    12    13   ar
    22    13    14   ar
    23    14    15   ar
    24    15    16   ar
    25    16    17   ar
    26     8     9   ar
    27     9    10   ar
    28    10    11    1
    29    30    26   ar
    30    10     5   ar
    31    17    12   ar
    32     1     4    1
@<TRIPOS>MOLECULE
*****
 30 32 0 0 0
SMALL
GASTEIGER

@<TRIPOS>ATOM
      1 N          -2.1475    2.4753   20.4751 N.am    1  UNL1       -0.2916
      2 C          -0.6848    2.7305   20.6885 C.2     1  UNL1        0.2484
      3 O          -0.2287    4.0329   21.2763 O.2     1  UNL1       -0.2701
      4 H          -2.4468    1.6204   20.0893 H       1  UNL1        0.1502
      5 C           0.3217    1.6832   20.3140 C.ar    1  UNL1        0.0808
      6 C           0.9060    0.7929   21.3703 C.ar    1  UNL1        0.0068
      7 C           1.9125   -0.2544   20.9958 C.ar    1  UNL1        0.0003
      8 C           2.3347   -0.4112   19.5651 C.ar    1  UNL1        0.0022
      9 C           1.7504    0.4791   18.5088 C.ar    1  UNL1        0.0298
     10 C           0.7439    1.5263   18.8832 C.ar    1  UNL1        0.1444
     11 F           0.1595    2.4168   17.8269 F       1  UNL1       -0.2040
     12 C           3.3412   -1.4585   19.1906 C.ar    1  UNL1        0.0001
     13 C           4.5749   -1.0746   18.4287 C.ar    1  UNL1        0.0000
     14 C           5.5815   -2.1219   18.0543 C.ar    1  UNL1        0.0000
     15 C           5.3542   -3.5530   18.4417 C.ar    1  UNL1        0.0000
     16 C           4.1204   -3.9369   19.2036 C.ar    1  UNL1        0.0000
     17 C           3.1140   -2.8897   19.5781 C.ar    1  UNL1        0.0000
     18 C          -3.1540    3.5226   20.8496 C.3     1  UNL1        0.1945
     19 C          -3.6989    3.5737   22.2462 C.2     1  UNL1        0.3369
     20 O          -2.8523    4.1098   23.3624 O.2     1  UNL1       -0.2482
     21 O          -5.0904    3.0888   22.5265 O.3     1  UNL1       -0.4511
     22 C          -5.9459    4.2353   24.6953 C.3     1  UNL1        0.0473
     23 C          -6.0714    3.9858   23.2216 C.3     1  UNL1        0.1691
     24 C          -7.1779    4.6333   22.4429 C.3     1  UNL1        0.0473
     25 C          -3.6156    4.5186   19.8275 C.3     1  UNL1        0.1386
     26 N          -5.0426    4.5124   19.3653 N.ar    1  UNL1       -0.3055
     27 C          -5.9110    5.7196   19.1690 C.ar    1  UNL1        0.0981
     28 C          -7.2569    5.2513   18.7006 C.ar    1  UNL1        0.1193
     29 N          -7.2201    3.7546   18.6075 N.ar    1  UNL1       -0.2223
     30 C          -5.8516    3.2980   19.0182 C.ar    1  UNL1        0.1787
@<TRIPOS>BOND
     1    22    23    1
     2    23    24    1
     3    23    21    1
     4    21    19    1
     5    19    20    2
     6    19    18    1
     7    18    25    1
     8    25    26    1
     9    26    27   ar
    10    27    28   ar
    11    28    29   ar
    12    29    30   ar
    13    18     1    1
    14     1     2   am
    15     2     3    2
    16     2     5    1
    17     5     6   ar
    18     6     7   ar
    19     7     8   ar
    20     8    12    1
    21    12    13   ar
    22    13    14   ar
    23    14    15   ar
    24    15    16   ar
    25    16    17   ar
    26     8     9   ar
    27     9    10   ar
    28    10    11    1
    29    30    26   ar
    30    10     5   ar
    31    17    12   ar
    32     1     4    1
@<TRIPOS>MOLECULE
*****
 30 32 0 0 0
SMALL
GASTEIGER

@<TRIPOS>ATOM
      1 N           3.4555   -0.9251   28.1500 N.am    1  UNL1       -0.2916
      2 C           3.7249   -0.0476   26.9637 C.2     1  UNL1        0.2484
      3 O           3.9220    1.4276   27.1514 O.2     1  UNL1       -0.2701
      4 H           3.3262   -1.8933   28.0268 H       1  UNL1        0.1502
      5 C           3.7973   -0.6451   25.5897 C.ar    1  UNL1        0.0808
      6 C           4.7542   -1.7654   25.3086 C.ar    1  UNL1        0.0068
      7 C           4.8266   -2.3629   23.9346 C.ar    1  UNL1        0.0003
      8 C           3.9420   -1.8401   22.8419 C.ar    1  UNL1        0.0022
      9 C           2.9850   -0.7198   23.1231 C.ar    1  UNL1        0.0298
     10 C           2.9127   -0.1223   24.4970 C.ar    1  UNL1        0.1444
     11 F           1.9557    0.9981   24.7782 F       1  UNL1       -0.2040
     12 C           4.0143   -2.4376   21.4679 C.ar    1  UNL1        0.0001
     13 C           3.6200   -1.6209   20.2731 C.ar    1  UNL1        0.0000
     14 C           3.6924   -2.2185   18.8992 C.ar    1  UNL1        0.0000
     15 C           4.1591   -3.6327   18.7200 C.ar    1  UNL1        0.0000
     16 C           4.5534   -4.4494   19.9149 C.ar    1  UNL1        0.0000
     17 C           4.4811   -3.8519   21.2888 C.ar    1  UNL1        0.0000
     18 C           3.3831   -0.3275   29.5240 C.3     1  UNL1        0.1945
     19 C           2.1070    0.2984   30.0034 C.2     1  UNL1        0.3369
     20 O           2.1331    1.6480   30.6576 O.2     1  UNL1       -0.2482
     21 O           0.8048   -0.4253   29.8285 O.3     1  UNL1       -0.4511
     22 C          -1.6479   -0.3042   28.9805 C.3     1  UNL1        0.0473
     23 C          -0.2036    0.0743   28.8369 C.3     1  UNL1        0.1691
     24 C           0.2322    0.9525   27.7017 C.3     1  UNL1        0.0473
     25 C           4.5868   -0.3559   30.4185 C.3     1  UNL1        0.1386
     26 N           4.4370   -0.7187   31.8662 N.ar    1  UNL1       -0.3055
     27 C           4.4491    0.2387   33.0209 C.ar    1  UNL1        0.0981
     28 C           4.2683   -0.5535   34.2818 C.ar    1  UNL1        0.1193
     29 N           4.1443   -2.0005   33.9063 N.ar    1  UNL1       -0.2223
     30 C           4.2486   -2.1025   32.4134 C.ar    1  UNL1        0.1787
@<TRIPOS>BOND
     1    22    23    1
     2    23    24    1
     3    23    21    1
     4    21    19    1
     5    19    20    2
     6    19    18    1
     7    18    25    1
     8    25    26    1
     9    26    27   ar
    10    27    28   ar
    11    28    29   ar
    12    29    30   ar
    13    18     1    1
    14     1     2   am
    15     2     3    2
    16     2     5    1
    17     5     6   ar
    18     6     7   ar
    19     7     8   ar
    20     8    12    1
    21    12    13   ar
    22    13    14   ar
    23    14    15   ar
    24    15    16   ar
    25    16    17   ar
    26     8     9   ar
    27     9    10   ar
    28    10    11    1
    29    30    26   ar
    30    10     5   ar
    31    17    12   ar
    32     1     4    1
@<TRIPOS>MOLECULE
*****
 30 32 0 0 0
SMALL
GASTEIGER

@<TRIPOS>ATOM
      1 N          -2.0924    2.4888   20.4994 N.am    1  UNL1       -0.2916
      2 C          -0.6280    2.7212   20.7265 C.2     1  UNL1        0.2484
      3 O          -0.1584    4.0103   21.3328 O.2     1  UNL1       -0.2701
      4 H          -2.4006    1.6427   20.1015 H       1  UNL1        0.1502
      5 C           0.3668    1.6644   20.3474 C.ar    1  UNL1        0.0808
      6 C           0.9489    0.7698   21.4012 C.ar    1  UNL1        0.0068
      7 C           1.9437   -0.2869   21.0221 C.ar    1  UNL1        0.0003
      8 C           2.3563   -0.4490   19.5891 C.ar    1  UNL1        0.0022
      9 C           1.7742    0.4457   18.5352 C.ar    1  UNL1        0.0298
     10 C           0.7794    1.5024   18.9144 C.ar    1  UNL1        0.1444
     11 F           0.1972    2.3971   17.8605 F       1  UNL1       -0.2040
     12 C           3.3511   -1.5057   19.2099 C.ar    1  UNL1        0.0001
     13 C           4.5843   -1.1337   18.4413 C.ar    1  UNL1        0.0000
     14 C           5.5791   -2.1905   18.0622 C.ar    1  UNL1        0.0000
     15 C           5.3407   -3.6192   18.4517 C.ar    1  UNL1        0.0000
     16 C           4.1074   -3.9913   19.2204 C.ar    1  UNL1        0.0000
     17 C           3.1127   -2.9345   19.5995 C.ar    1  UNL1        0.0000
     18 C          -3.0872    3.5456   20.8785 C.3     1  UNL1        0.1945
     19 C          -3.6574    3.5757   22.2656 C.2     1  UNL1        0.3369
     20 O          -2.8273    4.0845   23.4068 O.2     1  UNL1       -0.2482
     21 O          -5.0575    3.0972   22.5115 O.3     1  UNL1       -0.4511
     22 C          -6.5596    4.4066   24.1785 C.3     1  UNL1        0.0473
     23 C          -6.1540    4.0876   22.7701 C.3     1  UNL1        0.1691
     24 C          -6.8450    4.7588   21.6204 C.3     1  UNL1        0.0473
     25 C          -3.5117    4.5721   19.8706 C.3     1  UNL1        0.1386
     26 N          -3.4054    4.2726   18.4047 N.ar    1  UNL1       -0.3055
     27 C          -2.2031    4.5132   17.5405 C.ar    1  UNL1        0.0981
     28 C          -2.5373    4.0692   16.1473 C.ar    1  UNL1        0.1193
     29 N          -3.9462    3.5541   16.1504 N.ar    1  UNL1       -0.2223
     30 C          -4.4827    3.6799   17.5455 C.ar    1  UNL1        0.1787
@<TRIPOS>BOND
     1    22    23    1
     2    23    24    1
     3    23    21    1
     4    21    19    1
     5    19    20    2
     6    19    18    1
     7    18    25    1
     8    25    26    1
     9    26    27   ar
    10    27    28   ar
    11    28    29   ar
    12    29    30   ar
    13    18     1    1
    14     1     2   am
    15     2     3    2
    16     2     5    1
    17     5     6   ar
    18     6     7   ar
    19     7     8   ar
    20     8    12    1
    21    12    13   ar
    22    13    14   ar
    23    14    15   ar
    24    15    16   ar
    25    16    17   ar
    26     8     9   ar
    27     9    10   ar
    28    10    11    1
    29    30    26   ar
    30    10     5   ar
    31    17    12   ar
    32     1     4    1
@<TRIPOS>MOLECULE
*****
 30 32 0 0 0
SMALL
GASTEIGER

@<TRIPOS>ATOM
      1 N           3.3447   -1.0057   28.2382 N.am    1  UNL1       -0.2916
      2 C           3.6707   -0.1035   27.0851 C.2     1  UNL1        0.2484
      3 O           3.9101    1.3583   27.3210 O.2     1  UNL1       -0.2701
      4 H           3.1875   -1.9652   28.0834 H       1  UNL1        0.1502
      5 C           3.7572   -0.6632   25.6961 C.ar    1  UNL1        0.0808
      6 C           2.8798   -0.1143   24.6103 C.ar    1  UNL1        0.0068
      7 C           2.9664   -0.6739   23.2214 C.ar    1  UNL1        0.0003
      8 C           3.9304   -1.7824   22.9182 C.ar    1  UNL1        0.0022
      9 C           4.8078   -2.3313   24.0039 C.ar    1  UNL1        0.0298
     10 C           4.7212   -1.7717   25.3929 C.ar    1  UNL1        0.1444
     11 F           5.5986   -2.3206   26.4787 F       1  UNL1       -0.2040
     12 C           4.0170   -2.3421   21.5291 C.ar    1  UNL1        0.0001
     13 C           3.5457   -1.5270   20.3614 C.ar    1  UNL1        0.0000
     14 C           3.6322   -2.0867   18.9724 C.ar    1  UNL1        0.0000
     15 C           4.1901   -3.4614   18.7511 C.ar    1  UNL1        0.0000
     16 C           4.6614   -4.2764   19.9189 C.ar    1  UNL1        0.0000
     17 C           4.5748   -3.7168   21.3078 C.ar    1  UNL1        0.0000
     18 C           3.2581   -0.4461   29.6273 C.3     1  UNL1        0.1945
     19 C           1.9277   -0.0469   30.1935 C.2     1  UNL1        0.3369
     20 O           1.8601    0.9079   31.3484 O.2     1  UNL1       -0.2482
     21 O           0.6649   -0.6025   29.6048 O.3     1  UNL1       -0.4511
     22 C           0.2837    1.2827   27.8582 C.3     1  UNL1        0.0473
     23 C          -0.2658    0.2944   28.8437 C.3     1  UNL1        0.1691
     24 C          -1.7461    0.2031   29.0681 C.3     1  UNL1        0.0473
     25 C           4.5020   -0.2857   30.4501 C.3     1  UNL1        0.1386
     26 N           5.2515   -1.4968   30.9204 N.ar    1  UNL1       -0.3055
     27 C           5.1788   -2.1014   32.2912 C.ar    1  UNL1        0.0981
     28 C           6.0877   -3.2944   32.3205 C.ar    1  UNL1        0.1193
     29 N           6.7221   -3.4270   30.9677 N.ar    1  UNL1       -0.2223
     30 C           6.2053   -2.3161   30.1024 C.ar    1  UNL1        0.1787
@<TRIPOS>BOND
     1    22    23    1
     2    23    24    1
     3    23    21    1
     4    21    19    1
     5    19    20    2
     6    19    18    1
     7    18    25    1
     8    25    26    1
     9    26    27   ar
    10    27    28   ar
    11    28    29   ar
    12    29    30   ar
    13    18     1    1
    14     1     2   am
    15     2     3    2
    16     2     5    1
    17     5     6   ar
    18     6     7   ar
    19     7     8   ar
    20     8    12    1
    21    12    13   ar
    22    13    14   ar
    23    14    15   ar
    24    15    16   ar
    25    16    17   ar
    26     8     9   ar
    27     9    10   ar
    28    10    11    1
    29    30    26   ar
    30    10     5   ar
    31    17    12   ar
    32     1     4    1
@<TRIPOS>MOLECULE
*****
 30 32 0 0 0
SMALL
GASTEIGER

@<TRIPOS>ATOM
      1 N          -2.1215    2.4705   20.5628 N.am    1  UNL1       -0.2916
      2 C          -0.6552    2.7548   20.7010 C.2     1  UNL1        0.2484
      3 O          -0.1946    4.0864   21.2155 O.2     1  UNL1       -0.2701
      4 H          -2.4238    1.5966   20.2251 H       1  UNL1        0.1502
      5 C           0.3506    1.7075   20.3245 C.ar    1  UNL1        0.0808
      6 C           0.9656    0.8429   21.3847 C.ar    1  UNL1        0.0068
      7 C           1.9713   -0.2043   21.0083 C.ar    1  UNL1        0.0003
      8 C           2.3620   -0.3869   19.5716 C.ar    1  UNL1        0.0022
      9 C           1.7470    0.4777   18.5114 C.ar    1  UNL1        0.0298
     10 C           0.7413    1.5249   18.8879 C.ar    1  UNL1        0.1444
     11 F           0.1262    2.3896   17.8276 F       1  UNL1       -0.2040
     12 C           3.3678   -1.4342   19.1952 C.ar    1  UNL1        0.0001
     13 C           3.1260   -2.8701   19.5554 C.ar    1  UNL1        0.0000
     14 C           4.1318   -3.9174   19.1789 C.ar    1  UNL1        0.0000
     15 C           5.3794   -3.5288   18.4423 C.ar    1  UNL1        0.0000
     16 C           5.6211   -2.0928   18.0821 C.ar    1  UNL1        0.0000
     17 C           4.6153   -1.0456   18.4586 C.ar    1  UNL1        0.0000
     18 C          -3.1273    3.5178   20.9392 C.3     1  UNL1        0.1945
     19 C          -3.6277    3.6042   22.3507 C.2     1  UNL1        0.3369
     20 O          -4.9053    2.9195   22.7367 O.2     1  UNL1       -0.2482
     21 O          -2.8505    4.3752   23.3761 O.3     1  UNL1       -0.4511
     22 C          -0.9926    2.9161   24.4575 C.3     1  UNL1        0.0473
     23 C          -2.2837    3.6710   24.5731 C.3     1  UNL1        0.1691
     24 C          -3.0078    3.7217   25.8857 C.3     1  UNL1        0.0473
     25 C          -3.6327    4.4787   19.9042 C.3     1  UNL1        0.1386
     26 N          -5.0844    4.4797   19.5271 N.ar    1  UNL1       -0.3055
     27 C          -6.1016    5.5027   19.9382 C.ar    1  UNL1        0.0981
     28 C          -7.4198    5.1130   19.3379 C.ar    1  UNL1        0.1193
     29 N          -7.2174    3.8492   18.5557 N.ar    1  UNL1       -0.2223
     30 C          -5.7741    3.4578   18.6727 C.ar    1  UNL1        0.1787
@<TRIPOS>BOND
     1    22    23    1
     2    23    24    1
     3    23    21    1
     4    21    19    1
     5    19    20    2
     6    19    18    1
     7    18    25    1
     8    25    26    1
     9    26    27   ar
    10    27    28   ar
    11    28    29   ar
    12    29    30   ar
    13    18     1    1
    14     1     2   am
    15     2     3    2
    16     2     5    1
    17     5     6   ar
    18     6     7   ar
    19     7     8   ar
    20     8    12    1
    21    12    13   ar
    22    13    14   ar
    23    14    15   ar
    24    15    16   ar
    25    16    17   ar
    26     8     9   ar
    27     9    10   ar
    28    10    11    1
    29    30    26   ar
    30    10     5   ar
    31    17    12   ar
    32     1     4    1
@<TRIPOS>MOLECULE
*****
 30 32 0 0 0
SMALL
GASTEIGER

@<TRIPOS>ATOM
      1 N           1.9950   -0.0025   27.3688 N.am    1  UNL1       -0.2916
      2 C           2.5252    0.7131   26.1618 C.2     1  UNL1        0.2484
      3 O           2.6433    2.2084   26.1682 O.2     1  UNL1       -0.2701
      4 H           1.9175   -0.9840   27.3646 H       1  UNL1        0.1502
      5 C           2.9374   -0.0667   24.9485 C.ar    1  UNL1        0.0808
      6 C           3.9062   -1.2041   25.0813 C.ar    1  UNL1        0.0068
      7 C           4.3183   -1.9838   23.8680 C.ar    1  UNL1        0.0003
      8 C           3.7616   -1.6260   22.5218 C.ar    1  UNL1        0.0022
      9 C           2.7928   -0.4887   22.3890 C.ar    1  UNL1        0.0298
     10 C           2.3807    0.2910   23.6023 C.ar    1  UNL1        0.1444
     11 F           1.4118    1.4285   23.4695 F       1  UNL1       -0.2040
     12 C           4.1738   -2.4058   21.3084 C.ar    1  UNL1        0.0001
     13 C           3.3102   -2.3966   20.0820 C.ar    1  UNL1        0.0000
     14 C           3.7224   -3.1764   18.8686 C.ar    1  UNL1        0.0000
     15 C           4.9982   -3.9653   18.8818 C.ar    1  UNL1        0.0000
     16 C           5.8617   -3.9744   20.1083 C.ar    1  UNL1        0.0000
     17 C           5.4495   -3.1947   21.3216 C.ar    1  UNL1        0.0000
     18 C           1.5828    0.7772   28.5821 C.3     1  UNL1        0.1945
     19 C           0.1277    0.9834   28.8826 C.2     1  UNL1        0.3369
     20 O          -0.3537    0.9721   30.3032 O.2     1  UNL1       -0.2482
     21 O          -0.8459    1.2008   27.7624 O.3     1  UNL1       -0.4511
     22 C          -0.3666    3.7460   27.5581 C.3     1  UNL1        0.0473
     23 C          -0.7631    2.4441   26.9274 C.3     1  UNL1        0.1691
     24 C          -1.0769    2.3856   25.4618 C.3     1  UNL1        0.0473
     25 C           2.6257    1.3508   29.4950 C.3     1  UNL1        0.1386
     26 N           2.9758    0.6444   30.7711 N.ar    1  UNL1       -0.3055
     27 C           3.2272    1.2955   32.0989 C.ar    1  UNL1        0.0981
     28 C           3.5427    0.2165   33.0920 C.ar    1  UNL1        0.1193
     29 N           3.4862   -1.1015   32.3779 N.ar    1  UNL1       -0.2223
     30 C           3.1359   -0.8370   30.9436 C.ar    1  UNL1        0.1787
@<TRIPOS>BOND
     1    22    23    1
     2    23    24    1
     3    23    21    1
     4    21    19    1
     5    19    20    2
     6    19    18    1
     7    18    25    1
     8    25    26    1
     9    26    27   ar
    10    27    28   ar
    11    28    29   ar
    12    29    30   ar
    13    18     1    1
    14     1     2   am
    15     2     3    2
    16     2     5    1
    17     5     6   ar
    18     6     7   ar
    19     7     8   ar
    20     8    12    1
    21    12    13   ar
    22    13    14   ar
    23    14    15   ar
    24    15    16   ar
    25    16    17   ar
    26     8     9   ar
    27     9    10   ar
    28    10    11    1
    29    30    26   ar
    30    10     5   ar
    31    17    12   ar
    32     1     4    1
@<TRIPOS>MOLECULE
*****
 30 32 0 0 0
SMALL
GASTEIGER

@<TRIPOS>ATOM
      1 N           2.4655   -0.9193   27.8206 N.am    1  UNL1       -0.2916
      2 C           3.0959   -0.0634   26.7624 C.2     1  UNL1        0.2484
      3 O           3.4505    1.3625   27.0638 O.2     1  UNL1       -0.2701
      4 H           2.2327   -1.8552   27.6227 H       1  UNL1        0.1502
      5 C           3.3716   -0.6334   25.4025 C.ar    1  UNL1        0.0808
      6 C           4.4087   -1.7039   25.2342 C.ar    1  UNL1        0.0068
      7 C           4.6844   -2.2739   23.8744 C.ar    1  UNL1        0.0003
      8 C           3.9229   -1.7733   22.6829 C.ar    1  UNL1        0.0022
      9 C           2.8859   -0.7028   22.8512 C.ar    1  UNL1        0.0298
     10 C           2.6102   -0.1329   24.2110 C.ar    1  UNL1        0.1444
     11 F           1.5730    0.9377   24.3793 F       1  UNL1       -0.2040
     12 C           4.1987   -2.3434   21.3230 C.ar    1  UNL1        0.0001
     13 C           5.0836   -3.5459   21.1792 C.ar    1  UNL1        0.0000
     14 C           5.3593   -4.1159   19.8194 C.ar    1  UNL1        0.0000
     15 C           4.7501   -3.4833   18.6034 C.ar    1  UNL1        0.0000
     16 C           3.8651   -2.2807   18.7472 C.ar    1  UNL1        0.0000
     17 C           3.5894   -1.7108   20.1070 C.ar    1  UNL1        0.0000
     18 C           2.1898   -0.3493   29.1805 C.3     1  UNL1        0.1945
     19 C           3.2402   -0.4170   30.2492 C.2     1  UNL1        0.3369
     20 O           4.5665    0.2520   30.0407 O.2     1  UNL1       -0.2482
     21 O           2.9644   -1.1538   31.5263 O.3     1  UNL1       -0.4511
     22 C           4.1369   -0.2793   33.6734 C.3     1  UNL1        0.0473
     23 C           4.0395   -1.2842   32.5641 C.3     1  UNL1        0.1691
     24 C           5.0172   -2.4195   32.4926 C.3     1  UNL1        0.0473
     25 C           0.8637    0.2884   29.4716 C.3     1  UNL1        0.1386
     26 N           0.3267    1.3518   28.5602 N.ar    1  UNL1       -0.3055
     27 C           0.5834    2.8251   28.6768 C.ar    1  UNL1        0.0981
     28 C          -0.1459    3.5125   27.5608 C.ar    1  UNL1        0.1193
     29 N          -0.8534    2.4640   26.7544 N.ar    1  UNL1       -0.2223
     30 C          -0.5612    1.1287   27.3720 C.ar    1  UNL1        0.1787
@<TRIPOS>BOND
     1    22    23    1
     2    23    24    1
     3    23    21    1
     4    21    19    1
     5    19    20    2
     6    19    18    1
     7    18    25    1
     8    25    26    1
     9    26    27   ar
    10    27    28   ar
    11    28    29   ar
    12    29    30   ar
    13    18     1    1
    14     1     2   am
    15     2     3    2
    16     2     5    1
    17     5     6   ar
    18     6     7   ar
    19     7     8   ar
    20     8    12    1
    21    12    13   ar
    22    13    14   ar
    23    14    15   ar
    24    15    16   ar
    25    16    17   ar
    26     8     9   ar
    27     9    10   ar
    28    10    11    1
    29    30    26   ar
    30    10     5   ar
    31    17    12   ar
    32     1     4    1
@<TRIPOS>MOLECULE
*****
 30 32 0 0 0
SMALL
GASTEIGER

@<TRIPOS>ATOM
      1 N           6.1456   -3.5655   28.6935 N.am    1  UNL1       -0.2916
      2 C           6.9048   -3.1114   27.4822 C.2     1  UNL1        0.2484
      3 O           8.3907   -2.9199   27.5565 O.2     1  UNL1       -0.2701
      4 H           5.1704   -3.6912   28.6447 H       1  UNL1        0.1502
      5 C           6.1782   -2.8487   26.1965 C.ar    1  UNL1        0.0808
      6 C           5.1013   -1.8059   26.1431 C.ar    1  UNL1        0.0068
      7 C           4.3747   -1.5433   24.8574 C.ar    1  UNL1        0.0003
      8 C           4.7250   -2.3235   23.6251 C.ar    1  UNL1        0.0022
      9 C           5.8018   -3.3663   23.6784 C.ar    1  UNL1        0.0298
     10 C           6.5284   -3.6289   24.9641 C.ar    1  UNL1        0.1444
     11 F           7.6053   -4.6718   25.0176 F       1  UNL1       -0.2040
     12 C           3.9983   -2.0609   22.3393 C.ar    1  UNL1        0.0001
     13 C           4.2949   -2.8926   21.1268 C.ar    1  UNL1        0.0000
     14 C           3.5682   -2.6299   19.8411 C.ar    1  UNL1        0.0000
     15 C           2.5450   -1.5355   19.7679 C.ar    1  UNL1        0.0000
     16 C           2.2485   -0.7038   20.9805 C.ar    1  UNL1        0.0000
     17 C           2.9751   -0.9665   22.2662 C.ar    1  UNL1        0.0000
     18 C           6.8723   -3.8282   29.9792 C.3     1  UNL1        0.1945
     19 C           7.4673   -5.1799   30.2418 C.2     1  UNL1        0.3369
     20 O           6.8454   -6.0880   31.2609 O.2     1  UNL1       -0.2482
     21 O           8.6842   -5.6234   29.4853 O.3     1  UNL1       -0.4511
     22 C           7.6121   -6.7842   27.4230 C.3     1  UNL1        0.0473
     23 C           8.6011   -6.7937   28.5507 C.3     1  UNL1        0.1691
     24 C           9.5070   -7.9735   28.7437 C.3     1  UNL1        0.0473
     25 C           7.0039   -2.7392   31.0023 C.3     1  UNL1        0.1386
     26 N           5.7845   -2.2160   31.7017 N.ar    1  UNL1       -0.3055
     27 C           4.9851   -1.0125   31.2985 C.ar    1  UNL1        0.0981
     28 C           3.8569   -0.8570   32.2747 C.ar    1  UNL1        0.1193
     29 N           3.9591   -1.9644   33.2813 N.ar    1  UNL1       -0.2223
     30 C           5.1504   -2.8043   32.9272 C.ar    1  UNL1        0.1787
@<TRIPOS>BOND
     1    22    23    1
     2    23    24    1
     3    23    21    1
     4    21    19    1
     5    19    20    2
     6    19    18    1
     7    18    25    1
     8    25    26    1
     9    26    27   ar
    10    27    28   ar
    11    28    29   ar
    12    29    30   ar
    13    18     1    1
    14     1     2   am
    15     2     3    2
    16     2     5    1
    17     5     6   ar
    18     6     7   ar
    19     7     8   ar
    20     8    12    1
    21    12    13   ar
    22    13    14   ar
    23    14    15   ar
    24    15    16   ar
    25    16    17   ar
    26     8     9   ar
    27     9    10   ar
    28    10    11    1
    29    30    26   ar
    30    10     5   ar
    31    17    12   ar
    32     1     4    1
