@<TRIPOS>MOLECULE
*****
 28 32 0 0 0
SMALL
GASTEIGER

@<TRIPOS>ATOM
      1 O           6.9134   -2.3743   17.4045 O.2     1  UNL1       -0.2443
      2 C           6.0256   -2.3817   18.6136 C.ar    1  UNL1        0.3527
      3 N           6.3062   -3.3266   19.7442 N.ar    1  UNL1       -0.1570
      4 C           5.4184   -3.3340   20.9533 C.ar    1  UNL1        0.2303
      5 C           4.2501   -2.3965   21.0317 C.ar    1  UNL1        0.0751
      6 C           3.9696   -1.4516   19.9010 C.ar    1  UNL1        0.0682
      7 N           4.8573   -1.4441   18.6920 N.ar    1  UNL1       -0.2794
      8 C           4.5768   -0.4992   17.5613 C.3     1  UNL1        0.1152
      9 C           3.4085    0.4383   17.6397 C.3     1  UNL1        0.0510
     10 C           2.5207    0.4309   18.8488 C.ar    1  UNL1       -0.0182
     11 C           1.3525    1.3684   18.9272 C.ar    1  UNL1        0.0041
     12 C           0.4647    1.3610   20.1362 C.ar    1  UNL1        0.0413
     13 C           0.7452    0.4161   21.2669 C.ar    1  UNL1        0.0083
     14 C           1.9135   -0.5214   21.1885 C.ar    1  UNL1        0.0017
     15 C           2.8012   -0.5140   19.9794 C.ar    1  UNL1        0.0122
     16 C          -0.7036    2.2986   20.2146 C.1     1  UNL1       -0.0644
     17 C          -1.8719    3.2361   20.2930 C.1     1  UNL1       -0.0874
     18 C          -3.0402    4.1736   20.3714 C.3     1  UNL1        0.0645
     19 C          -4.4062    4.5060   20.8944 C.3     1  UNL1        0.0140
     20 C          -3.6977    5.4650   19.9842 C.3     1  UNL1        0.0140
     21 O           5.6989   -4.2790   22.0840 O.3     1  UNL1       -0.4574
     22 C           7.0063   -4.2059   22.8156 C.3     1  UNL1        0.2390
     23 C           7.3120   -5.1906   23.9051 C.3     1  UNL1        0.1882
     24 C           7.0050   -4.8486   25.3330 C.3     1  UNL1        0.1755
     25 O           7.3107   -5.8332   26.4225 O.3     1  UNL1       -0.3484
     26 C           7.9236   -7.1599   26.0841 C.3     1  UNL1        0.1742
     27 C           8.2307   -7.5018   24.6562 C.3     1  UNL1        0.1743
     28 O           7.9249   -6.5172   23.5668 O.3     1  UNL1       -0.3472
@<TRIPOS>BOND
     1     1     2    2
     2     2     3   ar
     3     3     4   ar
     4     4    21    1
     5    21    22    1
     6    23    22    1
     7    23    24    1
     8    24    25    1
     9    25    26    1
    10    26    27    1
    11    27    28    1
    12     4     5   ar
    13     5     6   ar
    14     6     7   ar
    15     7     8    1
    16     8     9    1
    17     9    10    1
    18    10    11   ar
    19    11    12   ar
    20    12    16    1
    21    16    17    3
    22    17    18    1
    23    18    19    1
    24    19    20    1
    25    12    13   ar
    26    13    14   ar
    27    14    15   ar
    28     7     2   ar
    29    15    10   ar
    30    28    23    1
    31    15     6    1
    32    20    18    1
@<TRIPOS>MOLECULE
*****
 28 32 0 0 0
SMALL
GASTEIGER

@<TRIPOS>ATOM
      1 O           3.9831   -0.9491   16.1997 O.2     1  UNL1       -0.2443
      2 C           3.5234   -0.7889   17.6184 C.ar    1  UNL1        0.3527
      3 N           2.3688    0.1147   17.9352 N.ar    1  UNL1       -0.1570
      4 C           1.9090    0.2749   19.3541 C.ar    1  UNL1        0.2303
      5 C           2.6039   -0.4686   20.4560 C.ar    1  UNL1        0.0751
      6 C           3.7585   -1.3722   20.1393 C.ar    1  UNL1        0.0682
      7 N           4.2182   -1.5324   18.7205 N.ar    1  UNL1       -0.2794
      8 C           5.3728   -2.4360   18.4037 C.3     1  UNL1        0.1152
      9 C           6.0677   -3.1795   19.5057 C.3     1  UNL1        0.0510
     10 C           5.6079   -3.0193   20.9245 C.ar    1  UNL1       -0.0182
     11 C           6.3028   -3.7628   22.0265 C.ar    1  UNL1        0.0041
     12 C           5.8430   -3.6026   23.4453 C.ar    1  UNL1        0.0413
     13 C           4.6884   -2.6990   23.7621 C.ar    1  UNL1        0.0083
     14 C           3.9936   -1.9556   22.6601 C.ar    1  UNL1        0.0017
     15 C           4.4533   -2.1157   21.2413 C.ar    1  UNL1        0.0122
     16 C           6.5379   -4.3461   24.5474 C.1     1  UNL1       -0.0644
     17 C           7.2326   -5.0896   25.6494 C.1     1  UNL1       -0.0874
     18 C           7.9275   -5.8331   26.7515 C.3     1  UNL1        0.0645
     19 C           8.0200   -6.2262   28.1961 C.3     1  UNL1        0.0140
     20 C           9.0385   -6.7276   27.2156 C.3     1  UNL1        0.0140
     21 O           0.7544    1.1785   19.6708 O.3     1  UNL1       -0.4574
     22 C           0.6617    1.8331   21.0173 C.3     1  UNL1        0.2390
     23 C          -0.6006    2.5327   21.4258 C.3     1  UNL1        0.1882
     24 C          -0.7013    3.1677   22.7811 C.3     1  UNL1        0.1755
     25 O          -1.9637    3.8673   23.1896 O.3     1  UNL1       -0.3484
     26 C          -3.1254    3.9319   22.2429 C.3     1  UNL1        0.1742
     27 C          -3.0247    3.2969   20.8877 C.3     1  UNL1        0.1743
     28 O          -1.7624    2.5973   20.4792 O.3     1  UNL1       -0.3472
@<TRIPOS>BOND
     1     1     2    2
     2     2     3   ar
     3     3     4   ar
     4     4    21    1
     5    21    22    1
     6    23    22    1
     7    23    24    1
     8    24    25    1
     9    25    26    1
    10    26    27    1
    11    27    28    1
    12     4     5   ar
    13     5     6   ar
    14     6     7   ar
    15     7     8    1
    16     8     9    1
    17     9    10    1
    18    10    11   ar
    19    11    12   ar
    20    12    16    1
    21    16    17    3
    22    17    18    1
    23    18    19    1
    24    19    20    1
    25    12    13   ar
    26    13    14   ar
    27    14    15   ar
    28     7     2   ar
    29    15    10   ar
    30    28    23    1
    31    15     6    1
    32    20    18    1
@<TRIPOS>MOLECULE
*****
 28 32 0 0 0
SMALL
GASTEIGER

@<TRIPOS>ATOM
      1 O           8.5760   -8.1198   26.1185 O.2     1  UNL1       -0.2443
      2 C           7.9642   -6.7504   26.1363 C.ar    1  UNL1        0.3527
      3 N           7.6264   -6.0630   24.8466 N.ar    1  UNL1       -0.1570
      4 C           7.0146   -4.6936   24.8645 C.ar    1  UNL1        0.2303
      5 C           6.7405   -4.0115   26.1720 C.ar    1  UNL1        0.0751
      6 C           7.0783   -4.6989   27.4617 C.ar    1  UNL1        0.0682
      7 N           7.6902   -6.0683   27.4439 N.ar    1  UNL1       -0.2794
      8 C           8.0280   -6.7557   28.7336 C.3     1  UNL1        0.1152
      9 C           7.7539   -6.0737   30.0412 C.3     1  UNL1        0.0510
     10 C           7.1421   -4.7042   30.0590 C.ar    1  UNL1       -0.0182
     11 C           6.8681   -4.0222   31.3666 C.ar    1  UNL1        0.0041
     12 C           6.2563   -2.6527   31.3844 C.ar    1  UNL1        0.0413
     13 C           5.9185   -1.9654   30.0947 C.ar    1  UNL1        0.0083
     14 C           6.1925   -2.6474   28.7871 C.ar    1  UNL1        0.0017
     15 C           6.8043   -4.0168   28.7693 C.ar    1  UNL1        0.0122
     16 C           5.9823   -1.9706   32.6920 C.1     1  UNL1       -0.0644
     17 C           5.7082   -1.2885   33.9995 C.1     1  UNL1       -0.0874
     18 C           5.4342   -0.6064   35.3071 C.3     1  UNL1        0.0645
     19 C           5.9321   -0.0033   36.5871 C.3     1  UNL1        0.0140
     20 C           4.4617   -0.0281   36.2918 C.3     1  UNL1        0.0140
     21 O           6.6768   -4.0062   23.5747 O.3     1  UNL1       -0.4574
     22 C           5.3003   -3.4506   23.3591 C.3     1  UNL1        0.2390
     23 C           4.7113   -3.4202   21.9799 C.3     1  UNL1        0.1882
     24 C           4.3780   -2.1073   21.3354 C.3     1  UNL1        0.1755
     25 O           3.7891   -2.0769   19.9562 O.3     1  UNL1       -0.3484
     26 C           3.5334   -3.3594   19.2215 C.3     1  UNL1        0.1742
     27 C           3.8667   -4.6723   19.8659 C.3     1  UNL1        0.1743
     28 O           4.4556   -4.7026   21.2451 O.3     1  UNL1       -0.3472
@<TRIPOS>BOND
     1     1     2    2
     2     2     3   ar
     3     3     4   ar
     4     4    21    1
     5    21    22    1
     6    23    22    1
     7    23    24    1
     8    24    25    1
     9    25    26    1
    10    26    27    1
    11    27    28    1
    12     4     5   ar
    13     5     6   ar
    14     6     7   ar
    15     7     8    1
    16     8     9    1
    17     9    10    1
    18    10    11   ar
    19    11    12   ar
    20    12    16    1
    21    16    17    3
    22    17    18    1
    23    18    19    1
    24    19    20    1
    25    12    13   ar
    26    13    14   ar
    27    14    15   ar
    28     7     2   ar
    29    15    10   ar
    30    28    23    1
    31    15     6    1
    32    20    18    1
@<TRIPOS>MOLECULE
*****
 28 32 0 0 0
SMALL
GASTEIGER

@<TRIPOS>ATOM
      1 O           4.5432    0.8029   35.7573 O.2     1  UNL1       -0.2443
      2 C           4.3412    0.0271   34.4895 C.ar    1  UNL1        0.3527
      3 N           5.0105   -1.3032   34.3096 N.ar    1  UNL1       -0.1570
      4 C           4.8085   -2.0791   33.0418 C.ar    1  UNL1        0.2303
      5 C           3.9373   -1.5246   31.9540 C.ar    1  UNL1        0.0751
      6 C           3.2679   -0.1944   32.1339 C.ar    1  UNL1        0.0682
      7 N           3.4699    0.5815   33.4016 N.ar    1  UNL1       -0.2794
      8 C           2.8006    1.9118   33.5815 C.3     1  UNL1        0.1152
      9 C           1.9293    2.4662   32.4937 C.3     1  UNL1        0.0510
     10 C           1.7273    1.6903   31.2258 C.ar    1  UNL1       -0.0182
     11 C           0.8561    2.2448   30.1380 C.ar    1  UNL1        0.0041
     12 C           0.6541    1.4689   28.8702 C.ar    1  UNL1        0.0413
     13 C           1.3234    0.1386   28.6903 C.ar    1  UNL1        0.0083
     14 C           2.1947   -0.4158   29.7782 C.ar    1  UNL1        0.0017
     15 C           2.3966    0.3601   31.0459 C.ar    1  UNL1        0.0122
     16 C          -0.2172    2.0234   27.7823 C.1     1  UNL1       -0.0644
     17 C          -1.0884    2.5778   26.6944 C.1     1  UNL1       -0.0874
     18 C          -1.9597    3.1322   25.6065 C.3     1  UNL1        0.0645
     19 C          -3.2987    3.6163   25.1344 C.3     1  UNL1        0.0140
     20 C          -2.1299    3.6084   24.1943 C.3     1  UNL1        0.0140
     21 O           5.4778   -3.4094   32.8619 O.3     1  UNL1       -0.4574
     22 C           6.7495   -3.5085   32.0726 C.3     1  UNL1        0.2390
     23 C           6.7271   -4.0692   30.6816 C.3     1  UNL1        0.1882
     24 C           7.1204   -5.4968   30.4419 C.3     1  UNL1        0.1755
     25 O           7.0980   -6.0574   29.0508 O.3     1  UNL1       -0.3484
     26 C           6.6822   -5.1905   27.8994 C.3     1  UNL1        0.1742
     27 C           6.2889   -3.7630   28.1391 C.3     1  UNL1        0.1743
     28 O           6.3113   -3.2024   29.5302 O.3     1  UNL1       -0.3472
@<TRIPOS>BOND
     1     1     2    2
     2     2     3   ar
     3     3     4   ar
     4     4    21    1
     5    21    22    1
     6    23    22    1
     7    23    24    1
     8    24    25    1
     9    25    26    1
    10    26    27    1
    11    27    28    1
    12     4     5   ar
    13     5     6   ar
    14     6     7   ar
    15     7     8    1
    16     8     9    1
    17     9    10    1
    18    10    11   ar
    19    11    12   ar
    20    12    16    1
    21    16    17    3
    22    17    18    1
    23    18    19    1
    24    19    20    1
    25    12    13   ar
    26    13    14   ar
    27    14    15   ar
    28     7     2   ar
    29    15    10   ar
    30    28    23    1
    31    15     6    1
    32    20    18    1
@<TRIPOS>MOLECULE
*****
 28 32 0 0 0
SMALL
GASTEIGER

@<TRIPOS>ATOM
      1 O           5.2908   -2.5288   17.4840 O.2     1  UNL1       -0.2443
      2 C           5.2568   -2.5986   18.9819 C.ar    1  UNL1        0.3527
      3 N           6.1781   -3.5317   19.7104 N.ar    1  UNL1       -0.1570
      4 C           6.1441   -3.6015   21.2084 C.ar    1  UNL1        0.2303
      5 C           5.1889   -2.7381   21.9779 C.ar    1  UNL1        0.0751
      6 C           4.2677   -1.8050   21.2495 C.ar    1  UNL1        0.0682
      7 N           4.3016   -1.7352   19.7516 N.ar    1  UNL1       -0.2794
      8 C           3.3804   -0.8021   19.0231 C.3     1  UNL1        0.1152
      9 C           2.4252    0.0612   19.7926 C.3     1  UNL1        0.0510
     10 C           2.3912   -0.0085   21.2907 C.ar    1  UNL1       -0.0182
     11 C           1.4360    0.8548   22.0602 C.ar    1  UNL1        0.0041
     12 C           1.4021    0.7851   23.5582 C.ar    1  UNL1        0.0413
     13 C           2.3233   -0.1481   24.2866 C.ar    1  UNL1        0.0083
     14 C           3.2785   -1.0114   23.5171 C.ar    1  UNL1        0.0017
     15 C           3.3124   -0.9416   22.0191 C.ar    1  UNL1        0.0122
     16 C           0.4468    1.6484   24.3278 C.1     1  UNL1       -0.0644
     17 C          -0.5084    2.5117   25.0973 C.1     1  UNL1       -0.0874
     18 C          -1.4636    3.3751   25.8669 C.3     1  UNL1        0.0645
     19 C          -1.7604    4.6485   26.6021 C.3     1  UNL1        0.0140
     20 C          -2.8213    3.5970   26.4648 C.3     1  UNL1        0.0140
     21 O           7.0653   -4.5346   21.9369 O.3     1  UNL1       -0.4574
     22 C           7.5138   -4.2093   23.3308 C.3     1  UNL1        0.2390
     23 C           7.4671   -5.2619   24.3985 C.3     1  UNL1        0.1882
     24 C           6.8615   -4.9486   25.7346 C.3     1  UNL1        0.1755
     25 O           6.8149   -6.0011   26.8022 O.3     1  UNL1       -0.3484
     26 C           7.3739   -7.3670   26.5338 C.3     1  UNL1        0.1742
     27 C           7.9795   -7.6802   25.1978 C.3     1  UNL1        0.1743
     28 O           8.0261   -6.6277   24.1301 O.3     1  UNL1       -0.3472
@<TRIPOS>BOND
     1     1     2    2
     2     2     3   ar
     3     3     4   ar
     4     4    21    1
     5    21    22    1
     6    23    22    1
     7    23    24    1
     8    24    25    1
     9    25    26    1
    10    26    27    1
    11    27    28    1
    12     4     5   ar
    13     5     6   ar
    14     6     7   ar
    15     7     8    1
    16     8     9    1
    17     9    10    1
    18    10    11   ar
    19    11    12   ar
    20    12    16    1
    21    16    17    3
    22    17    18    1
    23    18    19    1
    24    19    20    1
    25    12    13   ar
    26    13    14   ar
    27    14    15   ar
    28     7     2   ar
    29    15    10   ar
    30    28    23    1
    31    15     6    1
    32    20    18    1
@<TRIPOS>MOLECULE
*****
 28 32 0 0 0
SMALL
GASTEIGER

@<TRIPOS>ATOM
      1 O           7.3740    0.6421   16.7911 O.2     1  UNL1       -0.2443
      2 C           6.2447   -0.1402   17.3933 C.ar    1  UNL1        0.3527
      3 N           6.3305   -1.6352   17.4801 N.ar    1  UNL1       -0.1570
      4 C           5.2011   -2.4175   18.0823 C.ar    1  UNL1        0.2303
      5 C           3.9861   -1.7048   18.5977 C.ar    1  UNL1        0.0751
      6 C           3.9003   -0.2097   18.5109 C.ar    1  UNL1        0.0682
      7 N           5.0296    0.5726   17.9088 N.ar    1  UNL1       -0.2794
      8 C           4.9439    2.0676   17.8220 C.3     1  UNL1        0.1152
      9 C           3.7289    2.7803   18.3374 C.3     1  UNL1        0.0510
     10 C           2.5995    1.9981   18.9396 C.ar    1  UNL1       -0.0182
     11 C           1.3845    2.7108   19.4550 C.ar    1  UNL1        0.0041
     12 C           0.2552    1.9285   20.0572 C.ar    1  UNL1        0.0413
     13 C           0.3409    0.4335   20.1440 C.ar    1  UNL1        0.0083
     14 C           1.5560   -0.2793   19.6286 C.ar    1  UNL1        0.0017
     15 C           2.6852    0.5030   19.0264 C.ar    1  UNL1        0.0122
     16 C          -0.9599    2.6412   20.5727 C.1     1  UNL1       -0.0644
     17 C          -2.1749    3.3539   21.0881 C.1     1  UNL1       -0.0874
     18 C          -3.3900    4.0667   21.6035 C.3     1  UNL1        0.0645
     19 C          -4.6405    4.0697   22.4319 C.3     1  UNL1        0.0140
     20 C          -4.2441    5.2981   21.6678 C.3     1  UNL1        0.0140
     21 O           5.2868   -3.9125   18.1691 O.3     1  UNL1       -0.4574
     22 C           4.7059   -4.6297   19.3515 C.3     1  UNL1        0.2390
     23 C           5.1633   -4.2837   20.7375 C.3     1  UNL1        0.1882
     24 C           4.1651   -3.8541   21.7714 C.3     1  UNL1        0.1755
     25 O           4.6225   -3.5081   23.1574 O.3     1  UNL1       -0.3484
     26 C           6.0782   -3.5917   23.5095 C.3     1  UNL1        0.1742
     27 C           7.0764   -4.0213   22.4757 C.3     1  UNL1        0.1743
     28 O           6.6190   -4.3673   21.0896 O.3     1  UNL1       -0.3472
@<TRIPOS>BOND
     1     1     2    2
     2     2     3   ar
     3     3     4   ar
     4     4    21    1
     5    21    22    1
     6    23    22    1
     7    23    24    1
     8    24    25    1
     9    25    26    1
    10    26    27    1
    11    27    28    1
    12     4     5   ar
    13     5     6   ar
    14     6     7   ar
    15     7     8    1
    16     8     9    1
    17     9    10    1
    18    10    11   ar
    19    11    12   ar
    20    12    16    1
    21    16    17    3
    22    17    18    1
    23    18    19    1
    24    19    20    1
    25    12    13   ar
    26    13    14   ar
    27    14    15   ar
    28     7     2   ar
    29    15    10   ar
    30    28    23    1
    31    15     6    1
    32    20    18    1
@<TRIPOS>MOLECULE
*****
 28 32 0 0 0
SMALL
GASTEIGER

@<TRIPOS>ATOM
      1 O           0.8835    0.5452   18.1745 O.2     1  UNL1       -0.2443
      2 C           1.1864    0.6432   19.6403 C.ar    1  UNL1        0.3527
      3 N           0.5367    1.7101   20.4708 N.ar    1  UNL1       -0.1570
      4 C           0.8396    1.8080   21.9366 C.ar    1  UNL1        0.2303
      5 C           1.7923    0.8392   22.5720 C.ar    1  UNL1        0.0751
      6 C           2.4420   -0.2277   21.7415 C.ar    1  UNL1        0.0682
      7 N           2.1391   -0.3257   20.2757 N.ar    1  UNL1       -0.2794
      8 C           2.7889   -1.3925   19.4452 C.3     1  UNL1        0.1152
      9 C           3.7415   -2.3614   20.0806 C.3     1  UNL1        0.0510
     10 C           4.0445   -2.2634   21.5464 C.ar    1  UNL1       -0.0182
     11 C           4.9971   -3.2323   22.1818 C.ar    1  UNL1        0.0041
     12 C           5.3001   -3.1343   23.6476 C.ar    1  UNL1        0.0413
     13 C           4.6503   -2.0675   24.4780 C.ar    1  UNL1        0.0083
     14 C           3.6977   -1.0986   23.8427 C.ar    1  UNL1        0.0017
     15 C           3.3947   -1.1966   22.3769 C.ar    1  UNL1        0.0122
     16 C           6.2528   -4.1032   24.2830 C.1     1  UNL1       -0.0644
     17 C           7.2054   -5.0721   24.9183 C.1     1  UNL1       -0.0874
     18 C           8.1581   -6.0410   25.5537 C.3     1  UNL1        0.0645
     19 C           9.0614   -6.4188   26.6901 C.3     1  UNL1        0.0140
     20 C           8.9049   -7.3413   25.5179 C.3     1  UNL1        0.0140
     21 O           0.1899    2.8749   22.7671 O.3     1  UNL1       -0.4574
     22 C          -0.8288    3.7879   22.1518 C.3     1  UNL1        0.2390
     23 C          -2.2852    3.6021   22.4590 C.3     1  UNL1        0.1882
     24 C          -2.7667    3.6678   23.8781 C.3     1  UNL1        0.1755
     25 O          -4.2231    3.4820   24.1853 O.3     1  UNL1       -0.3484
     26 C          -5.1980    3.2305   23.0733 C.3     1  UNL1        0.1742
     27 C          -4.7165    3.1649   21.6542 C.3     1  UNL1        0.1743
     28 O          -3.2601    3.3507   21.3471 O.3     1  UNL1       -0.3472
@<TRIPOS>BOND
     1     1     2    2
     2     2     3   ar
     3     3     4   ar
     4     4    21    1
     5    21    22    1
     6    23    22    1
     7    23    24    1
     8    24    25    1
     9    25    26    1
    10    26    27    1
    11    27    28    1
    12     4     5   ar
    13     5     6   ar
    14     6     7   ar
    15     7     8    1
    16     8     9    1
    17     9    10    1
    18    10    11   ar
    19    11    12   ar
    20    12    16    1
    21    16    17    3
    22    17    18    1
    23    18    19    1
    24    19    20    1
    25    12    13   ar
    26    13    14   ar
    27    14    15   ar
    28     7     2   ar
    29    15    10   ar
    30    28    23    1
    31    15     6    1
    32    20    18    1
@<TRIPOS>MOLECULE
*****
 28 32 0 0 0
SMALL
GASTEIGER

@<TRIPOS>ATOM
      1 O           7.5653   -5.1068   21.5335 O.2     1  UNL1       -0.2443
      2 C           6.9061   -4.1821   22.5134 C.ar    1  UNL1        0.3527
      3 N           7.3689   -4.1472   23.9398 N.ar    1  UNL1       -0.1570
      4 C           6.7097   -3.2224   24.9198 C.ar    1  UNL1        0.2303
      5 C           5.5878   -2.3325   24.4733 C.ar    1  UNL1        0.0751
      6 C           5.1250   -2.3674   23.0470 C.ar    1  UNL1        0.0682
      7 N           5.7841   -3.2921   22.0670 N.ar    1  UNL1       -0.2794
      8 C           5.3213   -3.3270   20.6406 C.3     1  UNL1        0.1152
      9 C           4.1994   -2.4372   20.1942 C.3     1  UNL1        0.0510
     10 C           3.5402   -1.5124   21.1741 C.ar    1  UNL1       -0.0182
     11 C           2.4182   -0.6225   20.7277 C.ar    1  UNL1        0.0041
     12 C           1.7591    0.3022   21.7076 C.ar    1  UNL1        0.0413
     13 C           2.2219    0.3371   23.1340 C.ar    1  UNL1        0.0083
     14 C           3.3438   -0.5528   23.5805 C.ar    1  UNL1        0.0017
     15 C           4.0030   -1.4775   22.6005 C.ar    1  UNL1        0.0122
     16 C           0.6371    1.1922   21.2612 C.1     1  UNL1       -0.0644
     17 C          -0.4849    2.0820   20.8149 C.1     1  UNL1       -0.0874
     18 C          -1.6069    2.9720   20.3684 C.3     1  UNL1        0.0645
     19 C          -3.0520    3.3697   20.4282 C.3     1  UNL1        0.0140
     20 C          -2.1051    4.1156   19.5355 C.3     1  UNL1        0.0140
     21 O           7.1725   -3.1875   26.3462 O.3     1  UNL1       -0.4574
     22 C           6.1684   -3.1820   27.4605 C.3     1  UNL1        0.2390
     23 C           6.4642   -3.9067   28.7401 C.3     1  UNL1        0.1882
     24 C           6.7724   -5.3746   28.7168 C.3     1  UNL1        0.1755
     25 O           7.0682   -6.0992   29.9964 O.3     1  UNL1       -0.3484
     26 C           7.0557   -5.3560   31.2993 C.3     1  UNL1        0.1742
     27 C           6.7475   -3.8883   31.3226 C.3     1  UNL1        0.1743
     28 O           6.4517   -3.1636   30.0430 O.3     1  UNL1       -0.3472
@<TRIPOS>BOND
     1     1     2    2
     2     2     3   ar
     3     3     4   ar
     4     4    21    1
     5    21    22    1
     6    23    22    1
     7    23    24    1
     8    24    25    1
     9    25    26    1
    10    26    27    1
    11    27    28    1
    12     4     5   ar
    13     5     6   ar
    14     6     7   ar
    15     7     8    1
    16     8     9    1
    17     9    10    1
    18    10    11   ar
    19    11    12   ar
    20    12    16    1
    21    16    17    3
    22    17    18    1
    23    18    19    1
    24    19    20    1
    25    12    13   ar
    26    13    14   ar
    27    14    15   ar
    28     7     2   ar
    29    15    10   ar
    30    28    23    1
    31    15     6    1
    32    20    18    1
@<TRIPOS>MOLECULE
*****
 28 32 0 0 0
SMALL
GASTEIGER

@<TRIPOS>ATOM
      1 O           7.2494   -4.8689   20.9700 O.2     1  UNL1       -0.2443
      2 C           6.1428   -3.8626   20.8571 C.ar    1  UNL1        0.3527
      3 N           5.5528   -3.5440   19.5153 N.ar    1  UNL1       -0.1570
      4 C           4.4462   -2.5376   19.4024 C.ar    1  UNL1        0.2303
      5 C           3.9296   -1.8499   20.6313 C.ar    1  UNL1        0.0751
      6 C           4.5196   -2.1685   21.9731 C.ar    1  UNL1        0.0682
      7 N           5.6262   -3.1748   22.0860 N.ar    1  UNL1       -0.2794
      8 C           6.2162   -3.4934   23.4278 C.3     1  UNL1        0.1152
      9 C           5.6996   -2.8057   24.6566 C.3     1  UNL1        0.0510
     10 C           4.5930   -1.7993   24.5438 C.ar    1  UNL1       -0.0182
     11 C           4.0764   -1.1116   25.7726 C.ar    1  UNL1        0.0041
     12 C           2.9698   -0.1053   25.6597 C.ar    1  UNL1        0.0413
     13 C           2.3798    0.2133   24.3179 C.ar    1  UNL1        0.0083
     14 C           2.8964   -0.4744   23.0890 C.ar    1  UNL1        0.0017
     15 C           4.0030   -1.4807   23.2020 C.ar    1  UNL1        0.0122
     16 C           2.4532    0.5825   26.8886 C.1     1  UNL1       -0.0644
     17 C           1.9366    1.2702   28.1175 C.1     1  UNL1       -0.0874
     18 C           1.4200    1.9580   29.3464 C.3     1  UNL1        0.0645
     19 C           0.6361    1.9184   30.6246 C.3     1  UNL1        0.0140
     20 C           1.3091    3.1887   30.1965 C.3     1  UNL1        0.0140
     21 O           3.8562   -2.2190   18.0606 O.3     1  UNL1       -0.4574
     22 C           4.0908   -0.8746   17.4382 C.3     1  UNL1        0.2390
     23 C           3.3175    0.3185   17.9164 C.3     1  UNL1        0.1882
     24 C           4.0403    1.5746   18.3038 C.3     1  UNL1        0.1755
     25 O           3.2670    2.7676   18.7819 O.3     1  UNL1       -0.3484
     26 C           1.7710    2.7046   18.8726 C.3     1  UNL1        0.1742
     27 C           1.0484    1.4486   18.4852 C.3     1  UNL1        0.1743
     28 O           1.8216    0.2555   18.0071 O.3     1  UNL1       -0.3472
@<TRIPOS>BOND
     1     1     2    2
     2     2     3   ar
     3     3     4   ar
     4     4    21    1
     5    21    22    1
     6    23    22    1
     7    23    24    1
     8    24    25    1
     9    25    26    1
    10    26    27    1
    11    27    28    1
    12     4     5   ar
    13     5     6   ar
    14     6     7   ar
    15     7     8    1
    16     8     9    1
    17     9    10    1
    18    10    11   ar
    19    11    12   ar
    20    12    16    1
    21    16    17    3
    22    17    18    1
    23    18    19    1
    24    19    20    1
    25    12    13   ar
    26    13    14   ar
    27    14    15   ar
    28     7     2   ar
    29    15    10   ar
    30    28    23    1
    31    15     6    1
    32    20    18    1
