@<TRIPOS>MOLECULE
*****
 28 31 0 0 0
SMALL
GASTEIGER

@<TRIPOS>ATOM
      1 C          -1.6961    3.5316   21.6127 C.ar    1  UNL1        0.0927
      2 C          -0.5932    4.5451   21.5321 C.ar    1  UNL1        0.0573
      3 S           0.3246    4.1436   20.4157 S.2     1  UNL1       -0.0509
      4 C          -0.2111    2.8819   19.8062 C.ar    1  UNL1        0.1635
      5 N          -1.4600    2.5038   20.5460 N.ar    1  UNL1       -0.2239
      6 C          -4.2407    3.3466   22.1034 C.ar    1  UNL1        0.1401
      7 C          -5.3797    3.3589   23.0794 C.ar    1  UNL1        0.0375
      8 C          -5.1131    3.5684   24.5406 C.ar    1  UNL1        0.0098
      9 C          -3.7076    3.7656   25.0258 C.ar    1  UNL1        0.0348
     10 BR         -3.4411    3.9751   26.4870 Br      1  UNL1       -0.0490
     11 C          -2.5686    3.7534   24.0499 C.ar    1  UNL1        0.0112
     12 C          -2.8352    3.5439   22.5887 C.ar    1  UNL1        0.0527
     13 C          -5.6949    3.7864   19.9959 C.3     1  UNL1        0.2525
     14 O          -4.5072    3.1371   20.6422 O.3     1  UNL1       -0.4714
     15 N           0.3955    2.1305   18.6585 N.pl3   1  UNL1       -0.2927
     16 H           0.1841    2.3909   17.7329 H       1  UNL1        0.1541
     17 C           1.3242    0.9822   18.9210 C.ar    1  UNL1        0.0498
     18 C           2.6227    0.8825   18.1767 C.ar    1  UNL1        0.0161
     19 C           3.5513   -0.2658   18.4392 C.ar    1  UNL1        0.0188
     20 C           3.1815   -1.3143   19.4460 C.ar    1  UNL1        0.0656
     21 C           1.8831   -1.2146   20.1903 C.ar    1  UNL1        0.0188
     22 C           0.9544   -0.0664   19.9278 C.ar    1  UNL1        0.0161
     23 N           4.1102   -2.4627   19.7086 N.ar    1  UNL1       -0.2868
     24 C           3.8021   -3.9141   19.4883 C.ar    1  UNL1        0.1825
     25 N           5.0115   -4.7095   19.8811 N.ar    1  UNL1       -0.2280
     26 C           6.0672   -3.7499   20.3442 C.ar    1  UNL1        0.0786
     27 C           7.4391   -4.1148   20.8289 C.3     1  UNL1        0.0538
     28 C           5.5102   -2.3612   20.2376 C.ar    1  UNL1        0.0962
@<TRIPOS>BOND
     1    13    14    1
     2    14     6    1
     3     6     7   ar
     4     7     8   ar
     5     8     9   ar
     6     9    10    1
     7     9    11   ar
     8    11    12   ar
     9    12     1    1
    10     1     2   ar
    11     2     3   ar
    12     3     4   ar
    13     4    15    1
    14    15    17    1
    15    17    18   ar
    16    18    19   ar
    17    19    20   ar
    18    20    23    1
    19    23    24   ar
    20    24    25   ar
    21    25    26   ar
    22    26    27    1
    23    26    28   ar
    24    20    21   ar
    25    21    22   ar
    26     4     5   ar
    27    12     6   ar
    28     5     1   ar
    29    22    17   ar
    30    28    23   ar
    31    15    16    1
@<TRIPOS>MOLECULE
*****
 28 31 0 0 0
SMALL
GASTEIGER

@<TRIPOS>ATOM
      1 C          -1.8453    3.6834   21.8558 C.ar    1  UNL1        0.0927
      2 C          -0.6553    4.5957   21.8184 C.ar    1  UNL1        0.0573
      3 S           0.2290    4.1579   20.6886 S.2     1  UNL1       -0.0509
      4 C          -0.4145    2.9750   20.0278 C.ar    1  UNL1        0.1635
      5 N          -1.6965    2.6817   20.7492 N.ar    1  UNL1       -0.2239
      6 C          -2.7226    3.6363   24.3009 C.ar    1  UNL1        0.1401
      7 C          -3.8615    3.7122   25.2740 C.ar    1  UNL1        0.0375
      8 C          -5.2621    3.9111   24.7753 C.ar    1  UNL1        0.0098
      9 C          -5.5238    4.0341   23.3035 C.ar    1  UNL1        0.0348
     10 BR         -6.9244    4.2331   22.8048 Br      1  UNL1       -0.0490
     11 C          -4.3849    3.9582   22.3304 C.ar    1  UNL1        0.0112
     12 C          -2.9843    3.7593   22.8291 C.ar    1  UNL1        0.0527
     13 C          -0.9851    2.2341   25.6293 C.3     1  UNL1        0.2525
     14 O          -1.3219    3.4374   24.7996 O.3     1  UNL1       -0.4714
     15 N           0.1286    2.2183   18.8521 N.pl3   1  UNL1       -0.2927
     16 H          -0.1335    2.4742   17.9382 H       1  UNL1        0.1541
     17 C           1.0711    1.0717   19.0686 C.ar    1  UNL1        0.0498
     18 C           0.7982    0.0708   20.1521 C.ar    1  UNL1        0.0161
     19 C           1.7407   -1.0758   20.3686 C.ar    1  UNL1        0.0188
     20 C           2.9562   -1.2215   19.5017 C.ar    1  UNL1        0.0656
     21 C           3.2291   -0.2207   18.4183 C.ar    1  UNL1        0.0188
     22 C           2.2865    0.9259   18.2018 C.ar    1  UNL1        0.0161
     23 N           3.8988   -2.3682   19.7182 N.ar    1  UNL1       -0.2868
     24 C           3.6236   -3.8080   19.3999 C.ar    1  UNL1        0.1825
     25 N           4.8367   -4.6058   19.7760 N.ar    1  UNL1       -0.2280
     26 C           5.8617   -3.6593   20.3268 C.ar    1  UNL1        0.0786
     27 C           7.2267   -4.0305   20.8258 C.3     1  UNL1        0.0538
     28 C           5.2820   -2.2763   20.2911 C.ar    1  UNL1        0.0962
@<TRIPOS>BOND
     1    13    14    1
     2    14     6    1
     3     6     7   ar
     4     7     8   ar
     5     8     9   ar
     6     9    10    1
     7     9    11   ar
     8    11    12   ar
     9    12     1    1
    10     1     2   ar
    11     2     3   ar
    12     3     4   ar
    13     4    15    1
    14    15    17    1
    15    17    18   ar
    16    18    19   ar
    17    19    20   ar
    18    20    23    1
    19    23    24   ar
    20    24    25   ar
    21    25    26   ar
    22    26    27    1
    23    26    28   ar
    24    20    21   ar
    25    21    22   ar
    26     4     5   ar
    27    12     6   ar
    28     5     1   ar
    29    22    17   ar
    30    28    23   ar
    31    15    16    1
@<TRIPOS>MOLECULE
*****
 28 31 0 0 0
SMALL
GASTEIGER

@<TRIPOS>ATOM
      1 C           7.0851   -4.0224   21.8056 C.ar    1  UNL1        0.0927
      2 C           8.0460   -3.1202   21.0896 C.ar    1  UNL1        0.0573
      3 S           7.3758   -2.6258   19.8420 S.2     1  UNL1       -0.0509
      4 C           6.0006   -3.2225   19.7869 C.ar    1  UNL1        0.1635
      5 N           5.8210   -4.0856   21.0005 N.ar    1  UNL1       -0.2239
      6 C           6.6339   -4.3039   24.3487 C.ar    1  UNL1        0.1401
      7 C           6.8917   -5.0177   25.6425 C.ar    1  UNL1        0.0375
      8 C           7.8587   -6.1635   25.6872 C.ar    1  UNL1        0.0098
      9 C           8.5677   -6.5957   24.4380 C.ar    1  UNL1        0.0348
     10 BR          9.5347   -7.7416   24.4827 Br      1  UNL1       -0.0490
     11 C           8.3099   -5.8820   23.1442 C.ar    1  UNL1        0.0112
     12 C           7.3429   -4.7361   23.0995 C.ar    1  UNL1        0.0527
     13 C           5.7459   -2.0695   25.3329 C.3     1  UNL1        0.2525
     14 O           5.6669   -3.1581   24.3040 O.3     1  UNL1       -0.4714
     15 N           4.9838   -2.9958   18.7078 N.pl3   1  UNL1       -0.2927
     16 H           4.9940   -3.5538   17.8968 H       1  UNL1        0.1541
     17 C           3.9514   -1.9190   18.8644 C.ar    1  UNL1        0.0498
     18 C           3.1031   -1.8672   20.1005 C.ar    1  UNL1        0.0161
     19 C           2.0708   -0.7904   20.2570 C.ar    1  UNL1        0.0188
     20 C           1.8866    0.2347   19.1775 C.ar    1  UNL1        0.0656
     21 C           2.7347    0.1829   17.9415 C.ar    1  UNL1        0.0188
     22 C           3.7671   -0.8940   17.7849 C.ar    1  UNL1        0.0161
     23 N           0.8541    1.3116   19.3340 N.ar    1  UNL1       -0.2868
     24 C           0.5359    2.3805   18.3309 C.ar    1  UNL1        0.1825
     25 N          -0.5562    3.2380   18.8982 N.ar    1  UNL1       -0.2280
     26 C          -0.9129    2.6993   20.2518 C.ar    1  UNL1        0.0786
     27 C          -1.9578    3.2538   21.1741 C.3     1  UNL1        0.0538
     28 C          -0.0413    1.5087   20.5212 C.ar    1  UNL1        0.0962
@<TRIPOS>BOND
     1    13    14    1
     2    14     6    1
     3     6     7   ar
     4     7     8   ar
     5     8     9   ar
     6     9    10    1
     7     9    11   ar
     8    11    12   ar
     9    12     1    1
    10     1     2   ar
    11     2     3   ar
    12     3     4   ar
    13     4    15    1
    14    15    17    1
    15    17    18   ar
    16    18    19   ar
    17    19    20   ar
    18    20    23    1
    19    23    24   ar
    20    24    25   ar
    21    25    26   ar
    22    26    27    1
    23    26    28   ar
    24    20    21   ar
    25    21    22   ar
    26     4     5   ar
    27    12     6   ar
    28     5     1   ar
    29    22    17   ar
    30    28    23   ar
    31    15    16    1
@<TRIPOS>MOLECULE
*****
 28 31 0 0 0
SMALL
GASTEIGER

@<TRIPOS>ATOM
      1 C          -9.1876  -16.4128   24.0025 C.ar    1  UNL1        0.0927
      2 C          -9.3108  -15.6740   25.3021 C.ar    1  UNL1        0.0573
      3 S          -7.9318  -15.4878   25.8620 S.2     1  UNL1       -0.0509
      4 C          -6.9562  -16.1115   24.9084 C.ar    1  UNL1        0.1635
      5 N          -7.7324  -16.6832   23.7592 N.ar    1  UNL1       -0.2239
      6 C         -11.2681  -17.8946   23.5270 C.ar    1  UNL1        0.1401
      7 C         -12.4011  -18.2930   22.6284 C.ar    1  UNL1        0.0375
      8 C         -12.5867  -17.6082   21.3068 C.ar    1  UNL1        0.0098
      9 C         -11.6393  -16.5250   20.8838 C.ar    1  UNL1        0.0348
     10 BR        -11.8249  -15.8402   19.5622 Br      1  UNL1       -0.0490
     11 C         -10.5063  -16.1265   21.7824 C.ar    1  UNL1        0.0112
     12 C         -10.3207  -16.8113   23.1039 C.ar    1  UNL1        0.0527
     13 C         -10.2233  -19.8052   24.9440 C.3     1  UNL1        0.2525
     14 O         -11.0825  -18.5794   24.8486 O.3     1  UNL1       -0.4714
     15 N          -5.4661  -16.1558   25.0749 N.pl3   1  UNL1       -0.2927
     16 H          -5.0628  -15.9619   25.9518 H       1  UNL1        0.1541
     17 C          -4.5906  -16.4955   23.9052 C.ar    1  UNL1        0.0498
     18 C          -3.9610  -15.4001   23.0966 C.ar    1  UNL1        0.0161
     19 C          -3.0855  -15.7398   21.9270 C.ar    1  UNL1        0.0188
     20 C          -2.8396  -17.1748   21.5660 C.ar    1  UNL1        0.0656
     21 C          -3.4692  -18.2701   22.3746 C.ar    1  UNL1        0.0188
     22 C          -4.3447  -17.9304   23.5442 C.ar    1  UNL1        0.0161
     23 N          -1.9640  -17.5145   20.3963 N.ar    1  UNL1       -0.2868
     24 C          -0.5354  -17.9663   20.4661 C.ar    1  UNL1        0.1825
     25 N          -0.0519  -18.1931   19.0645 N.ar    1  UNL1       -0.2280
     26 C          -1.1817  -17.8814   18.1283 C.ar    1  UNL1        0.0786
     27 C          -1.1375  -17.9731   16.6317 C.3     1  UNL1        0.0538
     28 C          -2.3635  -17.4620   18.9514 C.ar    1  UNL1        0.0962
@<TRIPOS>BOND
     1    13    14    1
     2    14     6    1
     3     6     7   ar
     4     7     8   ar
     5     8     9   ar
     6     9    10    1
     7     9    11   ar
     8    11    12   ar
     9    12     1    1
    10     1     2   ar
    11     2     3   ar
    12     3     4   ar
    13     4    15    1
    14    15    17    1
    15    17    18   ar
    16    18    19   ar
    17    19    20   ar
    18    20    23    1
    19    23    24   ar
    20    24    25   ar
    21    25    26   ar
    22    26    27    1
    23    26    28   ar
    24    20    21   ar
    25    21    22   ar
    26     4     5   ar
    27    12     6   ar
    28     5     1   ar
    29    22    17   ar
    30    28    23   ar
    31    15    16    1
@<TRIPOS>MOLECULE
*****
 28 31 0 0 0
SMALL
GASTEIGER

@<TRIPOS>ATOM
      1 C           3.9108   -2.0570   19.8988 C.ar    1  UNL1        0.0927
      2 C           3.6548   -3.4459   19.3934 C.ar    1  UNL1        0.0573
      3 S           4.8424   -4.2928   19.7435 S.2     1  UNL1       -0.0509
      4 C           5.8323   -3.4272   20.4653 C.ar    1  UNL1        0.1635
      5 N           5.2565   -2.0455   20.5613 N.ar    1  UNL1       -0.2239
      6 C           2.8430   -0.1870   18.4452 C.ar    1  UNL1        0.1401
      7 C           1.9160    0.9846   18.3116 C.ar    1  UNL1        0.0375
      8 C           1.1297    1.4579   19.4981 C.ar    1  UNL1        0.0098
      9 C           1.2705    0.7597   20.8182 C.ar    1  UNL1        0.0348
     10 BR          0.4842    1.2330   22.0047 Br      1  UNL1       -0.0490
     11 C           2.1975   -0.4120   20.9517 C.ar    1  UNL1        0.0112
     12 C           2.9837   -0.8853   19.7652 C.ar    1  UNL1        0.0527
     13 C           4.9861   -0.0850   16.9802 C.3     1  UNL1        0.2525
     14 O           3.6292   -0.6604   17.2587 O.3     1  UNL1       -0.4714
     15 N           7.1641   -3.8664   20.9976 N.pl3   1  UNL1       -0.2927
     16 H           7.9571   -3.8497   20.4145 H       1  UNL1        0.1541
     17 C           7.2877   -4.3308   22.4186 C.ar    1  UNL1        0.0498
     18 C           8.2833   -5.3944   22.7761 C.ar    1  UNL1        0.0161
     19 C           8.4068   -5.8587   24.1970 C.ar    1  UNL1        0.0188
     20 C           7.5348   -5.2597   25.2603 C.ar    1  UNL1        0.0656
     21 C           6.5393   -4.1962   24.9028 C.ar    1  UNL1        0.0188
     22 C           6.4157   -3.7317   23.4819 C.ar    1  UNL1        0.0161
     23 N           7.6584   -5.7241   26.6814 N.ar    1  UNL1       -0.2868
     24 C           8.4860   -6.8788   27.1628 C.ar    1  UNL1        0.1825
     25 N           8.3150   -6.9836   28.6493 N.ar    1  UNL1       -0.2280
     26 C           7.3818   -5.8938   29.0866 C.ar    1  UNL1        0.0786
     27 C           6.9332   -5.6289   30.4932 C.3     1  UNL1        0.0538
     28 C           6.9759   -5.1153   27.8704 C.ar    1  UNL1        0.0962
@<TRIPOS>BOND
     1    13    14    1
     2    14     6    1
     3     6     7   ar
     4     7     8   ar
     5     8     9   ar
     6     9    10    1
     7     9    11   ar
     8    11    12   ar
     9    12     1    1
    10     1     2   ar
    11     2     3   ar
    12     3     4   ar
    13     4    15    1
    14    15    17    1
    15    17    18   ar
    16    18    19   ar
    17    19    20   ar
    18    20    23    1
    19    23    24   ar
    20    24    25   ar
    21    25    26   ar
    22    26    27    1
    23    26    28   ar
    24    20    21   ar
    25    21    22   ar
    26     4     5   ar
    27    12     6   ar
    28     5     1   ar
    29    22    17   ar
    30    28    23   ar
    31    15    16    1
@<TRIPOS>MOLECULE
*****
 28 31 0 0 0
SMALL
GASTEIGER

@<TRIPOS>ATOM
      1 C           7.1832   -2.7915   20.1592 C.ar    1  UNL1        0.0927
      2 C           8.6056   -2.5056   19.7785 C.ar    1  UNL1        0.0573
      3 S           9.4570   -3.6302   20.2887 S.2     1  UNL1       -0.0509
      4 C           8.5608   -4.6112   20.9848 C.ar    1  UNL1        0.1635
      5 N           7.1555   -4.0929   20.9048 N.ar    1  UNL1       -0.2239
      6 C           4.9102   -2.4404   18.9507 C.ar    1  UNL1        0.1401
      7 C           3.7238   -1.5766   18.6404 C.ar    1  UNL1        0.0375
      8 C           3.6238   -0.2003   19.2284 C.ar    1  UNL1        0.0098
      9 C           4.7102    0.3122   20.1267 C.ar    1  UNL1        0.0348
     10 BR          4.6102    1.6886   20.7147 Br      1  UNL1       -0.0490
     11 C           5.8966   -0.5515   20.4369 C.ar    1  UNL1        0.0112
     12 C           5.9966   -1.9278   19.8489 C.ar    1  UNL1        0.0527
     13 C           4.2307   -4.9479   18.9647 C.3     1  UNL1        0.2525
     14 O           5.0103   -3.8167   18.3627 O.3     1  UNL1       -0.4714
     15 N           8.9939   -5.8866   21.6450 N.pl3   1  UNL1       -0.2927
     16 H           9.3356   -6.6317   21.0999 H       1  UNL1        0.1541
     17 C           8.9062   -6.0266   23.1359 C.ar    1  UNL1        0.0498
     18 C           8.5616   -7.3531   23.7457 C.ar    1  UNL1        0.0161
     19 C           8.4740   -7.4931   25.2365 C.ar    1  UNL1        0.0188
     20 C           8.7309   -6.3067   26.1176 C.ar    1  UNL1        0.0656
     21 C           9.0755   -4.9803   25.5079 C.ar    1  UNL1        0.0188
     22 C           9.1631   -4.8402   24.0170 C.ar    1  UNL1        0.0161
     23 N           8.6433   -6.4467   27.6085 N.ar    1  UNL1       -0.2868
     24 C           9.5289   -7.2998   28.4676 C.ar    1  UNL1        0.1825
     25 N           9.0876   -7.1385   29.8920 N.ar    1  UNL1       -0.2280
     26 C           7.9293   -6.1857   29.9134 C.ar    1  UNL1        0.0786
     27 C           7.1775   -5.7390   31.1321 C.3     1  UNL1        0.0538
     28 C           7.6547   -5.7582   28.5021 C.ar    1  UNL1        0.0962
@<TRIPOS>BOND
     1    13    14    1
     2    14     6    1
     3     6     7   ar
     4     7     8   ar
     5     8     9   ar
     6     9    10    1
     7     9    11   ar
     8    11    12   ar
     9    12     1    1
    10     1     2   ar
    11     2     3   ar
    12     3     4   ar
    13     4    15    1
    14    15    17    1
    15    17    18   ar
    16    18    19   ar
    17    19    20   ar
    18    20    23    1
    19    23    24   ar
    20    24    25   ar
    21    25    26   ar
    22    26    27    1
    23    26    28   ar
    24    20    21   ar
    25    21    22   ar
    26     4     5   ar
    27    12     6   ar
    28     5     1   ar
    29    22    17   ar
    30    28    23   ar
    31    15    16    1
@<TRIPOS>MOLECULE
*****
 28 31 0 0 0
SMALL
GASTEIGER

@<TRIPOS>ATOM
      1 C           5.4438   -1.6313   20.6302 C.ar    1  UNL1        0.0927
      2 C           6.7322   -0.9662   21.0144 C.ar    1  UNL1        0.0573
      3 S           7.5626   -1.9639   21.7662 S.2     1  UNL1       -0.0509
      4 C           6.7874   -3.2456   21.8466 C.ar    1  UNL1        0.1635
      5 N           5.4779   -3.0400   21.1445 N.ar    1  UNL1       -0.2239
      6 C           4.5155   -0.6018   18.4328 C.ar    1  UNL1        0.1401
      7 C           3.3905    0.0307   17.6685 C.ar    1  UNL1        0.0375
      8 C           2.0686    0.2662   18.3372 C.ar    1  UNL1        0.0098
      9 C           1.8718   -0.1308   19.7702 C.ar    1  UNL1        0.0348
     10 BR          0.5500    0.1047   20.4390 Br      1  UNL1       -0.0490
     11 C           2.9969   -0.7633   20.5345 C.ar    1  UNL1        0.0112
     12 C           4.3187   -0.9988   19.8658 C.ar    1  UNL1        0.0527
     13 C           6.4817    0.2594   16.9691 C.3     1  UNL1        0.2525
     14 O           5.8374   -0.8373   17.7640 O.3     1  UNL1       -0.4714
     15 N           7.2419   -4.5106   22.5122 N.pl3   1  UNL1       -0.2927
     16 H           7.5568   -5.2678   21.9674 H       1  UNL1        0.1541
     17 C           7.2166   -4.6220   24.0078 C.ar    1  UNL1        0.0498
     18 C           7.8490   -5.8029   24.6828 C.ar    1  UNL1        0.0161
     19 C           7.8237   -5.9142   26.1784 C.ar    1  UNL1        0.0188
     20 C           7.1661   -4.8446   26.9991 C.ar    1  UNL1        0.0656
     21 C           6.5338   -3.6638   26.3242 C.ar    1  UNL1        0.0188
     22 C           6.5590   -3.5524   24.8285 C.ar    1  UNL1        0.0161
     23 N           7.1408   -4.9560   28.4948 N.ar    1  UNL1       -0.2868
     24 C           7.5295   -6.1632   29.2958 C.ar    1  UNL1        0.1825
     25 N           7.3513   -5.8329   30.7480 N.ar    1  UNL1       -0.2280
     26 C           6.8525   -4.4216   30.8446 C.ar    1  UNL1        0.0786
     27 C           6.5388   -3.6821   32.1114 C.3     1  UNL1        0.0538
     28 C           6.7223   -3.8796   29.4520 C.ar    1  UNL1        0.0962
@<TRIPOS>BOND
     1    13    14    1
     2    14     6    1
     3     6     7   ar
     4     7     8   ar
     5     8     9   ar
     6     9    10    1
     7     9    11   ar
     8    11    12   ar
     9    12     1    1
    10     1     2   ar
    11     2     3   ar
    12     3     4   ar
    13     4    15    1
    14    15    17    1
    15    17    18   ar
    16    18    19   ar
    17    19    20   ar
    18    20    23    1
    19    23    24   ar
    20    24    25   ar
    21    25    26   ar
    22    26    27    1
    23    26    28   ar
    24    20    21   ar
    25    21    22   ar
    26     4     5   ar
    27    12     6   ar
    28     5     1   ar
    29    22    17   ar
    30    28    23   ar
    31    15    16    1
@<TRIPOS>MOLECULE
*****
 28 31 0 0 0
SMALL
GASTEIGER

@<TRIPOS>ATOM
      1 C           2.4978    0.0341   19.7147 C.ar    1  UNL1        0.0927
      2 C           1.2192    0.4322   19.0389 C.ar    1  UNL1        0.0573
      3 S           0.5585    1.4840   19.8798 S.2     1  UNL1       -0.0509
      4 C           1.4288    1.7360   21.0753 C.ar    1  UNL1        0.1635
      5 N           2.6274    0.8400   20.9732 N.ar    1  UNL1       -0.2239
      6 C           4.6730   -0.5607   18.4243 C.ar    1  UNL1        0.1401
      7 C           5.6505   -1.5848   17.9286 C.ar    1  UNL1        0.0375
      8 C           5.4303   -3.0382   18.2276 C.ar    1  UNL1        0.0098
      9 C           4.2327   -3.4674   19.0221 C.ar    1  UNL1        0.0348
     10 BR          4.0126   -4.9208   19.3210 Br      1  UNL1       -0.0490
     11 C           3.2552   -2.4433   19.5178 C.ar    1  UNL1        0.0112
     12 C           3.4754   -0.9900   19.2189 C.ar    1  UNL1        0.0527
     13 C           6.1881    1.3458   17.5192 C.3     1  UNL1        0.2525
     14 O           4.8931    0.8926   18.1254 O.3     1  UNL1       -0.4714
     15 N           1.1495    2.7127   22.1790 N.pl3   1  UNL1       -0.2927
     16 H           0.9264    3.6473   21.9646 H       1  UNL1        0.1541
     17 C           1.2103    2.2653   23.6094 C.ar    1  UNL1        0.0498
     18 C           2.5222    2.2539   24.3366 C.ar    1  UNL1        0.0161
     19 C           2.5829    1.8065   25.7670 C.ar    1  UNL1        0.0188
     20 C           1.3318    1.3707   26.4703 C.ar    1  UNL1        0.0656
     21 C           0.0199    1.3821   25.7431 C.ar    1  UNL1        0.0188
     22 C          -0.0408    1.8294   24.3127 C.ar    1  UNL1        0.0161
     23 N           1.3925    0.9233   27.9008 N.ar    1  UNL1       -0.2868
     24 C           0.3586    1.1929   28.9536 C.ar    1  UNL1        0.1825
     25 N           0.8249    0.5640   30.2330 N.ar    1  UNL1       -0.2280
     26 C           2.1470   -0.0943   29.9710 C.ar    1  UNL1        0.0786
     27 C           2.9732   -0.8432   30.9742 C.3     1  UNL1        0.0538
     28 C           2.4978    0.1277   28.5296 C.ar    1  UNL1        0.0962
@<TRIPOS>BOND
     1    13    14    1
     2    14     6    1
     3     6     7   ar
     4     7     8   ar
     5     8     9   ar
     6     9    10    1
     7     9    11   ar
     8    11    12   ar
     9    12     1    1
    10     1     2   ar
    11     2     3   ar
    12     3     4   ar
    13     4    15    1
    14    15    17    1
    15    17    18   ar
    16    18    19   ar
    17    19    20   ar
    18    20    23    1
    19    23    24   ar
    20    24    25   ar
    21    25    26   ar
    22    26    27    1
    23    26    28   ar
    24    20    21   ar
    25    21    22   ar
    26     4     5   ar
    27    12     6   ar
    28     5     1   ar
    29    22    17   ar
    30    28    23   ar
    31    15    16    1
@<TRIPOS>MOLECULE
*****
 28 31 0 0 0
SMALL
GASTEIGER

@<TRIPOS>ATOM
      1 C           2.6489    0.1525   19.8544 C.ar    1  UNL1        0.0927
      2 C           3.4064    1.2707   19.2019 C.ar    1  UNL1        0.0573
      3 S           2.4265    2.3501   18.8485 S.2     1  UNL1       -0.0509
      4 C           1.0634    1.8989   19.2826 C.ar    1  UNL1        0.1635
      5 N           1.2008    0.5408   19.9043 N.ar    1  UNL1       -0.2239
      6 C           3.6769   -1.2329   21.7970 C.ar    1  UNL1        0.1401
      7 C           4.2642   -2.5144   22.3096 C.ar    1  UNL1        0.0375
      8 C           4.4109   -3.6920   21.3922 C.ar    1  UNL1        0.0098
      9 C           3.9703   -3.5881   19.9621 C.ar    1  UNL1        0.0348
     10 BR          4.1170   -4.7657   19.0447 Br      1  UNL1       -0.0490
     11 C           3.3829   -2.3066   19.4496 C.ar    1  UNL1        0.0112
     12 C           3.2362   -1.1290   20.3670 C.ar    1  UNL1        0.0527
     13 C           2.4998   -0.0774   23.8043 C.3     1  UNL1        0.2525
     14 O           3.5302   -0.0553   22.7145 O.3     1  UNL1       -0.4714
     15 N          -0.2130    2.6705   19.1231 N.pl3   1  UNL1       -0.2927
     16 H          -0.5001    2.9678   18.2295 H       1  UNL1        0.1541
     17 C          -1.0520    2.9891   20.3249 C.ar    1  UNL1        0.0498
     18 C          -0.4151    3.0881   21.6794 C.ar    1  UNL1        0.0161
     19 C          -1.2541    3.4067   22.8812 C.ar    1  UNL1        0.0188
     20 C          -2.7301    3.6262   22.7286 C.ar    1  UNL1        0.0656
     21 C          -3.3670    3.5272   21.3743 C.ar    1  UNL1        0.0188
     22 C          -2.5280    3.2086   20.1724 C.ar    1  UNL1        0.0161
     23 N          -3.5692    3.9448   23.9306 N.ar    1  UNL1       -0.2868
     24 C          -4.8967    3.3327   24.2665 C.ar    1  UNL1        0.1825
     25 N          -5.3759    3.9410   25.5510 N.ar    1  UNL1       -0.2280
     26 C          -4.3447    4.9292   26.0091 C.ar    1  UNL1        0.0786
     27 C          -4.4172    5.7678   27.2506 C.3     1  UNL1        0.0538
     28 C          -3.2280    4.9316   25.0076 C.ar    1  UNL1        0.0962
@<TRIPOS>BOND
     1    13    14    1
     2    14     6    1
     3     6     7   ar
     4     7     8   ar
     5     8     9   ar
     6     9    10    1
     7     9    11   ar
     8    11    12   ar
     9    12     1    1
    10     1     2   ar
    11     2     3   ar
    12     3     4   ar
    13     4    15    1
    14    15    17    1
    15    17    18   ar
    16    18    19   ar
    17    19    20   ar
    18    20    23    1
    19    23    24   ar
    20    24    25   ar
    21    25    26   ar
    22    26    27    1
    23    26    28   ar
    24    20    21   ar
    25    21    22   ar
    26     4     5   ar
    27    12     6   ar
    28     5     1   ar
    29    22    17   ar
    30    28    23   ar
    31    15    16    1
