@<TRIPOS>MOLECULE
*****
 35 39 0 0 0
SMALL
GASTEIGER

@<TRIPOS>ATOM
      1 C         -10.5659  -16.4809   23.0943 C.ar    1  UNL1        0.1488
      2 C         -11.9728  -16.6023   22.5886 C.ar    1  UNL1        0.0390
      3 C         -12.2888  -17.5516   21.4711 C.ar    1  UNL1        0.0417
      4 C         -11.1979  -18.3796   20.8594 C.ar    1  UNL1        0.1640
      5 N         -11.2072  -19.3931   19.7535 N.ar    1  UNL1       -0.2234
      6 C          -9.8060  -19.8981   19.5758 C.ar    1  UNL1        0.1198
      7 C          -8.9307  -19.1967   20.5718 C.ar    1  UNL1        0.1066
      8 N          -9.7910  -18.2583   21.3650 N.ar    1  UNL1       -0.2095
      9 N          -9.4750  -17.3089   22.4825 N.ar    1  UNL1       -0.1489
     10 C          -7.4544  -19.3984   20.7442 C.ar    1  UNL1        0.0577
     11 C          -6.9252  -20.0317   21.9967 C.ar    1  UNL1        0.1049
     12 N          -5.4488  -20.2334   22.1692 N.ar    1  UNL1       -0.2119
     13 C          -4.5017  -19.8017   21.0892 C.ar    1  UNL1        0.2218
     14 N          -5.0309  -19.1684   19.8367 N.ar    1  UNL1       -0.2119
     15 C          -6.5072  -18.9667   19.6642 C.ar    1  UNL1        0.1049
     16 N          -3.0253  -20.0034   21.2616 N.pl3   1  UNL1       -0.2662
     17 H          -2.6808  -20.8681   21.5822 H       1  UNL1        0.1565
     18 C          -2.0740  -18.8875   20.9457 C.ar    1  UNL1        0.1620
     19 N          -0.9196  -19.1263   20.0182 N.ar    1  UNL1       -0.2267
     20 C           0.0319  -18.0105   19.7022 C.ar    1  UNL1        0.1005
     21 C          -0.1712  -16.6560   20.3137 C.ar    1  UNL1        0.0231
     22 C          -1.3257  -16.4172   21.2412 C.ar    1  UNL1        0.0341
     23 C          -2.2771  -17.5330   21.5572 C.ar    1  UNL1        0.1717
     24 F          -3.4315  -17.2943   22.4847 F       1  UNL1       -0.2012
     25 N         -10.2498  -15.5315   24.2118 N.pl3   1  UNL1       -0.3184
     26 H         -10.9586  -14.9618   24.5890 H       1  UNL1        0.1482
     27 N          -4.6659  -15.2058   26.3827 N.3     1  UNL1       -0.3222
     28 C          -6.0618  -15.2872   25.8400 C.3     1  UNL1        0.0509
     29 C          -7.2102  -15.5682   26.7632 C.3     1  UNL1        0.0172
     30 C          -8.6063  -15.6496   26.2205 C.3     1  UNL1        0.0209
     31 C          -8.8539  -15.4501   24.7545 C.3     1  UNL1        0.0705
     32 C          -7.7054  -15.1691   23.8314 C.3     1  UNL1        0.0209
     33 C          -6.3094  -15.0877   24.3741 C.3     1  UNL1        0.0172
     34 H          -4.6829  -15.3652   27.3901 H       1  UNL1        0.1188
     35 H          -4.2800  -14.2812   26.1913 H       1  UNL1        0.1188
@<TRIPOS>BOND
     1    28    27    1
     2    28    29    1
     3    29    30    1
     4    30    31    1
     5    31    25    1
     6    25     1    1
     7     1     2   ar
     8     2     3   ar
     9     3     4   ar
    10     4     5   ar
    11     5     6   ar
    12     6     7   ar
    13     7    10    1
    14    10    11   ar
    15    11    12   ar
    16    12    13   ar
    17    13    16    1
    18    16    18    1
    19    18    19   ar
    20    19    20   ar
    21    20    21   ar
    22    21    22   ar
    23    22    23   ar
    24    23    24    1
    25    13    14   ar
    26    14    15   ar
    27     7     8   ar
    28     8     9   ar
    29    31    32    1
    30    32    33    1
    31    33    28    1
    32     9     1   ar
    33     8     4   ar
    34    15    10   ar
    35    23    18   ar
    36    27    34    1
    37    27    35    1
    38    25    26    1
    39    16    17    1
@<TRIPOS>MOLECULE
*****
 35 39 0 0 0
SMALL
GASTEIGER

@<TRIPOS>ATOM
      1 C           6.9047   -5.2423   28.9192 C.ar    1  UNL1        0.1488
      2 C           8.2021   -5.8521   29.3606 C.ar    1  UNL1        0.0390
      3 C           8.9697   -5.2422   30.4957 C.ar    1  UNL1        0.0417
      4 C           8.4399   -4.0224   31.1896 C.ar    1  UNL1        0.1640
      5 N           8.9715   -3.2061   32.3303 N.ar    1  UNL1       -0.2234
      6 C           8.0026   -2.0918   32.5940 C.ar    1  UNL1        0.1198
      7 C           6.8722   -2.2194   31.6162 C.ar    1  UNL1        0.1066
      8 N           7.1425   -3.4125   30.7482 N.ar    1  UNL1       -0.2095
      9 N           6.3749   -4.0225   29.6131 N.ar    1  UNL1       -0.1489
     10 C           5.6807   -1.3130   31.5227 C.ar    1  UNL1        0.0577
     11 C           4.3831   -1.7117   32.1610 C.ar    1  UNL1        0.1049
     12 N           3.1917   -0.8052   32.0675 N.ar    1  UNL1       -0.2119
     13 C           3.2977    0.4999   31.3359 C.ar    1  UNL1        0.2218
     14 N           4.5952    0.8986   30.6976 N.ar    1  UNL1       -0.2119
     15 C           5.7867   -0.0079   30.7911 C.ar    1  UNL1        0.1049
     16 N           2.1062    1.4063   31.2424 N.pl3   1  UNL1       -0.2662
     17 H           1.9583    2.0971   31.9281 H       1  UNL1        0.1565
     18 C           1.1401    1.2602   30.1043 C.ar    1  UNL1        0.1620
     19 N           0.4977   -0.0676   29.8317 N.ar    1  UNL1       -0.2267
     20 C          -0.4684   -0.2138   28.6936 C.ar    1  UNL1        0.1005
     21 C          -0.7921    0.9678   27.8282 C.ar    1  UNL1        0.0231
     22 C          -0.1498    2.2957   28.1008 C.ar    1  UNL1        0.0341
     23 C           0.8163    2.4418   29.2389 C.ar    1  UNL1        0.1717
     24 F           1.4587    3.7696   29.5116 F       1  UNL1       -0.2012
     25 N           6.1370   -5.8523   27.7840 N.pl3   1  UNL1       -0.3184
     26 H           5.1862   -6.0804   27.8990 H       1  UNL1        0.1482
     27 N           8.8607   -6.9018   22.5419 N.3     1  UNL1       -0.3222
     28 C           8.1798   -6.6394   23.8524 C.3     1  UNL1        0.0509
     29 C           8.0594   -7.7367   24.8679 C.3     1  UNL1        0.0172
     30 C           7.3784   -7.4744   26.1785 C.3     1  UNL1        0.0209
     31 C           6.8179   -6.1146   26.4735 C.3     1  UNL1        0.0705
     32 C           6.9384   -5.0173   25.4579 C.3     1  UNL1        0.0209
     33 C           7.6193   -5.2797   24.1474 C.3     1  UNL1        0.0172
     34 H           9.1780   -7.8707   22.5116 H       1  UNL1        0.1188
     35 H           9.6622   -6.2784   22.4444 H       1  UNL1        0.1188
@<TRIPOS>BOND
     1    28    27    1
     2    28    29    1
     3    29    30    1
     4    30    31    1
     5    31    25    1
     6    25     1    1
     7     1     2   ar
     8     2     3   ar
     9     3     4   ar
    10     4     5   ar
    11     5     6   ar
    12     6     7   ar
    13     7    10    1
    14    10    11   ar
    15    11    12   ar
    16    12    13   ar
    17    13    16    1
    18    16    18    1
    19    18    19   ar
    20    19    20   ar
    21    20    21   ar
    22    21    22   ar
    23    22    23   ar
    24    23    24    1
    25    13    14   ar
    26    14    15   ar
    27     7     8   ar
    28     8     9   ar
    29    31    32    1
    30    32    33    1
    31    33    28    1
    32     9     1   ar
    33     8     4   ar
    34    15    10   ar
    35    23    18   ar
    36    27    34    1
    37    27    35    1
    38    25    26    1
    39    16    17    1
@<TRIPOS>MOLECULE
*****
 35 39 0 0 0
SMALL
GASTEIGER

@<TRIPOS>ATOM
      1 C           7.1894   -5.2023   29.1893 C.ar    1  UNL1        0.1488
      2 C           8.5660   -5.7455   29.4337 C.ar    1  UNL1        0.0390
      3 C           9.4300   -5.1455   30.5030 C.ar    1  UNL1        0.0417
      4 C           8.9173   -4.0024   31.3279 C.ar    1  UNL1        0.1640
      5 N           9.5357   -3.2131   32.4437 N.ar    1  UNL1       -0.2234
      6 C           8.5411   -2.1822   32.8887 C.ar    1  UNL1        0.1198
      7 C           7.3081   -2.3343   32.0481 C.ar    1  UNL1        0.1066
      8 N           7.5406   -3.4593   31.0835 N.ar    1  UNL1       -0.2095
      9 N           6.6767   -4.0592   30.0142 N.ar    1  UNL1       -0.1489
     10 C           6.0615   -1.5068   32.1536 C.ar    1  UNL1        0.0577
     11 C           4.7598   -2.1552   32.5213 C.ar    1  UNL1        0.1049
     12 N           3.5132   -1.3277   32.6267 N.ar    1  UNL1       -0.2119
     13 C           3.5682    0.1481   32.3646 C.ar    1  UNL1        0.2218
     14 N           4.8699    0.7965   31.9969 N.ar    1  UNL1       -0.2119
     15 C           6.1165   -0.0310   31.8914 C.ar    1  UNL1        0.1049
     16 N           2.3215    0.9756   32.4700 N.pl3   1  UNL1       -0.2662
     17 H           1.8629    1.0666   33.3364 H       1  UNL1        0.1565
     18 C           1.7736    1.6646   31.2554 C.ar    1  UNL1        0.1620
     19 N           1.5665    3.1502   31.2654 N.ar    1  UNL1       -0.2267
     20 C           1.0186    3.8392   30.0509 C.ar    1  UNL1        0.1005
     21 C           0.6779    3.0426   28.8264 C.ar    1  UNL1        0.0231
     22 C           0.8851    1.5569   28.8164 C.ar    1  UNL1        0.0341
     23 C           1.4330    0.8680   30.0310 C.ar    1  UNL1        0.1717
     24 F           1.6402   -0.6176   30.0211 F       1  UNL1       -0.2012
     25 N           6.3253   -5.8023   28.1199 N.pl3   1  UNL1       -0.3184
     26 H           5.3848   -6.0208   28.3119 H       1  UNL1        0.1482
     27 N           8.6013   -6.8705   22.6721 N.3     1  UNL1       -0.3222
     28 C           8.0323   -6.6035   24.0340 C.3     1  UNL1        0.0509
     29 C           7.4817   -5.2478   24.3642 C.3     1  UNL1        0.0172
     30 C           6.9127   -4.9807   25.7262 C.3     1  UNL1        0.0209
     31 C           6.8943   -6.0693   26.7579 C.3     1  UNL1        0.0705
     32 C           7.4449   -7.4250   26.4277 C.3     1  UNL1        0.0209
     33 C           8.0139   -7.6921   25.0658 C.3     1  UNL1        0.0172
     34 H           8.5332   -6.0263   22.1037 H       1  UNL1        0.1188
     35 H           8.0773   -7.6236   22.2263 H       1  UNL1        0.1188
@<TRIPOS>BOND
     1    28    27    1
     2    28    29    1
     3    29    30    1
     4    30    31    1
     5    31    25    1
     6    25     1    1
     7     1     2   ar
     8     2     3   ar
     9     3     4   ar
    10     4     5   ar
    11     5     6   ar
    12     6     7   ar
    13     7    10    1
    14    10    11   ar
    15    11    12   ar
    16    12    13   ar
    17    13    16    1
    18    16    18    1
    19    18    19   ar
    20    19    20   ar
    21    20    21   ar
    22    21    22   ar
    23    22    23   ar
    24    23    24    1
    25    13    14   ar
    26    14    15   ar
    27     7     8   ar
    28     8     9   ar
    29    31    32    1
    30    32    33    1
    31    33    28    1
    32     9     1   ar
    33     8     4   ar
    34    15    10   ar
    35    23    18   ar
    36    27    34    1
    37    27    35    1
    38    25    26    1
    39    16    17    1
@<TRIPOS>MOLECULE
*****
 35 39 0 0 0
SMALL
GASTEIGER

@<TRIPOS>ATOM
      1 C           4.5619   -3.2870   20.9737 C.ar    1  UNL1        0.1488
      2 C           5.5668   -3.7956   19.9830 C.ar    1  UNL1        0.0390
      3 C           5.6667   -3.1656   18.6254 C.ar    1  UNL1        0.0417
      4 C           4.7618   -2.0270   18.2585 C.ar    1  UNL1        0.1640
      5 N           4.6303   -1.2130   17.0054 N.ar    1  UNL1       -0.2234
      6 C           3.5442   -0.2013   17.2217 C.ar    1  UNL1        0.1198
      7 C           3.0044   -0.3900   18.6084 C.ar    1  UNL1        0.1066
      8 N           3.7569   -1.5183   19.2492 N.ar    1  UNL1       -0.2095
      9 N           3.6570   -2.1483   20.6068 N.ar    1  UNL1       -0.1489
     10 C           1.9051    0.4093   19.2430 C.ar    1  UNL1        0.0577
     11 C           0.8355   -0.2829   20.0347 C.ar    1  UNL1        0.1049
     12 N          -0.2638    0.5164   20.6693 N.ar    1  UNL1       -0.2119
     13 C          -0.2935    2.0078   20.5122 C.ar    1  UNL1        0.2218
     14 N           0.7761    2.7000   19.7205 N.ar    1  UNL1       -0.2119
     15 C           1.8754    1.9007   19.0859 C.ar    1  UNL1        0.1049
     16 N          -1.3928    2.8071   21.1468 N.pl3   1  UNL1       -0.2662
     17 H          -1.3394    3.0476   22.1000 H       1  UNL1        0.1565
     18 C          -2.5735    3.2400   20.3291 C.ar    1  UNL1        0.1620
     19 N          -2.3826    3.6670   18.9040 N.ar    1  UNL1       -0.2267
     20 C          -3.5633    4.0999   18.0862 C.ar    1  UNL1        0.1005
     21 C          -4.9347    4.1058   18.6937 C.ar    1  UNL1        0.0231
     22 C          -5.1256    3.6787   20.1190 C.ar    1  UNL1        0.0341
     23 C          -3.9449    3.2458   20.9366 C.ar    1  UNL1        0.1717
     24 F          -4.1357    2.8187   22.3618 F       1  UNL1       -0.2012
     25 N           4.4620   -3.9170   22.3313 N.pl3   1  UNL1       -0.3184
     26 H           3.9481   -4.7480   22.4518 H       1  UNL1        0.1482
     27 N           7.1943   -1.3722   27.0280 N.3     1  UNL1       -0.3222
     28 C           6.5112   -2.0084   25.8538 C.3     1  UNL1        0.0509
     29 C           5.2494   -1.4105   25.3059 C.3     1  UNL1        0.0172
     30 C           4.5663   -2.0467   24.1317 C.3     1  UNL1        0.0209
     31 C           5.1450   -3.2808   23.5055 C.3     1  UNL1        0.0705
     32 C           6.4069   -3.8786   24.0535 C.3     1  UNL1        0.0209
     33 C           7.0900   -3.2425   25.2277 C.3     1  UNL1        0.0172
     34 H           6.6678   -0.5499   27.3230 H       1  UNL1        0.1188
     35 H           8.1388   -1.0938   26.7620 H       1  UNL1        0.1188
@<TRIPOS>BOND
     1    28    27    1
     2    28    29    1
     3    29    30    1
     4    30    31    1
     5    31    25    1
     6    25     1    1
     7     1     2   ar
     8     2     3   ar
     9     3     4   ar
    10     4     5   ar
    11     5     6   ar
    12     6     7   ar
    13     7    10    1
    14    10    11   ar
    15    11    12   ar
    16    12    13   ar
    17    13    16    1
    18    16    18    1
    19    18    19   ar
    20    19    20   ar
    21    20    21   ar
    22    21    22   ar
    23    22    23   ar
    24    23    24    1
    25    13    14   ar
    26    14    15   ar
    27     7     8   ar
    28     8     9   ar
    29    31    32    1
    30    32    33    1
    31    33    28    1
    32     9     1   ar
    33     8     4   ar
    34    15    10   ar
    35    23    18   ar
    36    27    34    1
    37    27    35    1
    38    25    26    1
    39    16    17    1
@<TRIPOS>MOLECULE
*****
 35 39 0 0 0
SMALL
GASTEIGER

@<TRIPOS>ATOM
      1 C           6.5634   -3.3218   30.0228 C.ar    1  UNL1        0.1488
      2 C           6.8811   -4.3239   31.0928 C.ar    1  UNL1        0.0390
      3 C           7.3869   -5.6855   30.7188 C.ar    1  UNL1        0.0417
      4 C           7.5750   -6.0452   29.2747 C.ar    1  UNL1        0.1640
      5 N           8.0542   -7.3001   28.6071 N.ar    1  UNL1       -0.2234
      6 C           8.0326   -7.0736   27.1245 C.ar    1  UNL1        0.1198
      7 C           7.5401   -5.6787   26.8758 C.ar    1  UNL1        0.1066
      8 N           7.2573   -5.0432   28.2047 N.ar    1  UNL1       -0.2095
      9 N           6.7515   -3.6815   28.5788 N.ar    1  UNL1       -0.1489
     10 C           7.3617   -5.0328   25.5338 C.ar    1  UNL1        0.0577
     11 C           6.7056   -3.6879   25.4300 C.ar    1  UNL1        0.1049
     12 N           6.5273   -3.0420   24.0880 N.ar    1  UNL1       -0.2119
     13 C           7.0049   -3.7409   22.8498 C.ar    1  UNL1        0.2218
     14 N           7.6610   -5.0858   22.9536 N.ar    1  UNL1       -0.2119
     15 C           7.8394   -5.7317   24.2956 C.ar    1  UNL1        0.1049
     16 N           6.8266   -3.0950   21.5078 N.pl3   1  UNL1       -0.2662
     17 H           7.4973   -2.4549   21.1765 H       1  UNL1        0.1565
     18 C           5.6263   -3.4242   20.6705 C.ar    1  UNL1        0.1620
     19 N           5.5679   -4.7224   19.9213 N.ar    1  UNL1       -0.2267
     20 C           4.3676   -5.0517   19.0840 C.ar    1  UNL1        0.1005
     21 C           3.2259   -4.0829   18.9960 C.ar    1  UNL1        0.0231
     22 C           3.2844   -2.7846   19.7452 C.ar    1  UNL1        0.0341
     23 C           4.4846   -2.4554   20.5825 C.ar    1  UNL1        0.1717
     24 F           4.5432   -1.1572   21.3318 F       1  UNL1       -0.2012
     25 N           6.0576   -1.9600   30.3968 N.pl3   1  UNL1       -0.3184
     26 H           5.8777   -1.2922   29.6962 H       1  UNL1        0.1482
     27 N           5.1310   -0.5832   36.1627 N.3     1  UNL1       -0.3222
     28 C           5.3627   -0.9274   34.7212 C.3     1  UNL1        0.0509
     29 C           4.3150   -1.6750   33.9510 C.3     1  UNL1        0.0172
     30 C           4.5466   -2.0192   32.5094 C.3     1  UNL1        0.0209
     31 C           5.8260   -1.6158   31.8383 C.3     1  UNL1        0.0705
     32 C           6.8737   -0.8682   32.6086 C.3     1  UNL1        0.0209
     33 C           6.6421   -0.5240   34.0501 C.3     1  UNL1        0.0172
     34 H           4.2171   -0.9312   36.4527 H       1  UNL1        0.1188
     35 H           5.1619    0.4296   36.2796 H       1  UNL1        0.1188
@<TRIPOS>BOND
     1    28    27    1
     2    28    29    1
     3    29    30    1
     4    30    31    1
     5    31    25    1
     6    25     1    1
     7     1     2   ar
     8     2     3   ar
     9     3     4   ar
    10     4     5   ar
    11     5     6   ar
    12     6     7   ar
    13     7    10    1
    14    10    11   ar
    15    11    12   ar
    16    12    13   ar
    17    13    16    1
    18    16    18    1
    19    18    19   ar
    20    19    20   ar
    21    20    21   ar
    22    21    22   ar
    23    22    23   ar
    24    23    24    1
    25    13    14   ar
    26    14    15   ar
    27     7     8   ar
    28     8     9   ar
    29    31    32    1
    30    32    33    1
    31    33    28    1
    32     9     1   ar
    33     8     4   ar
    34    15    10   ar
    35    23    18   ar
    36    27    34    1
    37    27    35    1
    38    25    26    1
    39    16    17    1
@<TRIPOS>MOLECULE
*****
 35 39 0 0 0
SMALL
GASTEIGER

@<TRIPOS>ATOM
      1 C           6.7960   -6.1048   26.4996 C.ar    1  UNL1        0.1488
      2 C           7.6508   -7.3369   26.4671 C.ar    1  UNL1        0.0390
      3 C           8.4778   -7.6441   25.2540 C.ar    1  UNL1        0.0417
      4 C           8.4500   -6.7191   24.0735 C.ar    1  UNL1        0.1640
      5 N           9.1531   -6.7607   22.7490 N.ar    1  UNL1       -0.2234
      6 C           8.7328   -5.5543   21.9631 C.ar    1  UNL1        0.1198
      7 C           7.7699   -4.7671   22.8017 C.ar    1  UNL1        0.1066
      8 N           7.5952   -5.4870   24.1060 N.ar    1  UNL1       -0.2095
      9 N           6.7682   -5.1798   25.3191 N.ar    1  UNL1       -0.1489
     10 C           7.0996   -3.4850   22.4057 C.ar    1  UNL1        0.0577
     11 C           7.3473   -2.2340   23.1954 C.ar    1  UNL1        0.1049
     12 N           6.6769   -0.9519   22.7993 N.ar    1  UNL1       -0.2119
     13 C           5.7588   -0.9208   21.6136 C.ar    1  UNL1        0.2218
     14 N           5.5111   -2.1718   20.8239 N.ar    1  UNL1       -0.2119
     15 C           6.1815   -3.4538   21.2199 C.ar    1  UNL1        0.1049
     16 N           5.0884    0.3613   21.2175 N.pl3   1  UNL1       -0.2662
     17 H           5.5041    1.2245   21.4439 H       1  UNL1        0.1565
     18 C           3.7846    0.3281   20.4766 C.ar    1  UNL1        0.1620
     19 N           3.6939    0.8993   19.0926 N.ar    1  UNL1       -0.2267
     20 C           2.3901    0.8662   18.3515 C.ar    1  UNL1        0.1005
     21 C           1.1771    0.2619   18.9946 C.ar    1  UNL1        0.0231
     22 C           1.2679   -0.3093   20.3786 C.ar    1  UNL1        0.0341
     23 C           2.5717   -0.2762   21.1196 C.ar    1  UNL1        0.1717
     24 F           2.6625   -0.8473   22.5036 F       1  UNL1       -0.2012
     25 N           5.9689   -5.7975   27.7128 N.pl3   1  UNL1       -0.3184
     26 H           5.0105   -6.0224   27.7250 H       1  UNL1        0.1482
     27 N           8.5017   -3.1985   32.4908 N.3     1  UNL1       -0.3222
     28 C           7.8685   -3.8483   31.2963 C.3     1  UNL1        0.0509
     29 C           7.1740   -3.0083   30.2658 C.3     1  UNL1        0.0172
     30 C           6.5407   -3.6580   29.0712 C.3     1  UNL1        0.0209
     31 C           6.6021   -5.1478   28.9073 C.3     1  UNL1        0.0705
     32 C           7.2966   -5.9878   29.9379 C.3     1  UNL1        0.0209
     33 C           7.9298   -5.3380   31.1324 C.3     1  UNL1        0.0172
     34 H           8.3654   -2.1889   32.4408 H       1  UNL1        0.1188
     35 H           9.5001   -3.4067   32.5018 H       1  UNL1        0.1188
@<TRIPOS>BOND
     1    28    27    1
     2    28    29    1
     3    29    30    1
     4    30    31    1
     5    31    25    1
     6    25     1    1
     7     1     2   ar
     8     2     3   ar
     9     3     4   ar
    10     4     5   ar
    11     5     6   ar
    12     6     7   ar
    13     7    10    1
    14    10    11   ar
    15    11    12   ar
    16    12    13   ar
    17    13    16    1
    18    16    18    1
    19    18    19   ar
    20    19    20   ar
    21    20    21   ar
    22    21    22   ar
    23    22    23   ar
    24    23    24    1
    25    13    14   ar
    26    14    15   ar
    27     7     8   ar
    28     8     9   ar
    29    31    32    1
    30    32    33    1
    31    33    28    1
    32     9     1   ar
    33     8     4   ar
    34    15    10   ar
    35    23    18   ar
    36    27    34    1
    37    27    35    1
    38    25    26    1
    39    16    17    1
@<TRIPOS>MOLECULE
*****
 35 39 0 0 0
SMALL
GASTEIGER

@<TRIPOS>ATOM
      1 C           4.1792   -1.7333   19.2474 C.ar    1  UNL1        0.1488
      2 C           4.9306   -2.8580   18.5990 C.ar    1  UNL1        0.0390
      3 C           5.7177   -3.8178   19.4412 C.ar    1  UNL1        0.0417
      4 C           5.7534   -3.6529   20.9317 C.ar    1  UNL1        0.1640
      5 N           6.4374   -4.4370   22.0122 N.ar    1  UNL1       -0.2234
      6 C           6.1087   -3.7969   23.3282 C.ar    1  UNL1        0.1198
      7 C           5.2215   -2.6172   23.0612 C.ar    1  UNL1        0.1066
      8 N           5.0019   -2.5282   21.5800 N.ar    1  UNL1       -0.2095
      9 N           4.2148   -1.5685   20.7379 N.ar    1  UNL1       -0.1489
     10 C           4.6536   -1.6894   24.0939 C.ar    1  UNL1        0.0577
     11 C           3.3954   -0.9254   23.8051 C.ar    1  UNL1        0.1049
     12 N           2.8275    0.0024   24.8378 N.ar    1  UNL1       -0.2119
     13 C           3.5177    0.1663   26.1595 C.ar    1  UNL1        0.2218
     14 N           4.7758   -0.5976   26.4483 N.ar    1  UNL1       -0.2119
     15 C           5.3438   -1.5254   25.4155 C.ar    1  UNL1        0.1049
     16 N           2.9497    1.0941   27.1922 N.pl3   1  UNL1       -0.2662
     17 H           3.5168    1.7933   27.5909 H       1  UNL1        0.1565
     18 C           1.5179    0.9567   27.6176 C.ar    1  UNL1        0.1620
     19 N           0.4720    1.8592   27.0331 N.ar    1  UNL1       -0.2267
     20 C          -0.9599    1.7218   27.4585 C.ar    1  UNL1        0.1005
     21 C          -1.3458    0.6820   28.4683 C.ar    1  UNL1        0.0231
     22 C          -0.2998   -0.2205   29.0529 C.ar    1  UNL1        0.0341
     23 C           1.1320   -0.0831   28.6275 C.ar    1  UNL1        0.1717
     24 F           2.1780   -0.9855   29.2120 F       1  UNL1       -0.2012
     25 N           3.3920   -0.7735   18.4052 N.pl3   1  UNL1       -0.3184
     26 H           3.6072   -0.6652   17.4507 H       1  UNL1        0.1482
     27 N          -1.0682    2.4058   20.8543 N.3     1  UNL1       -0.3222
     28 C           0.0468    1.6110   20.2421 C.3     1  UNL1        0.0509
     29 C           1.0301    2.2795   19.3276 C.3     1  UNL1        0.0172
     30 C           2.1452    1.4847   18.7153 C.3     1  UNL1        0.0209
     31 C           2.2770    0.0213   19.0175 C.3     1  UNL1        0.0705
     32 C           1.2937   -0.6471   19.9320 C.3     1  UNL1        0.0209
     33 C           0.1786    0.1477   20.5443 C.3     1  UNL1        0.0172
     34 H          -1.0058    3.3751   20.5427 H       1  UNL1        0.1188
     35 H          -0.9929    2.3700   21.8709 H       1  UNL1        0.1188
@<TRIPOS>BOND
     1    28    27    1
     2    28    29    1
     3    29    30    1
     4    30    31    1
     5    31    25    1
     6    25     1    1
     7     1     2   ar
     8     2     3   ar
     9     3     4   ar
    10     4     5   ar
    11     5     6   ar
    12     6     7   ar
    13     7    10    1
    14    10    11   ar
    15    11    12   ar
    16    12    13   ar
    17    13    16    1
    18    16    18    1
    19    18    19   ar
    20    19    20   ar
    21    20    21   ar
    22    21    22   ar
    23    22    23   ar
    24    23    24    1
    25    13    14   ar
    26    14    15   ar
    27     7     8   ar
    28     8     9   ar
    29    31    32    1
    30    32    33    1
    31    33    28    1
    32     9     1   ar
    33     8     4   ar
    34    15    10   ar
    35    23    18   ar
    36    27    34    1
    37    27    35    1
    38    25    26    1
    39    16    17    1
@<TRIPOS>MOLECULE
*****
 35 39 0 0 0
SMALL
GASTEIGER

@<TRIPOS>ATOM
      1 C           6.9558   -3.6130   22.3349 C.ar    1  UNL1        0.1488
      2 C           7.0883   -4.2820   20.9989 C.ar    1  UNL1        0.0390
      3 C           6.0963   -3.9900   19.9123 C.ar    1  UNL1        0.0417
      4 C           4.9719   -3.0291   20.1618 C.ar    1  UNL1        0.1640
      5 N           3.8506   -2.5479   19.2892 N.ar    1  UNL1       -0.2234
      6 C           3.0252   -1.5816   20.0859 C.ar    1  UNL1        0.1198
      7 C           3.6363   -1.4655   21.4509 C.ar    1  UNL1        0.1066
      8 N           4.8394   -2.3602   21.4978 N.ar    1  UNL1       -0.2095
      9 N           5.8314   -2.6521   22.5843 N.ar    1  UNL1       -0.1489
     10 C           3.1327   -0.6058   22.5722 C.ar    1  UNL1        0.0577
     11 C           2.2498    0.5704   22.2771 C.ar    1  UNL1        0.1049
     12 N           1.7463    1.4301   23.3984 N.ar    1  UNL1       -0.2119
     13 C           2.1255    1.1137   24.8147 C.ar    1  UNL1        0.2218
     14 N           3.0083   -0.0625   25.1098 N.ar    1  UNL1       -0.2119
     15 C           3.5119   -0.9222   23.9885 C.ar    1  UNL1        0.1049
     16 N           1.6219    1.9734   25.9360 N.pl3   1  UNL1       -0.2662
     17 H           1.7820    2.9447   25.9217 H       1  UNL1        0.1565
     18 C           0.8743    1.3533   27.0791 C.ar    1  UNL1        0.1620
     19 N           1.6233    0.6460   28.1693 N.ar    1  UNL1       -0.2267
     20 C           0.8758    0.0259   29.3124 C.ar    1  UNL1        0.1005
     21 C          -0.6207    0.1130   29.3652 C.ar    1  UNL1        0.0231
     22 C          -1.3698    0.8203   28.2749 C.ar    1  UNL1        0.0341
     23 C          -0.6222    1.4405   27.1318 C.ar    1  UNL1        0.1717
     24 F          -1.3712    2.1477   26.0415 F       1  UNL1       -0.2012
     25 N           7.9479   -3.9050   23.4215 N.pl3   1  UNL1       -0.3184
     26 H           8.7160   -3.3051   23.5610 H       1  UNL1        0.1482
     27 N           7.2346   -8.7283   26.9182 N.3     1  UNL1       -0.3222
     28 C           7.4129   -7.5225   26.0440 C.3     1  UNL1        0.0509
     29 C           8.1518   -7.6412   24.7441 C.3     1  UNL1        0.0172
     30 C           8.3301   -6.4353   23.8699 C.3     1  UNL1        0.0209
     31 C           7.7696   -5.1108   24.2957 C.3     1  UNL1        0.0705
     32 C           7.0307   -4.9921   25.5957 C.3     1  UNL1        0.0209
     33 C           6.8524   -6.1979   26.4699 C.3     1  UNL1        0.0172
     34 H           7.6752   -9.5358   26.4775 H       1  UNL1        0.1188
     35 H           6.2394   -8.9115   27.0459 H       1  UNL1        0.1188
@<TRIPOS>BOND
     1    28    27    1
     2    28    29    1
     3    29    30    1
     4    30    31    1
     5    31    25    1
     6    25     1    1
     7     1     2   ar
     8     2     3   ar
     9     3     4   ar
    10     4     5   ar
    11     5     6   ar
    12     6     7   ar
    13     7    10    1
    14    10    11   ar
    15    11    12   ar
    16    12    13   ar
    17    13    16    1
    18    16    18    1
    19    18    19   ar
    20    19    20   ar
    21    20    21   ar
    22    21    22   ar
    23    22    23   ar
    24    23    24    1
    25    13    14   ar
    26    14    15   ar
    27     7     8   ar
    28     8     9   ar
    29    31    32    1
    30    32    33    1
    31    33    28    1
    32     9     1   ar
    33     8     4   ar
    34    15    10   ar
    35    23    18   ar
    36    27    34    1
    37    27    35    1
    38    25    26    1
    39    16    17    1
@<TRIPOS>MOLECULE
*****
 35 39 0 0 0
SMALL
GASTEIGER

@<TRIPOS>ATOM
      1 C           6.9102   -3.1120   29.4432 C.ar    1  UNL1        0.1488
      2 C           7.1839   -4.0204   30.6051 C.ar    1  UNL1        0.0390
      3 C           7.5820   -5.4465   30.3646 C.ar    1  UNL1        0.0417
      4 C           7.7064   -5.9641   28.9622 C.ar    1  UNL1        0.1640
      5 N           8.0779   -7.3122   28.4192 N.ar    1  UNL1       -0.2234
      6 C           8.0338   -7.2369   26.9218 C.ar    1  UNL1        0.1198
      7 C           7.6351   -5.8423   26.5393 C.ar    1  UNL1        0.1066
      8 N           7.4327   -5.0557   27.8004 N.ar    1  UNL1       -0.2095
      9 N           7.0347   -3.6297   28.0409 N.ar    1  UNL1       -0.1489
     10 C           7.4680   -5.3251   25.1413 C.ar    1  UNL1        0.0577
     11 C           8.2134   -5.9683   24.0096 C.ar    1  UNL1        0.1049
     12 N           8.0463   -5.4511   22.6115 N.ar    1  UNL1       -0.2119
     13 C           7.1339   -4.2908   22.3450 C.ar    1  UNL1        0.2218
     14 N           6.3886   -3.6476   23.4767 N.ar    1  UNL1       -0.2119
     15 C           6.5556   -4.1648   24.8748 C.ar    1  UNL1        0.1049
     16 N           6.9669   -3.7736   20.9470 N.pl3   1  UNL1       -0.2662
     17 H           7.7107   -3.8401   20.3054 H       1  UNL1        0.1565
     18 C           5.6667   -3.1551   20.5265 C.ar    1  UNL1        0.1620
     19 N           5.3146   -1.7689   20.9787 N.ar    1  UNL1       -0.2267
     20 C           4.0144   -1.1503   20.5582 C.ar    1  UNL1        0.1005
     21 C           3.0662   -1.9180   19.6855 C.ar    1  UNL1        0.0231
     22 C           3.4183   -3.3043   19.2332 C.ar    1  UNL1        0.0341
     23 C           4.7185   -3.9228   19.6537 C.ar    1  UNL1        0.1717
     24 F           5.0706   -5.3089   19.2015 F       1  UNL1       -0.2012
     25 N           6.5121   -1.6859   29.6837 N.pl3   1  UNL1       -0.3184
     26 H           7.2029   -1.0007   29.8339 H       1  UNL1        0.1482
     27 N           0.7102   -0.1578   29.7303 N.3     1  UNL1       -0.3222
     28 C           2.1607   -0.5398   29.7187 C.3     1  UNL1        0.0509
     29 C           2.8647   -0.7716   28.4146 C.3     1  UNL1        0.0172
     30 C           4.3153   -1.1536   28.4030 C.3     1  UNL1        0.0209
     31 C           5.0617   -1.3039   29.6954 C.3     1  UNL1        0.0705
     32 C           4.3575   -1.0721   30.9994 C.3     1  UNL1        0.0209
     33 C           2.9071   -0.6901   31.0111 C.3     1  UNL1        0.0172
     34 H           0.3658   -0.1014   28.7719 H       1  UNL1        0.1188
     35 H           0.6010    0.7488   30.1848 H       1  UNL1        0.1188
@<TRIPOS>BOND
     1    28    27    1
     2    28    29    1
     3    29    30    1
     4    30    31    1
     5    31    25    1
     6    25     1    1
     7     1     2   ar
     8     2     3   ar
     9     3     4   ar
    10     4     5   ar
    11     5     6   ar
    12     6     7   ar
    13     7    10    1
    14    10    11   ar
    15    11    12   ar
    16    12    13   ar
    17    13    16    1
    18    16    18    1
    19    18    19   ar
    20    19    20   ar
    21    20    21   ar
    22    21    22   ar
    23    22    23   ar
    24    23    24    1
    25    13    14   ar
    26    14    15   ar
    27     7     8   ar
    28     8     9   ar
    29    31    32    1
    30    32    33    1
    31    33    28    1
    32     9     1   ar
    33     8     4   ar
    34    15    10   ar
    35    23    18   ar
    36    27    34    1
    37    27    35    1
    38    25    26    1
    39    16    17    1
