@<TRIPOS>MOLECULE
*****
 37 41 0 0 0
SMALL
GASTEIGER

@<TRIPOS>ATOM
      1 C          -4.2262  -17.0408   24.7141 C.3     1  UNL1        0.0294
      2 C          -5.0559  -15.8174   24.9691 C.3     1  UNL1        0.0666
      3 S          -5.7859  -15.1571   23.8373 S.3     1  UNL1       -0.0756
      4 C          -9.3039  -16.6721   23.2094 C.ar    1  UNL1        0.1680
      5 N          -8.7355  -16.6739   21.8212 N.ar    1  UNL1       -0.1282
      6 N          -7.3485  -16.1066   21.8875 N.ar    1  UNL1       -0.1221
      7 C          -7.0597  -15.7542   23.3166 C.ar    1  UNL1        0.1932
      8 N          -8.2681  -16.1036   24.1336 N.ar    1  UNL1       -0.2884
      9 C          -8.4151  -15.9174   25.6147 C.3     1  UNL1        0.1340
     10 C          -9.5895  -18.9717   25.1146 C.3     1  UNL1        0.0522
     11 C         -10.8112  -18.3039   24.5566 C.ar    1  UNL1        0.0623
     12 N         -12.1757  -18.7859   24.9513 N.ar    1  UNL1       -0.2484
     13 CA        -13.3974  -18.1181   24.3933 C.ar    1  UNL1        0.0948
     14 C         -13.2547  -16.9682   23.4406 C.ar    1  UNL1        0.0204
     15 C         -11.8902  -16.4863   23.0460 C.ar    1  UNL1        0.0058
     16 C         -10.6685  -17.1541   23.6040 C.ar    1  UNL1        0.0495
     17 C         -14.7620  -18.6001   24.7879 C.2     1  UNL1        0.0905
     18 O         -15.8334  -18.7514   23.7491 O.co2   1  UNL1       -0.5430
     19 OXT       -15.0551  -18.9308   26.2213 O.co2   1  UNL1       -0.5430
     20 C          -3.1936  -17.0335   23.6261 C.3     1  UNL1        0.0730
     21 N          -3.2183  -18.0899   22.5615 N.3     1  UNL1       -0.2726
     22 C          -2.0202  -18.7535   21.9500 C.3     1  UNL1        0.0721
     23 C          -2.5069  -19.7419   20.9321 C.3     1  UNL1        0.0190
     24 C          -4.0059  -19.6892   20.9145 C.3     1  UNL1        0.0201
     25 C          -4.1871  -20.7343   19.8540 C.3     1  UNL1        0.0061
     26 C          -5.3853  -20.0707   20.4655 C.3     1  UNL1        0.0237
     27 C          -4.4456  -18.6682   21.9216 C.3     1  UNL1        0.0724
     28 C          -6.8735  -19.9078   20.5593 C.ar    1  UNL1       -0.0225
     29 C          -7.6627  -19.5131   19.3464 C.ar    1  UNL1       -0.0043
     30 C          -9.1509  -19.3502   19.4402 C.ar    1  UNL1        0.0035
     31 C          -9.8498  -19.5821   20.7470 C.ar    1  UNL1        0.0714
     32 C          -9.0605  -19.9769   21.9600 C.ar    1  UNL1        0.0035
     33 C          -7.5724  -20.1397   21.8661 C.ar    1  UNL1       -0.0043
     34 C         -11.3379  -19.4192   20.8408 C.3     1  UNL1        0.4186
     35 F         -12.8262  -19.2563   20.9346 F       1  UNL1       -0.1659
     36 F         -11.3739  -20.4006   21.9746 F       1  UNL1       -0.1659
     37 F         -11.3020  -18.4377   19.7071 F       1  UNL1       -0.1659
@<TRIPOS>UNITY_ATOM_ATTR
18 1
charge -1
@<TRIPOS>BOND
     1    10    11    1
     2    11    12   ar
     3    12    13   ar
     4    13    17    1
     5    17    18   ar
     6    17    19   ar
     7    13    14   ar
     8    14    15   ar
     9    15    16   ar
    10    16     4    1
    11     4     5   ar
    12     5     6   ar
    13     6     7   ar
    14     7     3    1
    15     3     2    1
    16     2     1    1
    17     1    20    1
    18    20    21    1
    19    21    22    1
    20    22    23    1
    21    24    23    1
    22    24    25    1
    23    25    26    1
    24    26    28    1
    25    28    29   ar
    26    29    30   ar
    27    30    31   ar
    28    31    34    1
    29    34    35    1
    30    34    36    1
    31    34    37    1
    32    31    32   ar
    33    32    33   ar
    34    24    27    1
    35     7     8   ar
    36     8     9    1
    37    16    11   ar
    38     8     4   ar
    39    27    21    1
    40    26    24    1
    41    33    28   ar
@<TRIPOS>MOLECULE
*****
 37 41 0 0 0
SMALL
GASTEIGER

@<TRIPOS>ATOM
      1 C          -4.7900  -20.9615   19.6815 C.3     1  UNL1        0.0294
      2 C          -6.2232  -20.6561   20.0024 C.3     1  UNL1        0.0666
      3 S          -6.7666  -19.2776   19.7695 S.3     1  UNL1       -0.0756
      4 C          -9.4767  -18.1421   22.3056 C.ar    1  UNL1        0.1680
      5 N          -8.4222  -17.0973   22.5209 N.ar    1  UNL1       -0.1282
      6 N          -7.2787  -17.3955   21.5971 N.ar    1  UNL1       -0.1221
      7 C          -7.6264  -18.6246   20.8108 C.ar    1  UNL1        0.1932
      8 N          -8.9848  -19.0861   21.2486 N.ar    1  UNL1       -0.2884
      9 C          -9.7220  -20.2816   20.7220 C.3     1  UNL1        0.1340
     10 C          -9.7452  -19.8619   24.7489 C.3     1  UNL1        0.0522
     11 C         -10.9263  -19.0879   24.2431 C.ar    1  UNL1        0.0623
     12 N         -12.2417  -19.1738   24.9590 N.ar    1  UNL1       -0.2484
     13 CA        -13.4228  -18.3997   24.4531 C.ar    1  UNL1        0.0948
     14 C         -13.2886  -17.5398   23.2314 C.ar    1  UNL1        0.0204
     15 C         -11.9732  -17.4539   22.5155 C.ar    1  UNL1        0.0058
     16 C         -10.7921  -18.2280   23.0214 C.ar    1  UNL1        0.0495
     17 C         -14.7381  -18.4856   25.1690 C.2     1  UNL1        0.0905
     18 O         -14.8028  -18.2535   26.6495 O.co2   1  UNL1       -0.5430
     19 OXT       -15.9888  -18.8034   24.4043 O.co2   1  UNL1       -0.5430
     20 C          -3.7293  -20.7631   20.7233 C.3     1  UNL1        0.0730
     21 N          -3.0855  -19.4188   20.8916 N.3     1  UNL1       -0.2726
     22 C          -1.8931  -18.9115   20.1360 C.3     1  UNL1        0.0721
     23 C          -1.5918  -17.5249   20.6224 C.3     1  UNL1        0.0190
     24 C          -2.5979  -17.1753   21.6787 C.3     1  UNL1        0.0201
     25 C          -2.0628  -15.8018   21.9564 C.3     1  UNL1        0.0061
     26 C          -3.2551  -16.3091   22.7120 C.3     1  UNL1        0.0237
     27 C          -3.5210  -18.3458   21.8450 C.3     1  UNL1        0.0724
     28 C          -4.3230  -16.1019   23.7448 C.ar    1  UNL1       -0.0225
     29 C          -4.2142  -16.7741   25.0814 C.ar    1  UNL1       -0.0043
     30 C          -5.2820  -16.5669   26.1142 C.ar    1  UNL1        0.0035
     31 C          -6.4587  -15.6876   25.8105 C.ar    1  UNL1        0.0714
     32 C          -6.5675  -15.0155   24.4739 C.ar    1  UNL1        0.0035
     33 C          -5.4996  -15.2226   23.4411 C.ar    1  UNL1       -0.0043
     34 C          -7.5265  -15.4805   26.8433 C.3     1  UNL1        0.4186
     35 F          -8.5944  -15.2733   27.8762 F       1  UNL1       -0.1659
     36 F          -8.5043  -16.2224   25.9811 F       1  UNL1       -0.1659
     37 F          -6.5487  -14.7386   27.7055 F       1  UNL1       -0.1659
@<TRIPOS>UNITY_ATOM_ATTR
18 1
charge -1
@<TRIPOS>BOND
     1    10    11    1
     2    11    12   ar
     3    12    13   ar
     4    13    17    1
     5    17    18   ar
     6    17    19   ar
     7    13    14   ar
     8    14    15   ar
     9    15    16   ar
    10    16     4    1
    11     4     5   ar
    12     5     6   ar
    13     6     7   ar
    14     7     3    1
    15     3     2    1
    16     2     1    1
    17     1    20    1
    18    20    21    1
    19    21    22    1
    20    22    23    1
    21    24    23    1
    22    24    25    1
    23    25    26    1
    24    26    28    1
    25    28    29   ar
    26    29    30   ar
    27    30    31   ar
    28    31    34    1
    29    34    35    1
    30    34    36    1
    31    34    37    1
    32    31    32   ar
    33    32    33   ar
    34    24    27    1
    35     7     8   ar
    36     8     9    1
    37    16    11   ar
    38     8     4   ar
    39    27    21    1
    40    26    24    1
    41    33    28   ar
@<TRIPOS>MOLECULE
*****
 37 41 0 0 0
SMALL
GASTEIGER

@<TRIPOS>ATOM
      1 C          -0.4505    5.4901   18.5265 C.3     1  UNL1        0.0294
      2 C           0.5954    5.0010   19.4841 C.3     1  UNL1        0.0666
      3 S           0.1908    4.2439   20.7142 S.3     1  UNL1       -0.0756
      4 C           1.3542    0.5455   20.8996 C.ar    1  UNL1        0.1680
      5 N          -0.1324    0.3768   20.7922 N.ar    1  UNL1       -0.1282
      6 N          -0.7492    1.7416   20.7097 N.ar    1  UNL1       -0.1221
      7 C           0.3563    2.7539   20.7661 C.ar    1  UNL1        0.1932
      8 N           1.6562    2.0148   20.8835 N.ar    1  UNL1       -0.2884
      9 C           3.0189    2.6358   20.9696 C.3     1  UNL1        0.1340
     10 C           2.6049   -0.0973   23.5496 C.3     1  UNL1        0.0522
     11 C           2.9872   -0.8820   22.3297 C.ar    1  UNL1        0.0623
     12 N           3.9948   -1.9882   22.4349 N.ar    1  UNL1       -0.2484
     13 CA          4.3771   -2.7729   21.2151 C.ar    1  UNL1        0.0948
     14 C           3.7518   -2.4515   19.8900 C.ar    1  UNL1        0.0204
     15 C           2.7442   -1.3453   19.7849 C.ar    1  UNL1        0.0058
     16 C           2.3619   -0.5606   21.0047 C.ar    1  UNL1        0.0495
     17 C           5.3848   -3.8791   21.3202 C.2     1  UNL1        0.0905
     18 O           5.8069   -4.6284   20.0912 O.co2   1  UNL1       -0.5430
     19 OXT         5.9703   -4.2360   22.6543 O.co2   1  UNL1       -0.5430
     20 C          -1.0556    4.5460   17.5303 C.3     1  UNL1        0.0730
     21 N          -2.5168    4.2147   17.6026 N.3     1  UNL1       -0.2726
     22 C          -3.4287    3.9894   16.4331 C.3     1  UNL1        0.0721
     23 C          -4.7980    3.6859   16.9648 C.3     1  UNL1        0.0190
     24 C          -4.7325    3.7236   18.4629 C.3     1  UNL1        0.0201
     25 C          -6.1787    3.3979   18.6915 C.3     1  UNL1        0.0061
     26 C          -5.2668    3.6232   19.8610 C.3     1  UNL1        0.0237
     27 C          -3.3225    4.0504   18.8571 C.3     1  UNL1        0.0724
     28 C          -5.0488    3.6953   21.3433 C.ar    1  UNL1       -0.0225
     29 C          -3.6800    3.4658   21.9121 C.ar    1  UNL1       -0.0043
     30 C          -3.4620    3.5379   23.3944 C.ar    1  UNL1        0.0035
     31 C          -4.6129    3.8395   24.3079 C.ar    1  UNL1        0.0714
     32 C          -5.9818    4.0690   23.7390 C.ar    1  UNL1        0.0035
     33 C          -6.1997    3.9969   22.2567 C.ar    1  UNL1       -0.0043
     34 C          -4.3949    3.9116   25.7902 C.3     1  UNL1        0.4186
     35 F          -4.1769    3.9837   27.2726 F       1  UNL1       -0.1659
     36 F          -3.0555    3.2569   25.6251 F       1  UNL1       -0.1659
     37 F          -5.7343    4.5663   25.9553 F       1  UNL1       -0.1659
@<TRIPOS>UNITY_ATOM_ATTR
18 1
charge -1
@<TRIPOS>BOND
     1    10    11    1
     2    11    12   ar
     3    12    13   ar
     4    13    17    1
     5    17    18   ar
     6    17    19   ar
     7    13    14   ar
     8    14    15   ar
     9    15    16   ar
    10    16     4    1
    11     4     5   ar
    12     5     6   ar
    13     6     7   ar
    14     7     3    1
    15     3     2    1
    16     2     1    1
    17     1    20    1
    18    20    21    1
    19    21    22    1
    20    22    23    1
    21    24    23    1
    22    24    25    1
    23    25    26    1
    24    26    28    1
    25    28    29   ar
    26    29    30   ar
    27    30    31   ar
    28    31    34    1
    29    34    35    1
    30    34    36    1
    31    34    37    1
    32    31    32   ar
    33    32    33   ar
    34    24    27    1
    35     7     8   ar
    36     8     9    1
    37    16    11   ar
    38     8     4   ar
    39    27    21    1
    40    26    24    1
    41    33    28   ar
@<TRIPOS>MOLECULE
*****
 37 41 0 0 0
SMALL
GASTEIGER

@<TRIPOS>ATOM
      1 C          -0.4581    5.8086   19.4910 C.3     1  UNL1        0.0294
      2 C           0.6842    5.0253   20.0672 C.3     1  UNL1        0.0666
      3 S           1.6762    4.3654   19.1559 S.3     1  UNL1       -0.0756
      4 C           2.2679    0.5342   18.9620 C.ar    1  UNL1        0.1680
      5 N           0.9028    0.6481   18.3507 N.ar    1  UNL1       -0.1282
      6 N           0.5150    2.0971   18.3489 N.ar    1  UNL1       -0.1221
      7 C           1.6404    2.8788   18.9592 C.ar    1  UNL1        0.1932
      8 N           2.7238    1.9130   19.3380 N.ar    1  UNL1       -0.2884
      9 C           4.0330    2.2642   19.9802 C.3     1  UNL1        0.1340
     10 C           3.9082   -0.5925   16.7171 C.3     1  UNL1        0.0522
     11 C           3.8614   -1.2987   18.0396 C.ar    1  UNL1        0.0623
     12 N           4.6348   -2.5683   18.2396 N.ar    1  UNL1       -0.2484
     13 CA          4.5880   -3.2745   19.5621 C.ar    1  UNL1        0.0948
     14 C           3.7679   -2.7111   20.6847 C.ar    1  UNL1        0.0204
     15 C           2.9945   -1.4415   20.4846 C.ar    1  UNL1        0.0058
     16 C           3.0413   -0.7354   19.1621 C.ar    1  UNL1        0.0495
     17 C           5.3614   -4.5441   19.7622 C.2     1  UNL1        0.0905
     18 O           4.8858   -5.8193   19.1317 O.co2   1  UNL1       -0.5430
     19 OXT         6.6104   -4.5384   20.5928 O.co2   1  UNL1       -0.5430
     20 C          -1.0353    5.4248   18.1608 C.3     1  UNL1        0.0730
     21 N          -2.3899    4.7847   18.0874 N.3     1  UNL1       -0.2726
     22 C          -3.0579    4.2746   16.8450 C.3     1  UNL1        0.0721
     23 C          -4.3951    3.7170   17.2334 C.3     1  UNL1        0.0190
     24 C          -4.5536    3.8825   18.7158 C.3     1  UNL1        0.0201
     25 C          -5.9173    3.2632   18.7979 C.3     1  UNL1        0.0061
     26 C          -5.2493    3.7733   20.0403 C.3     1  UNL1        0.0237
     27 C          -3.3142    4.5424   19.2436 C.3     1  UNL1        0.0724
     28 C          -5.2652    4.0048   21.5222 C.ar    1  UNL1       -0.0225
     29 C          -4.8287    2.9153   22.4563 C.ar    1  UNL1       -0.0043
     30 C          -4.8447    3.1468   23.9382 C.ar    1  UNL1        0.0035
     31 C          -5.2971    4.4678   24.4861 C.ar    1  UNL1        0.0714
     32 C          -5.7336    5.5573   23.5520 C.ar    1  UNL1        0.0035
     33 C          -5.7177    5.3259   22.0701 C.ar    1  UNL1       -0.0043
     34 C          -5.3131    4.6993   25.9680 C.3     1  UNL1        0.4186
     35 F          -5.3291    4.9308   27.4500 F       1  UNL1       -0.1659
     36 F          -3.9705    4.0409   26.0853 F       1  UNL1       -0.1659
     37 F          -6.6557    5.3577   25.8507 F       1  UNL1       -0.1659
@<TRIPOS>UNITY_ATOM_ATTR
18 1
charge -1
@<TRIPOS>BOND
     1    10    11    1
     2    11    12   ar
     3    12    13   ar
     4    13    17    1
     5    17    18   ar
     6    17    19   ar
     7    13    14   ar
     8    14    15   ar
     9    15    16   ar
    10    16     4    1
    11     4     5   ar
    12     5     6   ar
    13     6     7   ar
    14     7     3    1
    15     3     2    1
    16     2     1    1
    17     1    20    1
    18    20    21    1
    19    21    22    1
    20    22    23    1
    21    24    23    1
    22    24    25    1
    23    25    26    1
    24    26    28    1
    25    28    29   ar
    26    29    30   ar
    27    30    31   ar
    28    31    34    1
    29    34    35    1
    30    34    36    1
    31    34    37    1
    32    31    32   ar
    33    32    33   ar
    34    24    27    1
    35     7     8   ar
    36     8     9    1
    37    16    11   ar
    38     8     4   ar
    39    27    21    1
    40    26    24    1
    41    33    28   ar
@<TRIPOS>MOLECULE
*****
 37 41 0 0 0
SMALL
GASTEIGER

@<TRIPOS>ATOM
      1 C           4.0305   -1.4667   24.9421 C.3     1  UNL1        0.0294
      2 C           4.2836   -1.0119   26.3490 C.3     1  UNL1        0.0666
      3 S           3.4076    0.0371   26.9671 S.3     1  UNL1       -0.0756
      4 C           3.0313   -0.1660   30.8249 C.ar    1  UNL1        0.1680
      5 N           1.6187   -0.4089   30.3827 N.ar    1  UNL1       -0.1282
      6 N           1.5877   -0.3624   28.8837 N.ar    1  UNL1       -0.1221
      7 C           2.9812   -0.0907   28.3995 C.ar    1  UNL1        0.1932
      8 N           3.8734    0.0307   29.5992 N.ar    1  UNL1       -0.2884
      9 C           5.3486    0.3012   29.5771 C.3     1  UNL1        0.1340
     10 C           2.5947    2.2896   32.4920 C.3     1  UNL1        0.0522
     11 C           3.2983    1.1012   33.0772 C.ar    1  UNL1        0.0623
     12 N           3.7836    1.1406   34.4960 N.ar    1  UNL1       -0.2484
     13 CA          4.4872   -0.0479   35.0812 C.ar    1  UNL1        0.0948
     14 C           4.7055   -1.2758   34.2477 C.ar    1  UNL1        0.0204
     15 C           4.2202   -1.3151   32.8289 C.ar    1  UNL1        0.0058
     16 C           3.5166   -0.1266   32.2437 C.ar    1  UNL1        0.0495
     17 C           4.9725   -0.0085   36.5000 C.2     1  UNL1        0.0905
     18 O           4.1158    0.6025   37.5690 O.co2   1  UNL1       -0.5430
     19 OXT         6.3144   -0.5802   36.8498 O.co2   1  UNL1       -0.5430
     20 C           5.1454   -2.0620   24.1342 C.3     1  UNL1        0.0730
     21 N           4.8736   -2.5932   22.7580 N.3     1  UNL1       -0.2726
     22 C           5.4176   -3.8664   22.1810 C.3     1  UNL1        0.0721
     23 C           4.8903   -4.0045   20.7836 C.3     1  UNL1        0.0190
     24 C           4.0203   -2.8166   20.4969 C.3     1  UNL1        0.0201
     25 C           3.6590   -3.2207   19.0983 C.3     1  UNL1        0.0061
     26 C           3.1149   -1.9475   19.6753 C.3     1  UNL1        0.0237
     27 C           4.0100   -1.9444   21.7172 C.3     1  UNL1        0.0724
     28 C           2.2782   -0.7106   19.5341 C.ar    1  UNL1       -0.0225
     29 C           2.6984    0.3753   18.5885 C.ar    1  UNL1       -0.0043
     30 C           1.8616    1.6121   18.4473 C.ar    1  UNL1        0.0035
     31 C           0.6046    1.7631   19.2517 C.ar    1  UNL1        0.0714
     32 C           0.1844    0.6771   20.1974 C.ar    1  UNL1        0.0035
     33 C           1.0211   -0.5597   20.3386 C.ar    1  UNL1       -0.0043
     34 C          -0.2322    2.9999   19.1105 C.3     1  UNL1        0.4186
     35 F          -1.0690    4.2368   18.9694 F       1  UNL1       -0.1659
     36 F          -0.0599    2.9465   17.6214 F       1  UNL1       -0.1659
     37 F          -0.4045    3.0533   20.5996 F       1  UNL1       -0.1659
@<TRIPOS>UNITY_ATOM_ATTR
18 1
charge -1
@<TRIPOS>BOND
     1    10    11    1
     2    11    12   ar
     3    12    13   ar
     4    13    17    1
     5    17    18   ar
     6    17    19   ar
     7    13    14   ar
     8    14    15   ar
     9    15    16   ar
    10    16     4    1
    11     4     5   ar
    12     5     6   ar
    13     6     7   ar
    14     7     3    1
    15     3     2    1
    16     2     1    1
    17     1    20    1
    18    20    21    1
    19    21    22    1
    20    22    23    1
    21    24    23    1
    22    24    25    1
    23    25    26    1
    24    26    28    1
    25    28    29   ar
    26    29    30   ar
    27    30    31   ar
    28    31    34    1
    29    34    35    1
    30    34    36    1
    31    34    37    1
    32    31    32   ar
    33    32    33   ar
    34    24    27    1
    35     7     8   ar
    36     8     9    1
    37    16    11   ar
    38     8     4   ar
    39    27    21    1
    40    26    24    1
    41    33    28   ar
@<TRIPOS>MOLECULE
*****
 37 41 0 0 0
SMALL
GASTEIGER

@<TRIPOS>ATOM
      1 C           0.6157    3.2445   18.3137 C.3     1  UNL1        0.0294
      2 C           0.7052    2.5049   19.6156 C.3     1  UNL1        0.0666
      3 S           0.7025    1.0049   19.6278 S.3     1  UNL1       -0.0756
      4 C           3.9122   -1.1570   19.3290 C.ar    1  UNL1        0.1680
      5 N           3.7591   -0.6688   17.9189 N.ar    1  UNL1       -0.1282
      6 N           2.5382    0.2004   17.8592 N.ar    1  UNL1       -0.1221
      7 C           1.9366    0.2495   19.2324 C.ar    1  UNL1        0.1932
      8 N           2.7858   -0.5894   20.1408 N.ar    1  UNL1       -0.2884
      9 C           2.5500   -0.8201   21.6041 C.3     1  UNL1        0.1340
     10 C           3.5356   -4.1331   19.3037 C.3     1  UNL1        0.0522
     11 C           4.8123   -3.5431   19.8252 C.ar    1  UNL1        0.0623
     12 N           5.9006   -4.4412   20.3341 N.ar    1  UNL1       -0.2484
     13 CA          7.1773   -3.8512   20.8556 C.ar    1  UNL1        0.0948
     14 C           7.3657   -2.3630   20.8683 C.ar    1  UNL1        0.0204
     15 C           6.2773   -1.4650   20.3594 C.ar    1  UNL1        0.0058
     16 C           5.0006   -2.0550   19.8378 C.ar    1  UNL1        0.0495
     17 C           8.2657   -4.7492   21.3645 C.2     1  UNL1        0.0905
     18 O           8.3704   -6.1591   20.8632 O.co2   1  UNL1       -0.5430
     19 OXT         9.2493   -4.2374   22.3746 O.co2   1  UNL1       -0.5430
     20 C          -0.3299    4.4000   18.1710 C.3     1  UNL1        0.0730
     21 N          -1.7963    4.1497   17.9780 N.3     1  UNL1       -0.2726
     22 C          -2.4815    3.8886   16.6695 C.3     1  UNL1        0.0721
     23 C          -3.9435    3.6941   16.9426 C.3     1  UNL1        0.0190
     24 C          -4.1619    3.8351   18.4199 C.3     1  UNL1        0.0201
     25 C          -5.6430    3.6009   18.3825 C.3     1  UNL1        0.0061
     26 C          -4.9579    3.8621   19.6911 C.3     1  UNL1        0.0237
     27 C          -2.8348    4.1167   19.0599 C.3     1  UNL1        0.0724
     28 C          -5.0218    4.0284   21.1804 C.ar    1  UNL1       -0.0225
     29 C          -4.6920    2.8735   22.0789 C.ar    1  UNL1       -0.0043
     30 C          -4.7559    3.0398   23.5683 C.ar    1  UNL1        0.0035
     31 C          -5.1496    4.3611   24.1591 C.ar    1  UNL1        0.0714
     32 C          -5.4794    5.5161   23.2606 C.ar    1  UNL1        0.0035
     33 C          -5.4155    5.3497   21.7712 C.ar    1  UNL1       -0.0043
     34 C          -5.2135    4.5275   25.6485 C.3     1  UNL1        0.4186
     35 F          -5.2774    4.6938   27.1379 F       1  UNL1       -0.1659
     36 F          -6.5443    5.2067   25.5155 F       1  UNL1       -0.1659
     37 F          -3.8827    3.8483   25.7815 F       1  UNL1       -0.1659
@<TRIPOS>UNITY_ATOM_ATTR
18 1
charge -1
@<TRIPOS>BOND
     1    10    11    1
     2    11    12   ar
     3    12    13   ar
     4    13    17    1
     5    17    18   ar
     6    17    19   ar
     7    13    14   ar
     8    14    15   ar
     9    15    16   ar
    10    16     4    1
    11     4     5   ar
    12     5     6   ar
    13     6     7   ar
    14     7     3    1
    15     3     2    1
    16     2     1    1
    17     1    20    1
    18    20    21    1
    19    21    22    1
    20    22    23    1
    21    24    23    1
    22    24    25    1
    23    25    26    1
    24    26    28    1
    25    28    29   ar
    26    29    30   ar
    27    30    31   ar
    28    31    34    1
    29    34    35    1
    30    34    36    1
    31    34    37    1
    32    31    32   ar
    33    32    33   ar
    34    24    27    1
    35     7     8   ar
    36     8     9    1
    37    16    11   ar
    38     8     4   ar
    39    27    21    1
    40    26    24    1
    41    33    28   ar
@<TRIPOS>MOLECULE
*****
 37 41 0 0 0
SMALL
GASTEIGER

@<TRIPOS>ATOM
      1 C           4.9644    1.2375   37.6586 C.3     1  UNL1        0.0294
      2 C           5.2063    0.0520   36.7719 C.3     1  UNL1        0.0666
      3 S           5.4416    0.2492   35.3037 S.3     1  UNL1       -0.0756
      4 C           5.5546   -2.5772   32.6458 C.ar    1  UNL1        0.1680
      5 N           4.1305   -2.6704   33.1078 N.ar    1  UNL1       -0.1282
      6 N           3.9149   -1.6230   34.1596 N.ar    1  UNL1       -0.1221
      7 C           5.2057   -0.8824   34.3478 C.ar    1  UNL1        0.1932
      8 N           6.2191   -1.4721   33.4122 N.ar    1  UNL1       -0.2884
      9 C           7.6464   -1.0337   33.2683 C.3     1  UNL1        0.1340
     10 C           5.7803   -1.5926   29.8210 C.3     1  UNL1        0.0522
     11 C           6.3135   -2.9456   30.1886 C.ar    1  UNL1        0.0623
     12 N           6.9597   -3.8062   29.1436 N.ar    1  UNL1       -0.2484
     13 CA          7.4929   -5.1592   29.5112 C.ar    1  UNL1        0.0948
     14 C           7.3801   -5.6516   30.9236 C.ar    1  UNL1        0.0204
     15 C           6.7340   -4.7909   31.9685 C.ar    1  UNL1        0.0058
     16 C           6.2007   -3.4379   31.6009 C.ar    1  UNL1        0.0495
     17 C           8.1391   -6.0199   28.4663 C.2     1  UNL1        0.0905
     18 O           8.9664   -7.2023   28.8753 O.co2   1  UNL1       -0.5430
     19 OXT         7.9579   -5.6981   27.0125 O.co2   1  UNL1       -0.5430
     20 C           3.5626    1.6308   38.0193 C.3     1  UNL1        0.0730
     21 N           2.8682    2.7180   37.2539 N.3     1  UNL1       -0.2726
     22 C           2.4143    4.0355   37.8092 C.3     1  UNL1        0.0721
     23 C           1.7713    4.8103   36.6973 C.3     1  UNL1        0.0190
     24 C           1.8278    3.9717   35.4549 C.3     1  UNL1        0.0201
     25 C           1.1431    4.9653   34.5639 C.3     1  UNL1        0.0061
     26 C           1.5969    3.6478   34.0086 C.3     1  UNL1        0.0237
     27 C           2.5057    2.6786   35.7989 C.3     1  UNL1        0.0724
     28 C           1.7256    2.7002   32.8530 C.ar    1  UNL1       -0.0225
     29 C           0.7089    2.7196   31.7503 C.ar    1  UNL1       -0.0043
     30 C           0.8376    1.7719   30.5947 C.ar    1  UNL1        0.0035
     31 C           1.9831    0.8049   30.5419 C.ar    1  UNL1        0.0714
     32 C           2.9998    0.7856   31.6445 C.ar    1  UNL1        0.0035
     33 C           2.8711    1.7332   32.8001 C.ar    1  UNL1       -0.0043
     34 C           2.1118   -0.1427   29.3863 C.3     1  UNL1        0.4186
     35 F           2.2406   -1.0904   28.2306 F       1  UNL1       -0.1659
     36 F           1.7577    0.9648   28.4386 F       1  UNL1       -0.1659
     37 F           2.4660   -1.2502   30.3339 F       1  UNL1       -0.1659
@<TRIPOS>UNITY_ATOM_ATTR
18 1
charge -1
@<TRIPOS>BOND
     1    10    11    1
     2    11    12   ar
     3    12    13   ar
     4    13    17    1
     5    17    18   ar
     6    17    19   ar
     7    13    14   ar
     8    14    15   ar
     9    15    16   ar
    10    16     4    1
    11     4     5   ar
    12     5     6   ar
    13     6     7   ar
    14     7     3    1
    15     3     2    1
    16     2     1    1
    17     1    20    1
    18    20    21    1
    19    21    22    1
    20    22    23    1
    21    24    23    1
    22    24    25    1
    23    25    26    1
    24    26    28    1
    25    28    29   ar
    26    29    30   ar
    27    30    31   ar
    28    31    34    1
    29    34    35    1
    30    34    36    1
    31    34    37    1
    32    31    32   ar
    33    32    33   ar
    34    24    27    1
    35     7     8   ar
    36     8     9    1
    37    16    11   ar
    38     8     4   ar
    39    27    21    1
    40    26    24    1
    41    33    28   ar
@<TRIPOS>MOLECULE
*****
 37 41 0 0 0
SMALL
GASTEIGER

@<TRIPOS>ATOM
      1 C           8.5845   -4.5388   22.7155 C.3     1  UNL1        0.0294
      2 C           8.0518   -4.7799   21.3342 C.3     1  UNL1        0.0666
      3 S           7.6634   -3.6193   20.4669 S.3     1  UNL1       -0.0756
      4 C           4.0963   -2.2322   19.8207 C.ar    1  UNL1        0.1680
      5 N           3.8882   -3.6961   19.5684 N.ar    1  UNL1       -0.1282
      6 N           5.1991   -4.3939   19.7798 N.ar    1  UNL1       -0.1221
      7 C           6.2174   -3.3613   20.1627 C.ar    1  UNL1        0.1932
      8 N           5.5360   -2.0253   20.1880 N.ar    1  UNL1       -0.2884
      9 C           6.1808   -0.7127   20.5220 C.3     1  UNL1        0.1340
     10 C           3.7523   -0.6988   17.2653 C.3     1  UNL1        0.0522
     11 C           2.8769   -0.3963   18.4452 C.ar    1  UNL1        0.0623
     12 N           1.8294    0.6729   18.3473 N.ar    1  UNL1       -0.2484
     13 CA          0.9539    0.9754   19.5271 C.ar    1  UNL1        0.0948
     14 C           1.1259    0.2087   20.8049 C.ar    1  UNL1        0.0204
     15 C           2.1734   -0.8605   20.9028 C.ar    1  UNL1        0.0058
     16 C           3.0489   -1.1630   19.7229 C.ar    1  UNL1        0.0495
     17 C          -0.0936    2.0446   19.4293 C.2     1  UNL1        0.0905
     18 O          -1.0705    2.2423   20.5502 O.co2   1  UNL1       -0.5430
     19 OXT        -0.1641    2.9162   18.2106 O.co2   1  UNL1       -0.5430
     20 C           7.6913   -4.7218   23.9065 C.3     1  UNL1        0.0730
     21 N           7.9332   -5.8557   24.8583 N.3     1  UNL1       -0.2726
     22 C           8.1745   -7.2873   24.4810 C.3     1  UNL1        0.0721
     23 C           8.3667   -8.0734   25.7440 C.3     1  UNL1        0.0190
     24 C           8.2442   -7.1276   26.9018 C.3     1  UNL1        0.0201
     25 C           8.4720   -8.1564   27.9694 C.3     1  UNL1        0.0061
     26 C           8.2308   -6.7248   28.3467 C.3     1  UNL1        0.0237
     27 C           7.9763   -5.7570   26.3544 C.3     1  UNL1        0.0724
     28 C           8.0837   -5.6657   29.3986 C.ar    1  UNL1       -0.0225
     29 C           9.2541   -5.2985   30.2620 C.ar    1  UNL1       -0.0043
     30 C           9.1070   -4.2395   31.3140 C.ar    1  UNL1        0.0035
     31 C           7.7896   -3.5475   31.5026 C.ar    1  UNL1        0.0714
     32 C           6.6192   -3.9147   30.6392 C.ar    1  UNL1        0.0035
     33 C           6.7663   -4.9738   29.5872 C.ar    1  UNL1       -0.0043
     34 C           7.6425   -2.4884   32.5546 C.3     1  UNL1        0.4186
     35 F           7.4955   -1.4293   33.6066 F       1  UNL1       -0.1659
     36 F           6.2720   -3.0033   32.8813 F       1  UNL1       -0.1659
     37 F           9.0130   -1.9736   32.2279 F       1  UNL1       -0.1659
@<TRIPOS>UNITY_ATOM_ATTR
18 1
charge -1
@<TRIPOS>BOND
     1    10    11    1
     2    11    12   ar
     3    12    13   ar
     4    13    17    1
     5    17    18   ar
     6    17    19   ar
     7    13    14   ar
     8    14    15   ar
     9    15    16   ar
    10    16     4    1
    11     4     5   ar
    12     5     6   ar
    13     6     7   ar
    14     7     3    1
    15     3     2    1
    16     2     1    1
    17     1    20    1
    18    20    21    1
    19    21    22    1
    20    22    23    1
    21    24    23    1
    22    24    25    1
    23    25    26    1
    24    26    28    1
    25    28    29   ar
    26    29    30   ar
    27    30    31   ar
    28    31    34    1
    29    34    35    1
    30    34    36    1
    31    34    37    1
    32    31    32   ar
    33    32    33   ar
    34    24    27    1
    35     7     8   ar
    36     8     9    1
    37    16    11   ar
    38     8     4   ar
    39    27    21    1
    40    26    24    1
    41    33    28   ar
@<TRIPOS>MOLECULE
*****
 37 41 0 0 0
SMALL
GASTEIGER

@<TRIPOS>ATOM
      1 C          -0.6011    0.6176   28.1383 C.3     1  UNL1        0.0294
      2 C          -0.4037    1.4155   26.8835 C.3     1  UNL1        0.0666
      3 S           0.9193    1.3876   26.1773 S.3     1  UNL1       -0.0756
      4 C           1.6040    0.9010   22.3878 C.ar    1  UNL1        0.1680
      5 N           0.4891    1.9040   22.3546 N.ar    1  UNL1       -0.1282
      6 N           0.0969    2.2084   23.7700 N.ar    1  UNL1       -0.1221
      7 C           0.9694    1.3935   24.6782 C.ar    1  UNL1        0.1932
      8 N           1.9008    0.5855   23.8240 N.ar    1  UNL1       -0.2884
      9 C           2.9457   -0.3702   24.3189 C.3     1  UNL1        0.1340
     10 C           3.5587    2.5595   20.8295 C.3     1  UNL1        0.0522
     11 C           3.2772    1.1455   20.4154 C.ar    1  UNL1        0.0623
     12 N           3.9730    0.5608   19.2221 N.ar    1  UNL1       -0.2484
     13 CA          3.6915   -0.8531   18.8080 C.ar    1  UNL1        0.0948
     14 C           2.7141   -1.6824   19.5872 C.ar    1  UNL1        0.0204
     15 C           2.0182   -1.0977   20.7805 C.ar    1  UNL1        0.0058
     16 C           2.2998    0.3163   21.1946 C.ar    1  UNL1        0.0495
     17 C           4.3873   -1.4379   17.6148 C.2     1  UNL1        0.0905
     18 O           5.3911   -2.5376   17.7962 O.co2   1  UNL1       -0.5430
     19 OXT         4.0793   -0.9229   16.2400 O.co2   1  UNL1       -0.5430
     20 C           0.5473   -0.1432   28.7319 C.3     1  UNL1        0.0730
     21 N           1.2270    0.3681   29.9675 N.3     1  UNL1       -0.2726
     22 C           0.7999    1.5527   30.7826 C.3     1  UNL1        0.0721
     23 C           1.7620    1.7012   31.9237 C.3     1  UNL1        0.0190
     24 C           2.7837    0.6085   31.8140 C.3     1  UNL1        0.0201
     25 C           3.5664    1.0027   33.0313 C.3     1  UNL1        0.0061
     26 C           3.9935   -0.1819   32.2162 C.3     1  UNL1        0.0237
     27 C           2.4530   -0.2155   30.6049 C.3     1  UNL1        0.0724
     28 C           4.9385   -1.3221   31.9779 C.ar    1  UNL1       -0.0225
     29 C           5.9166   -1.2607   30.8423 C.ar    1  UNL1       -0.0043
     30 C           6.8616   -2.4009   30.6039 C.ar    1  UNL1        0.0035
     31 C           6.8285   -3.6025   31.5011 C.ar    1  UNL1        0.0714
     32 C           5.8503   -3.6639   32.6367 C.ar    1  UNL1        0.0035
     33 C           4.9053   -2.5237   32.8751 C.ar    1  UNL1       -0.0043
     34 C           7.7735   -4.7427   31.2628 C.3     1  UNL1        0.4186
     35 F           8.7186   -5.8830   31.0244 F       1  UNL1       -0.1659
     36 F           6.6233   -5.6076   30.8398 F       1  UNL1       -0.1659
     37 F           8.9237   -3.8779   31.6858 F       1  UNL1       -0.1659
@<TRIPOS>UNITY_ATOM_ATTR
18 1
charge -1
@<TRIPOS>BOND
     1    10    11    1
     2    11    12   ar
     3    12    13   ar
     4    13    17    1
     5    17    18   ar
     6    17    19   ar
     7    13    14   ar
     8    14    15   ar
     9    15    16   ar
    10    16     4    1
    11     4     5   ar
    12     5     6   ar
    13     6     7   ar
    14     7     3    1
    15     3     2    1
    16     2     1    1
    17     1    20    1
    18    20    21    1
    19    21    22    1
    20    22    23    1
    21    24    23    1
    22    24    25    1
    23    25    26    1
    24    26    28    1
    25    28    29   ar
    26    29    30   ar
    27    30    31   ar
    28    31    34    1
    29    34    35    1
    30    34    36    1
    31    34    37    1
    32    31    32   ar
    33    32    33   ar
    34    24    27    1
    35     7     8   ar
    36     8     9    1
    37    16    11   ar
    38     8     4   ar
    39    27    21    1
    40    26    24    1
    41    33    28   ar
