@<TRIPOS>MOLECULE
*****
 28 30 0 0 0
SMALL
GASTEIGER

@<TRIPOS>ATOM
      1 C          -9.3476  -18.9124   21.5636 C.ar    1  UNL1        0.0252
      2 C          -8.0489  -18.8002   22.3056 C.ar    1  UNL1       -0.0009
      3 C          -6.7570  -19.1032   21.6063 C.ar    1  UNL1        0.0210
      4 C          -6.7638  -19.5183   20.1649 C.ar    1  UNL1        0.1397
      5 F          -5.4718  -19.8212   19.4655 F       1  UNL1       -0.2044
      6 C          -8.0625  -19.6305   19.4229 C.ar    1  UNL1        0.0587
      7 C          -9.3544  -19.3275   20.1222 C.ar    1  UNL1        0.1401
      8 F         -10.6532  -19.4397   19.3802 F       1  UNL1       -0.2044
      9 C         -10.4472  -20.0379   22.6784 C.3     1  UNL1        0.0291
     10 C         -10.6396  -18.6094   22.2630 C.3     1  UNL1        0.1080
     11 C         -10.3833  -17.2863   21.6046 C.3     1  UNL1        0.0388
     12 C         -11.3521  -16.1562   21.7899 C.3     1  UNL1        0.0671
     13 S         -12.5773  -16.3494   22.6336 S.3     1  UNL1       -0.0807
     14 C         -12.8336  -17.6726   23.2919 C.2     1  UNL1        0.1482
     15 N         -14.0588  -17.8657   24.1355 N.pl3   1  UNL1       -0.3380
     16 N         -11.8648  -18.8026   23.1066 N.2     1  UNL1       -0.2509
     17 H         -14.6947  -17.1241   24.2571 H       1  UNL1        0.1442
     18 H         -14.2270  -18.7342   24.5676 H       1  UNL1        0.1442
     19 C          -5.4581  -18.9910   22.3483 C.3     1  UNL1        0.0980
     20 N          -4.4398  -17.9730   21.9281 N.3     1  UNL1       -0.2892
     21 H          -4.3869  -17.2827   22.6772 H       1  UNL1        0.1237
     22 C          -3.0324  -18.3984   21.6311 C.3     1  UNL1        0.1307
     23 C          -1.8624  -19.2874   21.3297 C.3     1  UNL1        0.0245
     24 C          -3.2274  -19.8811   21.5150 C.3     1  UNL1        0.0245
     25 C          -2.3485  -17.0634   21.6442 C.3     1  UNL1        0.4088
     26 F          -1.6647  -15.7284   21.6572 F       1  UNL1       -0.1686
     27 F          -2.4775  -16.9827   20.1519 F       1  UNL1       -0.1686
     28 F          -2.2195  -17.1441   23.1364 F       1  UNL1       -0.1686
@<TRIPOS>BOND
     1    10     9    1
     2    10     1    1
     3     1     2   ar
     4     2     3   ar
     5     3    19    1
     6    19    20    1
     7    20    22    1
     8    22    25    1
     9    25    26    1
    10    25    27    1
    11    25    28    1
    12    22    23    1
    13    23    24    1
    14     3     4   ar
    15     4     5    1
    16     4     6   ar
    17     6     7   ar
    18     7     8    1
    19    10    11    1
    20    11    12    1
    21    12    13    1
    22    13    14    1
    23    14    15    1
    24    14    16    2
    25    16    10    1
    26     7     1   ar
    27    24    22    1
    28    20    21    1
    29    15    17    1
    30    15    18    1
@<TRIPOS>MOLECULE
*****
 28 30 0 0 0
SMALL
GASTEIGER

@<TRIPOS>ATOM
      1 C          -7.0168  -18.8743   22.0531 C.ar    1  UNL1        0.0252
      2 C          -7.8155  -17.6397   22.3494 C.ar    1  UNL1       -0.0009
      3 C          -9.0712  -17.7365   23.1642 C.ar    1  UNL1        0.0210
      4 C          -9.5281  -19.0678   23.6827 C.ar    1  UNL1        0.1397
      5 F         -10.7839  -19.1644   24.4975 F       1  UNL1       -0.2044
      6 C          -8.7294  -20.3023   23.3864 C.ar    1  UNL1        0.0587
      7 C          -7.4738  -20.2056   22.5716 C.ar    1  UNL1        0.1401
      8 F          -6.6750  -21.4403   22.2752 F       1  UNL1       -0.2044
      9 C          -6.7600  -19.0314   20.1483 C.3     1  UNL1        0.0291
     10 C          -5.7611  -18.7777   21.2383 C.3     1  UNL1        0.1080
     11 C          -5.1983  -18.5575   22.6111 C.3     1  UNL1        0.0388
     12 C          -3.7268  -18.3288   22.7907 C.3     1  UNL1        0.0671
     13 S          -2.8180  -18.3203   21.5973 S.3     1  UNL1       -0.0807
     14 C          -3.3807  -18.5404   20.2245 C.2     1  UNL1        0.1482
     15 N          -2.4719  -18.5319   19.0311 N.pl3   1  UNL1       -0.3380
     16 N          -4.8523  -18.7691   20.0449 N.2     1  UNL1       -0.2509
     17 H          -1.5061  -18.3818   19.1489 H       1  UNL1        0.1442
     18 H          -2.8413  -18.6764   18.1300 H       1  UNL1        0.1442
     19 C          -9.8699  -16.5018   23.4605 C.3     1  UNL1        0.0980
     20 N         -10.4834  -15.7182   22.3383 N.3     1  UNL1       -0.2892
     21 H          -9.7186  -15.4290   21.7285 H       1  UNL1        0.1237
     22 C         -11.5211  -16.3523   21.4603 C.3     1  UNL1        0.1307
     23 C         -12.2167  -16.8323   20.2209 C.3     1  UNL1        0.0245
     24 C         -10.8963  -16.1286   20.1151 C.3     1  UNL1        0.0245
     25 C         -12.5064  -16.7964   22.5005 C.3     1  UNL1        0.4088
     26 F         -13.4916  -17.2405   23.5407 F       1  UNL1       -0.1686
     27 F         -12.2146  -18.2291   22.1654 F       1  UNL1       -0.1686
     28 F         -12.7982  -15.3637   22.8356 F       1  UNL1       -0.1686
@<TRIPOS>BOND
     1    10     9    1
     2    10     1    1
     3     1     2   ar
     4     2     3   ar
     5     3    19    1
     6    19    20    1
     7    20    22    1
     8    22    25    1
     9    25    26    1
    10    25    27    1
    11    25    28    1
    12    22    23    1
    13    23    24    1
    14     3     4   ar
    15     4     5    1
    16     4     6   ar
    17     6     7   ar
    18     7     8    1
    19    10    11    1
    20    11    12    1
    21    12    13    1
    22    13    14    1
    23    14    15    1
    24    14    16    2
    25    16    10    1
    26     7     1   ar
    27    24    22    1
    28    20    21    1
    29    15    17    1
    30    15    18    1
@<TRIPOS>MOLECULE
*****
 28 30 0 0 0
SMALL
GASTEIGER

@<TRIPOS>ATOM
      1 C          -8.6024  -17.2761   23.4604 C.ar    1  UNL1        0.0252
      2 C          -7.7439  -18.2306   22.6848 C.ar    1  UNL1       -0.0009
      3 C          -6.2595  -18.0240   22.6233 C.ar    1  UNL1        0.0210
      4 C          -5.6337  -16.8627   23.3374 C.ar    1  UNL1        0.1397
      5 F          -4.1492  -16.6561   23.2759 F       1  UNL1       -0.2044
      6 C          -6.4923  -15.9082   24.1131 C.ar    1  UNL1        0.0587
      7 C          -7.9767  -16.1149   24.1746 C.ar    1  UNL1        0.1401
      8 F          -8.8353  -15.1603   24.9502 F       1  UNL1       -0.2044
      9 C          -9.6624  -18.2864   24.7152 C.3     1  UNL1        0.0291
     10 C         -10.0869  -17.4827   23.5220 C.3     1  UNL1        0.1080
     11 C          -9.9959  -16.6073   22.3074 C.3     1  UNL1        0.0388
     12 C         -11.2419  -16.2176   21.5687 C.3     1  UNL1        0.0671
     13 S         -12.5789  -16.7034   22.0446 S.3     1  UNL1       -0.0807
     14 C         -12.6699  -17.5788   23.2592 C.2     1  UNL1        0.1482
     15 N         -14.0069  -18.0646   23.7352 N.pl3   1  UNL1       -0.3380
     16 N         -11.4239  -17.9685   23.9979 N.2     1  UNL1       -0.2509
     17 H         -14.8247  -17.8089   23.2504 H       1  UNL1        0.1442
     18 H         -14.0666  -18.6392   24.5324 H       1  UNL1        0.1442
     19 C          -5.4008  -18.9785   21.8477 C.3     1  UNL1        0.0980
     20 N          -4.5460  -18.4742   20.7229 N.3     1  UNL1       -0.2892
     21 H          -4.6811  -17.4641   20.6805 H       1  UNL1        0.1237
     22 C          -3.0653  -18.7127   20.7411 C.3     1  UNL1        0.1307
     23 C          -1.7229  -19.2094   21.1900 C.3     1  UNL1        0.0245
     24 C          -2.9497  -19.5391   21.9875 C.3     1  UNL1        0.0245
     25 C          -2.6665  -17.9690   19.5009 C.3     1  UNL1        0.4088
     26 F          -2.2677  -17.2255   18.2608 F       1  UNL1       -0.1686
     27 F          -2.8643  -19.2153   18.6900 F       1  UNL1       -0.1686
     28 F          -2.4686  -16.7228   20.3119 F       1  UNL1       -0.1686
@<TRIPOS>BOND
     1    10     9    1
     2    10     1    1
     3     1     2   ar
     4     2     3   ar
     5     3    19    1
     6    19    20    1
     7    20    22    1
     8    22    25    1
     9    25    26    1
    10    25    27    1
    11    25    28    1
    12    22    23    1
    13    23    24    1
    14     3     4   ar
    15     4     5    1
    16     4     6   ar
    17     6     7   ar
    18     7     8    1
    19    10    11    1
    20    11    12    1
    21    12    13    1
    22    13    14    1
    23    14    15    1
    24    14    16    2
    25    16    10    1
    26     7     1   ar
    27    24    22    1
    28    20    21    1
    29    15    17    1
    30    15    18    1
@<TRIPOS>MOLECULE
*****
 28 30 0 0 0
SMALL
GASTEIGER

@<TRIPOS>ATOM
      1 C          -7.8953  -16.3359   23.3199 C.ar    1  UNL1        0.0252
      2 C          -6.4988  -16.7876   23.0105 C.ar    1  UNL1       -0.0009
      3 C          -5.3922  -16.5270   23.9890 C.ar    1  UNL1        0.0210
      4 C          -5.6821  -15.8147   25.2769 C.ar    1  UNL1        0.1397
      5 F          -4.5754  -15.5541   26.2554 F       1  UNL1       -0.2044
      6 C          -7.0786  -15.3630   25.5862 C.ar    1  UNL1        0.0587
      7 C          -8.1852  -15.6236   24.6077 C.ar    1  UNL1        0.1401
      8 F          -9.5818  -15.1719   24.9171 F       1  UNL1       -0.2044
      9 C          -8.4815  -15.2957   21.8056 C.3     1  UNL1        0.0291
     10 C          -9.0019  -16.5965   22.3413 C.3     1  UNL1        0.1080
     11 C          -9.1381  -17.8068   23.2169 C.3     1  UNL1        0.0388
     12 C         -10.2001  -18.8259   22.9279 C.3     1  UNL1        0.0671
     13 S         -11.1259  -18.6347   21.7633 S.3     1  UNL1       -0.0807
     14 C         -10.9898  -17.4244   20.8878 C.2     1  UNL1        0.1482
     15 N         -11.9157  -17.2332   19.7232 N.pl3   1  UNL1       -0.3380
     16 N          -9.9278  -16.4053   21.1767 N.2     1  UNL1       -0.2509
     17 H         -12.6127  -17.9021   19.5335 H       1  UNL1        0.1442
     18 H         -11.8263  -16.4389   19.1485 H       1  UNL1        0.1442
     19 C          -3.9956  -16.9786   23.6797 C.3     1  UNL1        0.0980
     20 N          -3.7714  -18.1892   22.8228 N.3     1  UNL1       -0.2892
     21 H          -4.6904  -18.5043   22.5120 H       1  UNL1        0.1237
     22 C          -2.9100  -18.0925   21.5987 C.3     1  UNL1        0.1307
     23 C          -1.9316  -17.5427   20.6034 C.3     1  UNL1        0.0245
     24 C          -2.2741  -16.7543   21.8327 C.3     1  UNL1        0.0245
     25 C          -3.2467  -19.3972   20.9395 C.3     1  UNL1        0.4088
     26 F          -3.5835  -20.7018   20.2803 F       1  UNL1       -0.1686
     27 F          -4.3698  -18.7333   20.1992 F       1  UNL1       -0.1686
     28 F          -2.1237  -20.0610   21.6798 F       1  UNL1       -0.1686
@<TRIPOS>BOND
     1    10     9    1
     2    10     1    1
     3     1     2   ar
     4     2     3   ar
     5     3    19    1
     6    19    20    1
     7    20    22    1
     8    22    25    1
     9    25    26    1
    10    25    27    1
    11    25    28    1
    12    22    23    1
    13    23    24    1
    14     3     4   ar
    15     4     5    1
    16     4     6   ar
    17     6     7   ar
    18     7     8    1
    19    10    11    1
    20    11    12    1
    21    12    13    1
    22    13    14    1
    23    14    15    1
    24    14    16    2
    25    16    10    1
    26     7     1   ar
    27    24    22    1
    28    20    21    1
    29    15    17    1
    30    15    18    1
@<TRIPOS>MOLECULE
*****
 28 30 0 0 0
SMALL
GASTEIGER

@<TRIPOS>ATOM
      1 C          -4.2399  -19.0790   21.1239 C.ar    1  UNL1        0.0252
      2 C          -5.1129  -18.1646   21.9311 C.ar    1  UNL1       -0.0009
      3 C          -6.5633  -18.4927   22.1279 C.ar    1  UNL1        0.0210
      4 C          -7.1407  -19.7352   21.5174 C.ar    1  UNL1        0.1397
      5 F          -8.5911  -20.0633   21.7143 F       1  UNL1       -0.2044
      6 C          -6.2677  -20.6497   20.7102 C.ar    1  UNL1        0.0587
      7 C          -4.8174  -20.3216   20.5134 C.ar    1  UNL1        0.1401
      8 F          -3.9443  -21.2361   19.7062 F       1  UNL1       -0.2044
      9 C          -2.7351  -19.3610   22.2964 C.3     1  UNL1        0.0291
     10 C          -2.7895  -18.7510   20.9270 C.3     1  UNL1        0.1080
     11 C          -3.3476  -18.2549   19.6262 C.3     1  UNL1        0.0388
     12 C          -2.4364  -17.6426   18.6040 C.3     1  UNL1        0.0671
     13 S          -0.9671  -17.5264   18.8827 S.3     1  UNL1       -0.0807
     14 C          -0.4090  -18.0225   20.1836 C.2     1  UNL1        0.1482
     15 N           1.0603  -17.9063   20.4624 N.pl3   1  UNL1       -0.3380
     16 N          -1.3202  -18.6348   21.2058 N.2     1  UNL1       -0.2509
     17 H           1.6583  -17.5044   19.7915 H       1  UNL1        0.1442
     18 H           1.4266  -18.2319   21.3163 H       1  UNL1        0.1442
     19 C          -7.4363  -17.5782   22.9352 C.3     1  UNL1        0.0980
     20 N          -7.0250  -16.1532   23.1594 N.3     1  UNL1       -0.2892
     21 H          -7.7963  -15.5696   22.8356 H       1  UNL1        0.1237
     22 C          -6.6752  -15.6819   24.5397 C.3     1  UNL1        0.1307
     23 C          -5.8522  -15.3431   25.7472 C.3     1  UNL1        0.0245
     24 C          -5.1912  -15.8998   24.5212 C.3     1  UNL1        0.0245
     25 C          -8.0377  -15.3002   25.0377 C.3     1  UNL1        0.4088
     26 F          -9.4001  -14.9185   25.5356 F       1  UNL1       -0.1686
     27 F          -8.0207  -14.0877   24.1548 F       1  UNL1       -0.1686
     28 F          -8.0546  -16.5127   25.9206 F       1  UNL1       -0.1686
@<TRIPOS>BOND
     1    10     9    1
     2    10     1    1
     3     1     2   ar
     4     2     3   ar
     5     3    19    1
     6    19    20    1
     7    20    22    1
     8    22    25    1
     9    25    26    1
    10    25    27    1
    11    25    28    1
    12    22    23    1
    13    23    24    1
    14     3     4   ar
    15     4     5    1
    16     4     6   ar
    17     6     7   ar
    18     7     8    1
    19    10    11    1
    20    11    12    1
    21    12    13    1
    22    13    14    1
    23    14    15    1
    24    14    16    2
    25    16    10    1
    26     7     1   ar
    27    24    22    1
    28    20    21    1
    29    15    17    1
    30    15    18    1
@<TRIPOS>MOLECULE
*****
 28 30 0 0 0
SMALL
GASTEIGER

@<TRIPOS>ATOM
      1 C          -8.6559  -17.8960   22.5529 C.ar    1  UNL1        0.0252
      2 C          -7.3927  -18.4314   21.9465 C.ar    1  UNL1       -0.0009
      3 C          -7.4340  -19.1233   20.6163 C.ar    1  UNL1        0.0210
      4 C          -8.7385  -19.2798   19.8924 C.ar    1  UNL1        0.1397
      5 F          -8.7797  -19.9718   18.5622 F       1  UNL1       -0.2044
      6 C         -10.0016  -18.7444   20.4988 C.ar    1  UNL1        0.0587
      7 C          -9.9603  -18.0525   21.8290 C.ar    1  UNL1        0.1401
      8 F         -11.2235  -17.5170   22.4354 F       1  UNL1       -0.2044
      9 C          -9.5501  -18.3316   24.2049 C.3     1  UNL1        0.0291
     10 C          -8.6147  -17.2040   23.8831 C.3     1  UNL1        0.1080
     11 C          -7.6936  -16.3168   23.0994 C.3     1  UNL1        0.0388
     12 C          -7.0561  -15.1292   23.7576 C.3     1  UNL1        0.0671
     13 S          -7.3397  -14.8289   25.1996 S.3     1  UNL1       -0.0807
     14 C          -8.2609  -15.7161   25.9834 C.2     1  UNL1        0.1482
     15 N          -8.5445  -15.4158   27.4254 N.pl3   1  UNL1       -0.3380
     16 N          -8.8983  -16.9037   25.3252 N.2     1  UNL1       -0.2509
     17 H          -8.1261  -14.6363   27.8574 H       1  UNL1        0.1442
     18 H          -9.1491  -15.9981   27.9398 H       1  UNL1        0.1442
     19 C          -6.1708  -19.6588   20.0099 C.3     1  UNL1        0.0980
     20 N          -5.0081  -18.7425   19.7677 N.3     1  UNL1       -0.2892
     21 H          -5.2896  -17.8175   20.0923 H       1  UNL1        0.1237
     22 C          -3.6783  -19.0360   20.3965 C.3     1  UNL1        0.1307
     23 C          -2.6660  -19.5093   21.3971 C.3     1  UNL1        0.0245
     24 C          -4.1307  -19.6557   21.6853 C.3     1  UNL1        0.0245
     25 C          -2.7640  -18.5181   19.3260 C.3     1  UNL1        0.4088
     26 F          -1.8498  -18.0002   18.2555 F       1  UNL1       -0.1686
     27 F          -2.5979  -17.2367   20.0878 F       1  UNL1       -0.1686
     28 F          -2.9303  -19.7995   18.5642 F       1  UNL1       -0.1686
@<TRIPOS>BOND
     1    10     9    1
     2    10     1    1
     3     1     2   ar
     4     2     3   ar
     5     3    19    1
     6    19    20    1
     7    20    22    1
     8    22    25    1
     9    25    26    1
    10    25    27    1
    11    25    28    1
    12    22    23    1
    13    23    24    1
    14     3     4   ar
    15     4     5    1
    16     4     6   ar
    17     6     7   ar
    18     7     8    1
    19    10    11    1
    20    11    12    1
    21    12    13    1
    22    13    14    1
    23    14    15    1
    24    14    16    2
    25    16    10    1
    26     7     1   ar
    27    24    22    1
    28    20    21    1
    29    15    17    1
    30    15    18    1
@<TRIPOS>MOLECULE
*****
 28 30 0 0 0
SMALL
GASTEIGER

@<TRIPOS>ATOM
      1 C          -4.5161  -19.1121   20.9547 C.ar    1  UNL1        0.0252
      2 C          -5.4585  -18.1517   21.6177 C.ar    1  UNL1       -0.0009
      3 C          -6.9181  -18.4822   21.7186 C.ar    1  UNL1        0.0210
      4 C          -7.4354  -19.7731   21.1564 C.ar    1  UNL1        0.1397
      5 F          -8.8951  -20.1036   21.2573 F       1  UNL1       -0.2044
      6 C          -6.4931  -20.7335   20.4934 C.ar    1  UNL1        0.0587
      7 C          -5.0334  -20.4030   20.3926 C.ar    1  UNL1        0.1401
      8 F          -4.0910  -21.3634   19.7295 F       1  UNL1       -0.2044
      9 C          -3.0856  -19.4211   22.2105 C.3     1  UNL1        0.0291
     10 C          -3.0564  -18.7817   20.8539 C.3     1  UNL1        0.1080
     11 C          -3.5341  -18.2570   19.5323 C.3     1  UNL1        0.0388
     12 C          -2.5624  -17.6240   18.5811 C.3     1  UNL1        0.0671
     13 S          -1.1128  -17.5156   18.9514 S.3     1  UNL1       -0.0807
     14 C          -0.6351  -18.0402   20.2729 C.2     1  UNL1        0.1482
     15 N           0.8145  -17.9319   20.6432 N.pl3   1  UNL1       -0.3380
     16 N          -1.6068  -18.6733   21.2242 N.2     1  UNL1       -0.2509
     17 H           1.4523  -17.5164   20.0189 H       1  UNL1        0.1442
     18 H           1.1280  -18.2762   21.5106 H       1  UNL1        0.1442
     19 C          -7.8605  -17.5218   22.3816 C.3     1  UNL1        0.0980
     20 N          -8.5195  -17.8917   23.6774 N.3     1  UNL1       -0.2892
     21 H          -8.2860  -17.1580   24.3464 H       1  UNL1        0.1237
     22 C         -10.0071  -18.0744   23.7369 C.3     1  UNL1        0.1307
     23 C         -11.4672  -17.8400   23.4855 C.3     1  UNL1        0.0245
     24 C         -10.4445  -16.9368   22.8625 C.3     1  UNL1        0.0245
     25 C         -10.0864  -19.2755   24.6319 C.3     1  UNL1        0.4088
     26 F         -10.1657  -20.4766   25.5269 F       1  UNL1       -0.1686
     27 F         -10.3447  -20.1475   23.4390 F       1  UNL1       -0.1686
     28 F          -9.8281  -18.4035   25.8248 F       1  UNL1       -0.1686
@<TRIPOS>BOND
     1    10     9    1
     2    10     1    1
     3     1     2   ar
     4     2     3   ar
     5     3    19    1
     6    19    20    1
     7    20    22    1
     8    22    25    1
     9    25    26    1
    10    25    27    1
    11    25    28    1
    12    22    23    1
    13    23    24    1
    14     3     4   ar
    15     4     5    1
    16     4     6   ar
    17     6     7   ar
    18     7     8    1
    19    10    11    1
    20    11    12    1
    21    12    13    1
    22    13    14    1
    23    14    15    1
    24    14    16    2
    25    16    10    1
    26     7     1   ar
    27    24    22    1
    28    20    21    1
    29    15    17    1
    30    15    18    1
@<TRIPOS>MOLECULE
*****
 28 30 0 0 0
SMALL
GASTEIGER

@<TRIPOS>ATOM
      1 C         -16.1877   -7.1032   19.1183 C.ar    1  UNL1        0.0252
      2 C         -14.7102   -7.3098   18.9628 C.ar    1  UNL1       -0.0009
      3 C         -13.7591   -6.1959   19.2859 C.ar    1  UNL1        0.0210
      4 C         -14.2854   -4.8753   19.7645 C.ar    1  UNL1        0.1397
      5 F         -13.3342   -3.7614   20.0877 F       1  UNL1       -0.2044
      6 C         -15.7629   -4.6687   19.9201 C.ar    1  UNL1        0.0587
      7 C         -16.7141   -5.7827   19.5970 C.ar    1  UNL1        0.1401
      8 F         -18.1917   -5.5761   19.7525 F       1  UNL1       -0.2044
      9 C         -16.7311   -8.6170   20.1822 C.3     1  UNL1        0.0291
     10 C         -17.1390   -8.2172   18.7952 C.3     1  UNL1        0.1080
     11 C         -17.2165   -7.4305   17.5205 C.3     1  UNL1        0.0388
     12 C         -18.1036   -7.8965   16.4043 C.3     1  UNL1        0.0671
     13 S         -18.9131   -9.1494   16.5629 S.3     1  UNL1       -0.0807
     14 C         -18.8356   -9.9361   17.8377 C.2     1  UNL1        0.1482
     15 N         -19.6451  -11.1889   17.9963 N.pl3   1  UNL1       -0.3380
     16 N         -17.9485   -9.4700   18.9538 N.2     1  UNL1       -0.2509
     17 H         -20.2274  -11.4948   17.2637 H       1  UNL1        0.1442
     18 H         -19.5942  -11.7052   18.8330 H       1  UNL1        0.1442
     19 C         -12.2815   -6.4025   19.1303 C.3     1  UNL1        0.0980
     20 N         -11.6506   -6.3132   17.7724 N.3     1  UNL1       -0.2892
     21 H         -12.3221   -5.8421   17.1662 H       1  UNL1        0.1237
     22 C         -10.3398   -5.6049   17.5995 C.3     1  UNL1        0.1307
     23 C          -9.2867   -4.7118   17.0134 C.3     1  UNL1        0.0245
     24 C         -10.6269   -4.8270   16.3496 C.3     1  UNL1        0.0245
     25 C          -9.5973   -6.1368   18.7895 C.3     1  UNL1        0.4088
     26 F          -8.8550   -6.6686   19.9794 F       1  UNL1       -0.1686
     27 F          -9.7998   -4.8310   19.4995 F       1  UNL1       -0.1686
     28 F          -9.3949   -7.4425   18.0794 F       1  UNL1       -0.1686
@<TRIPOS>BOND
     1    10     9    1
     2    10     1    1
     3     1     2   ar
     4     2     3   ar
     5     3    19    1
     6    19    20    1
     7    20    22    1
     8    22    25    1
     9    25    26    1
    10    25    27    1
    11    25    28    1
    12    22    23    1
    13    23    24    1
    14     3     4   ar
    15     4     5    1
    16     4     6   ar
    17     6     7   ar
    18     7     8    1
    19    10    11    1
    20    11    12    1
    21    12    13    1
    22    13    14    1
    23    14    15    1
    24    14    16    2
    25    16    10    1
    26     7     1   ar
    27    24    22    1
    28    20    21    1
    29    15    17    1
    30    15    18    1
@<TRIPOS>MOLECULE
*****
 28 30 0 0 0
SMALL
GASTEIGER

@<TRIPOS>ATOM
      1 C         -12.7758   -3.5458   19.0767 C.ar    1  UNL1        0.0252
      2 C         -13.0302   -5.0012   18.8177 C.ar    1  UNL1       -0.0009
      3 C         -11.8947   -5.9053   18.4395 C.ar    1  UNL1        0.0210
      4 C         -10.5047   -5.3540   18.3203 C.ar    1  UNL1        0.1397
      5 F          -9.3692   -6.2583   17.9420 F       1  UNL1       -0.2044
      6 C         -10.2503   -3.8987   18.5793 C.ar    1  UNL1        0.0587
      7 C         -11.3858   -2.9946   18.9576 C.ar    1  UNL1        0.1401
      8 F         -11.1315   -1.5391   19.2166 F       1  UNL1       -0.2044
      9 C         -13.5769   -3.2162   20.7996 C.3     1  UNL1        0.0291
     10 C         -13.9113   -2.6416   19.4550 C.3     1  UNL1        0.1080
     11 C         -13.8514   -2.3810   17.9791 C.3     1  UNL1        0.0388
     12 C         -14.8109   -1.4158   17.3483 C.3     1  UNL1        0.0671
     13 S         -15.8303   -0.7112   18.1936 S.3     1  UNL1       -0.0807
     14 C         -15.8902   -0.9718   19.6695 C.2     1  UNL1        0.1482
     15 N         -16.9096   -0.2672   20.5148 N.pl3   1  UNL1       -0.3380
     16 N         -14.9307   -1.9370   20.3003 N.2     1  UNL1       -0.2509
     17 H         -17.5393    0.3663   20.1008 H       1  UNL1        0.1442
     18 H         -16.9489   -0.4382   21.4835 H       1  UNL1        0.1442
     19 C         -12.1491   -7.3607   18.1804 C.3     1  UNL1        0.0980
     20 N         -13.3274   -8.0403   18.8127 N.3     1  UNL1       -0.2892
     21 H         -13.5259   -7.5399   19.6790 H       1  UNL1        0.1237
     22 C         -14.6238   -8.1433   18.0653 C.3     1  UNL1        0.1307
     23 C         -15.5947   -8.1536   16.9219 C.3     1  UNL1        0.0245
     24 C         -14.1366   -7.9123   16.6656 C.3     1  UNL1        0.0245
     25 C         -15.5613   -8.4100   19.2055 C.3     1  UNL1        0.4088
     26 F         -16.4987   -8.6767   20.3456 F       1  UNL1       -0.1686
     27 F         -15.4721   -6.9699   19.6157 F       1  UNL1       -0.1686
     28 F         -15.6504   -9.8500   18.7952 F       1  UNL1       -0.1686
@<TRIPOS>BOND
     1    10     9    1
     2    10     1    1
     3     1     2   ar
     4     2     3   ar
     5     3    19    1
     6    19    20    1
     7    20    22    1
     8    22    25    1
     9    25    26    1
    10    25    27    1
    11    25    28    1
    12    22    23    1
    13    23    24    1
    14     3     4   ar
    15     4     5    1
    16     4     6   ar
    17     6     7   ar
    18     7     8    1
    19    10    11    1
    20    11    12    1
    21    12    13    1
    22    13    14    1
    23    14    15    1
    24    14    16    2
    25    16    10    1
    26     7     1   ar
    27    24    22    1
    28    20    21    1
    29    15    17    1
    30    15    18    1
