@<TRIPOS>MOLECULE
*****
 30 32 0 0 0
SMALL
GASTEIGER

@<TRIPOS>ATOM
      1 N           3.4813   -1.1819   27.7394 N.am    1  UNL1       -0.2917
      2 C           3.4695   -0.3185   26.5129 C.2     1  UNL1        0.2463
      3 O           3.2272    1.1566   26.6364 O.2     1  UNL1       -0.2701
      4 H           3.6404   -2.1501   27.6583 H       1  UNL1        0.1502
      5 C           3.7000   -0.9302   25.1628 C.ar    1  UNL1        0.0556
      6 C           4.7628   -1.9734   24.9836 C.ar    1  UNL1        0.0047
      7 C           4.9933   -2.5850   23.6335 C.ar    1  UNL1        0.0024
      8 C           4.1609   -2.1535   22.4626 C.ar    1  UNL1        0.0275
      9 C           3.0981   -1.1103   22.6418 C.ar    1  UNL1        0.1402
     10 F           2.2658   -0.6787   21.4709 F       1  UNL1       -0.2042
     11 C           2.8677   -0.4986   23.9919 C.ar    1  UNL1        0.0341
     12 C           4.3914   -2.7651   21.1125 C.ar    1  UNL1        0.0022
     13 C           3.9561   -4.1752   20.8437 C.ar    1  UNL1        0.0001
     14 C           4.1866   -4.7869   19.4936 C.ar    1  UNL1        0.0000
     15 C           4.8524   -3.9885   18.4123 C.ar    1  UNL1        0.0000
     16 C           5.2877   -2.5783   18.6811 C.ar    1  UNL1        0.0000
     17 C           5.0572   -1.9667   20.0311 C.ar    1  UNL1        0.0001
     18 C           3.2508   -0.5702   29.0895 C.3     1  UNL1        0.1945
     19 C           1.8576   -0.2362   29.5335 C.2     1  UNL1        0.3369
     20 O           1.6301    0.4068   30.8696 O.2     1  UNL1       -0.2482
     21 O           0.6918   -0.5450   28.6416 O.3     1  UNL1       -0.4511
     22 C          -1.7835    0.0231   29.1894 C.3     1  UNL1        0.0473
     23 C          -0.4701    0.4010   28.5713 C.3     1  UNL1        0.1691
     24 C          -0.3186    1.7250   27.8829 C.3     1  UNL1        0.0473
     25 C           4.4136   -0.2927   29.9955 C.3     1  UNL1        0.1386
     26 N           4.8493   -1.3239   30.9939 N.ar    1  UNL1       -0.3055
     27 C           6.0343   -2.2340   30.8614 C.ar    1  UNL1        0.0981
     28 C           6.0939   -3.0986   32.0857 C.ar    1  UNL1        0.1193
     29 N           4.9456   -2.7229   32.9748 N.ar    1  UNL1       -0.2223
     30 C           4.1765   -1.6260   32.3000 C.ar    1  UNL1        0.1787
@<TRIPOS>BOND
     1    22    23    1
     2    23    24    1
     3    23    21    1
     4    21    19    1
     5    19    20    2
     6    19    18    1
     7    18    25    1
     8    25    26    1
     9    26    27   ar
    10    27    28   ar
    11    28    29   ar
    12    29    30   ar
    13    18     1    1
    14     1     2   am
    15     2     3    2
    16     2     5    1
    17     5     6   ar
    18     6     7   ar
    19     7     8   ar
    20     8    12    1
    21    12    13   ar
    22    13    14   ar
    23    14    15   ar
    24    15    16   ar
    25    16    17   ar
    26     8     9   ar
    27     9    10    1
    28     9    11   ar
    29    30    26   ar
    30    11     5   ar
    31    17    12   ar
    32     1     4    1
@<TRIPOS>MOLECULE
*****
 30 32 0 0 0
SMALL
GASTEIGER

@<TRIPOS>ATOM
      1 N           3.4888   -1.1733   27.7450 N.am    1  UNL1       -0.2917
      2 C           3.4384   -0.3177   26.5140 C.2     1  UNL1        0.2463
      3 O           3.1575    1.1510   26.6325 O.2     1  UNL1       -0.2701
      4 H           3.6732   -2.1373   27.6673 H       1  UNL1        0.1502
      5 C           3.6689   -0.9308   25.1645 C.ar    1  UNL1        0.0556
      6 C           2.8987   -0.4381   23.9755 C.ar    1  UNL1        0.0047
      7 C           3.1292   -1.0512   22.6261 C.ar    1  UNL1        0.0024
      8 C           4.1300   -2.1569   22.4657 C.ar    1  UNL1        0.0275
      9 C           4.9003   -2.6496   23.6548 C.ar    1  UNL1        0.1402
     10 F           5.9011   -3.7554   23.4945 F       1  UNL1       -0.2042
     11 C           4.6697   -2.0365   25.0042 C.ar    1  UNL1        0.0341
     12 C           4.3606   -2.7700   21.1162 C.ar    1  UNL1        0.0022
     13 C           3.9345   -4.1837   20.8520 C.ar    1  UNL1        0.0001
     14 C           4.1650   -4.7968   19.5026 C.ar    1  UNL1        0.0000
     15 C           4.8216   -3.9961   18.4173 C.ar    1  UNL1        0.0000
     16 C           5.2477   -2.5823   18.6816 C.ar    1  UNL1        0.0000
     17 C           5.0171   -1.9693   20.0310 C.ar    1  UNL1        0.0001
     18 C           3.2583   -0.5602   29.0945 C.3     1  UNL1        0.1945
     19 C           1.8657   -0.2188   29.5352 C.2     1  UNL1        0.3369
     20 O           1.6423    0.4683   30.8498 O.2     1  UNL1       -0.2482
     21 O           0.6966   -0.5646   28.6614 O.3     1  UNL1       -0.4511
     22 C          -0.3245    1.6770   27.8350 C.3     1  UNL1        0.0473
     23 C          -0.4697    0.3736   28.5631 C.3     1  UNL1        0.1691
     24 C          -1.7811    0.0085   29.1930 C.3     1  UNL1        0.0473
     25 C           4.4203   -0.2886   30.0033 C.3     1  UNL1        0.1386
     26 N           4.7981   -1.2874   31.0566 N.ar    1  UNL1       -0.3055
     27 C           4.1080   -1.4831   32.3740 C.ar    1  UNL1        0.0981
     28 C           4.8157   -2.5825   33.1092 C.ar    1  UNL1        0.1193
     29 N           5.9432   -3.0662   32.2461 N.ar    1  UNL1       -0.2223
     30 C           5.9323   -2.2658   30.9776 C.ar    1  UNL1        0.1787
@<TRIPOS>BOND
     1    22    23    1
     2    23    24    1
     3    23    21    1
     4    21    19    1
     5    19    20    2
     6    19    18    1
     7    18    25    1
     8    25    26    1
     9    26    27   ar
    10    27    28   ar
    11    28    29   ar
    12    29    30   ar
    13    18     1    1
    14     1     2   am
    15     2     3    2
    16     2     5    1
    17     5     6   ar
    18     6     7   ar
    19     7     8   ar
    20     8    12    1
    21    12    13   ar
    22    13    14   ar
    23    14    15   ar
    24    15    16   ar
    25    16    17   ar
    26     8     9   ar
    27     9    10    1
    28     9    11   ar
    29    30    26   ar
    30    11     5   ar
    31    17    12   ar
    32     1     4    1
@<TRIPOS>MOLECULE
*****
 30 32 0 0 0
SMALL
GASTEIGER

@<TRIPOS>ATOM
      1 N          -1.6845    2.3989   20.7327 N.am    1  UNL1       -0.2917
      2 C          -0.4937    2.5176   19.8283 C.2     1  UNL1        0.2463
      3 O          -0.3185    3.7390   18.9754 O.2     1  UNL1       -0.2701
      4 H          -1.7995    1.5973   21.2925 H       1  UNL1        0.1502
      5 C           0.5220    1.4149   19.7769 C.ar    1  UNL1        0.0556
      6 C           0.7098    0.5125   20.9602 C.ar    1  UNL1        0.0047
      7 C           1.7254   -0.5901   20.9088 C.ar    1  UNL1        0.0024
      8 C           2.5532   -0.7903   19.6740 C.ar    1  UNL1        0.0275
      9 C           2.3654    0.1122   18.4907 C.ar    1  UNL1        0.1402
     10 F           3.1933   -0.0880   17.2560 F       1  UNL1       -0.2042
     11 C           1.3498    1.2148   18.5422 C.ar    1  UNL1        0.0341
     12 C           3.5689   -1.8930   19.6226 C.ar    1  UNL1        0.0022
     13 C           3.1581   -3.2718   19.1984 C.ar    1  UNL1        0.0001
     14 C           4.1737   -4.3745   19.1470 C.ar    1  UNL1        0.0000
     15 C           5.6002   -4.0983   19.5198 C.ar    1  UNL1        0.0000
     16 C           6.0110   -2.7193   19.9439 C.ar    1  UNL1        0.0000
     17 C           4.9953   -1.6167   19.9953 C.ar    1  UNL1        0.0001
     18 C          -2.7001    3.5016   20.7841 C.3     1  UNL1        0.1945
     19 C          -3.8178    3.5390   19.7844 C.2     1  UNL1        0.3369
     20 O          -3.5520    3.9905   18.3788 O.2     1  UNL1       -0.2482
     21 O          -5.2012    3.1250   20.1902 O.3     1  UNL1       -0.4511
     22 C          -7.0732    4.2265   18.7647 C.3     1  UNL1        0.0473
     23 C          -6.3404    4.0930   20.0666 C.3     1  UNL1        0.1691
     24 C          -6.7467    4.9274   21.2449 C.3     1  UNL1        0.0473
     25 C          -2.5981    4.5669   21.8352 C.3     1  UNL1        0.1386
     26 N          -3.5409    4.5621   23.0018 N.ar    1  UNL1       -0.3055
     27 C          -4.2385    3.3603   23.5668 C.ar    1  UNL1        0.0981
     28 C          -5.0804    3.8137   24.7224 C.ar    1  UNL1        0.1193
     29 N          -4.9032    5.2958   24.8717 N.ar    1  UNL1       -0.2223
     30 C          -3.9517    5.7582   23.8083 C.ar    1  UNL1        0.1787
@<TRIPOS>BOND
     1    22    23    1
     2    23    24    1
     3    23    21    1
     4    21    19    1
     5    19    20    2
     6    19    18    1
     7    18    25    1
     8    25    26    1
     9    26    27   ar
    10    27    28   ar
    11    28    29   ar
    12    29    30   ar
    13    18     1    1
    14     1     2   am
    15     2     3    2
    16     2     5    1
    17     5     6   ar
    18     6     7   ar
    19     7     8   ar
    20     8    12    1
    21    12    13   ar
    22    13    14   ar
    23    14    15   ar
    24    15    16   ar
    25    16    17   ar
    26     8     9   ar
    27     9    10    1
    28     9    11   ar
    29    30    26   ar
    30    11     5   ar
    31    17    12   ar
    32     1     4    1
@<TRIPOS>MOLECULE
*****
 30 32 0 0 0
SMALL
GASTEIGER

@<TRIPOS>ATOM
      1 N          -2.0958    2.4498   20.4246 N.am    1  UNL1       -0.2917
      2 C          -0.6294    2.7409   20.5467 C.2     1  UNL1        0.2463
      3 O          -0.1689    4.0896   21.0144 O.2     1  UNL1       -0.2701
      4 H          -2.3980    1.5645   20.1176 H       1  UNL1        0.1502
      5 C           0.3765    1.6831   20.2012 C.ar    1  UNL1        0.0556
      6 C           0.8176    1.5036   18.7789 C.ar    1  UNL1        0.0047
      7 C           1.8235    0.4459   18.4334 C.ar    1  UNL1        0.0024
      8 C           2.3883   -0.4323   19.5104 C.ar    1  UNL1        0.0275
      9 C           1.9472   -0.2528   20.9327 C.ar    1  UNL1        0.1402
     10 F           2.5120   -1.1310   22.0096 F       1  UNL1       -0.2042
     11 C           0.9413    0.8049   21.2782 C.ar    1  UNL1        0.0341
     12 C           3.3943   -1.4900   19.1649 C.ar    1  UNL1        0.0022
     13 C           4.6951   -1.1071   18.5236 C.ar    1  UNL1        0.0001
     14 C           5.7011   -2.1648   18.1781 C.ar    1  UNL1        0.0000
     15 C           5.4061   -3.6055   18.4739 C.ar    1  UNL1        0.0000
     16 C           4.1053   -3.9884   19.1152 C.ar    1  UNL1        0.0000
     17 C           3.0994   -2.9307   19.4606 C.ar    1  UNL1        0.0001
     18 C          -3.1018    3.5075   20.7701 C.3     1  UNL1        0.1945
     19 C          -3.5979    3.6389   22.1795 C.2     1  UNL1        0.3369
     20 O          -2.7877    4.3921   23.1927 O.2     1  UNL1       -0.2482
     21 O          -4.9041    3.0172   22.5759 O.3     1  UNL1       -0.4511
     22 C          -7.1291    4.3519   22.7099 C.3     1  UNL1        0.0473
     23 C          -5.8992    3.8069   23.3735 C.3     1  UNL1        0.1691
     24 C          -5.6644    4.0516   24.8346 C.3     1  UNL1        0.0473
     25 C          -3.6116    4.4338   19.7061 C.3     1  UNL1        0.1386
     26 N          -5.0725    4.4546   19.3669 N.ar    1  UNL1       -0.3055
     27 C          -5.9932    5.6307   19.5052 C.ar    1  UNL1        0.0981
     28 C          -7.3591    5.2058   19.0536 C.ar    1  UNL1        0.1193
     29 N          -7.2825    3.7671   18.6362 N.ar    1  UNL1       -0.2223
     30 C          -5.8694    3.3028   18.8298 C.ar    1  UNL1        0.1787
@<TRIPOS>BOND
     1    22    23    1
     2    23    24    1
     3    23    21    1
     4    21    19    1
     5    19    20    2
     6    19    18    1
     7    18    25    1
     8    25    26    1
     9    26    27   ar
    10    27    28   ar
    11    28    29   ar
    12    29    30   ar
    13    18     1    1
    14     1     2   am
    15     2     3    2
    16     2     5    1
    17     5     6   ar
    18     6     7   ar
    19     7     8   ar
    20     8    12    1
    21    12    13   ar
    22    13    14   ar
    23    14    15   ar
    24    15    16   ar
    25    16    17   ar
    26     8     9   ar
    27     9    10    1
    28     9    11   ar
    29    30    26   ar
    30    11     5   ar
    31    17    12   ar
    32     1     4    1
@<TRIPOS>MOLECULE
*****
 30 32 0 0 0
SMALL
GASTEIGER

@<TRIPOS>ATOM
      1 N           0.0738    0.9254   25.4545 N.am    1  UNL1       -0.2917
      2 C           1.5510    1.0361   25.2185 C.2     1  UNL1        0.2463
      3 O           2.3997    1.8528   26.1473 O.2     1  UNL1       -0.2701
      4 H          -0.4832    0.3893   24.8448 H       1  UNL1        0.1502
      5 C           2.1795    0.3301   24.0538 C.ar    1  UNL1        0.0556
      6 C           1.7888    0.6991   22.6534 C.ar    1  UNL1        0.0047
      7 C           2.4173   -0.0069   21.4887 C.ar    1  UNL1        0.0024
      8 C           3.4366   -1.0819   21.7245 C.ar    1  UNL1        0.0275
      9 C           3.8273   -1.4508   23.1249 C.ar    1  UNL1        0.1402
     10 F           4.8466   -2.5258   23.3606 F       1  UNL1       -0.2042
     11 C           3.1988   -0.7448   24.2895 C.ar    1  UNL1        0.0341
     12 C           4.0651   -1.7879   20.5597 C.ar    1  UNL1        0.0022
     13 C           5.1902   -1.1402   19.8083 C.ar    1  UNL1        0.0001
     14 C           5.8187   -1.8462   18.6436 C.ar    1  UNL1        0.0000
     15 C           5.3221   -3.1999   18.2303 C.ar    1  UNL1        0.0000
     16 C           4.1969   -3.8476   18.9817 C.ar    1  UNL1        0.0000
     17 C           3.5685   -3.1416   20.1464 C.ar    1  UNL1        0.0001
     18 C          -0.5547    1.6314   26.6192 C.3     1  UNL1        0.1945
     19 C          -0.8851    3.0913   26.5219 C.2     1  UNL1        0.3369
     20 O          -0.4650    4.0298   27.6141 O.2     1  UNL1       -0.2482
     21 O          -1.6356    3.6127   25.3324 O.3     1  UNL1       -0.4511
     22 C          -3.9167    3.5049   24.0936 C.3     1  UNL1        0.0473
     23 C          -3.1338    3.6794   25.3611 C.3     1  UNL1        0.1691
     24 C          -3.8492    3.9205   26.6573 C.3     1  UNL1        0.0473
     25 C          -0.8528    0.8775   27.8812 C.3     1  UNL1        0.1386
     26 N           0.2190    0.6900   28.9137 N.ar    1  UNL1       -0.3055
     27 C           1.3143   -0.3340   28.8718 C.ar    1  UNL1        0.0981
     28 C           2.1559   -0.1632   30.1016 C.ar    1  UNL1        0.1193
     29 N           1.5807    0.9664   30.9037 N.ar    1  UNL1       -0.2223
     30 C           0.3837    1.4937   30.1695 C.ar    1  UNL1        0.1787
@<TRIPOS>BOND
     1    22    23    1
     2    23    24    1
     3    23    21    1
     4    21    19    1
     5    19    20    2
     6    19    18    1
     7    18    25    1
     8    25    26    1
     9    26    27   ar
    10    27    28   ar
    11    28    29   ar
    12    29    30   ar
    13    18     1    1
    14     1     2   am
    15     2     3    2
    16     2     5    1
    17     5     6   ar
    18     6     7   ar
    19     7     8   ar
    20     8    12    1
    21    12    13   ar
    22    13    14   ar
    23    14    15   ar
    24    15    16   ar
    25    16    17   ar
    26     8     9   ar
    27     9    10    1
    28     9    11   ar
    29    30    26   ar
    30    11     5   ar
    31    17    12   ar
    32     1     4    1
@<TRIPOS>MOLECULE
*****
 30 32 0 0 0
SMALL
GASTEIGER

@<TRIPOS>ATOM
      1 N          -1.2536    2.4848   20.9586 N.am    1  UNL1       -0.2917
      2 C          -0.3770    2.2951   19.7563 C.2     1  UNL1        0.2463
      3 O          -0.5418    3.1848   18.5600 O.2     1  UNL1       -0.2701
      4 H          -1.1455    1.9008   21.7438 H       1  UNL1        0.1502
      5 C           0.6644    1.2155   19.7503 C.ar    1  UNL1        0.0556
      6 C           0.9191    0.4122   20.9912 C.ar    1  UNL1        0.0047
      7 C           1.9605   -0.6674   20.9851 C.ar    1  UNL1        0.0024
      8 C           2.7473   -0.9435   19.7382 C.ar    1  UNL1        0.0275
      9 C           2.4926   -0.1402   18.4974 C.ar    1  UNL1        0.1402
     10 F           3.2793   -0.4164   17.2505 F       1  UNL1       -0.2042
     11 C           1.4512    0.9393   18.5034 C.ar    1  UNL1        0.0341
     12 C           3.7887   -2.0231   19.7322 C.ar    1  UNL1        0.0022
     13 C           3.5122   -3.3282   19.0464 C.ar    1  UNL1        0.0001
     14 C           4.5537   -4.4077   19.0404 C.ar    1  UNL1        0.0000
     15 C           5.8716   -4.1822   19.7202 C.ar    1  UNL1        0.0000
     16 C           6.1481   -2.8770   20.4060 C.ar    1  UNL1        0.0000
     17 C           5.1067   -1.7975   20.4120 C.ar    1  UNL1        0.0001
     18 C          -2.2951    3.5644   20.9646 C.3     1  UNL1        0.1945
     19 C          -3.7028    3.2508   20.5522 C.2     1  UNL1        0.3369
     20 O          -4.1884    3.6386   19.1870 O.2     1  UNL1       -0.2482
     21 O          -4.6248    2.5494   21.5050 O.3     1  UNL1       -0.4511
     22 C          -6.4745    4.1730   22.3370 C.3     1  UNL1        0.0473
     23 C          -5.2769    3.3147   22.6181 C.3     1  UNL1        0.1691
     24 C          -4.7315    3.2217   24.0123 C.3     1  UNL1        0.0473
     25 C          -1.9288    4.9575   21.3830 C.3     1  UNL1        0.1386
     26 N          -1.0556    5.8002   20.5014 N.ar    1  UNL1       -0.3055
     27 C           0.4222    6.0034   20.6593 C.ar    1  UNL1        0.0981
     28 C           0.8843    6.9164   19.5626 C.ar    1  UNL1        0.1193
     29 N          -0.3079    7.2775   18.7269 N.ar    1  UNL1       -0.2223
     30 C          -1.5068    6.5876   19.3071 C.ar    1  UNL1        0.1787
@<TRIPOS>BOND
     1    22    23    1
     2    23    24    1
     3    23    21    1
     4    21    19    1
     5    19    20    2
     6    19    18    1
     7    18    25    1
     8    25    26    1
     9    26    27   ar
    10    27    28   ar
    11    28    29   ar
    12    29    30   ar
    13    18     1    1
    14     1     2   am
    15     2     3    2
    16     2     5    1
    17     5     6   ar
    18     6     7   ar
    19     7     8   ar
    20     8    12    1
    21    12    13   ar
    22    13    14   ar
    23    14    15   ar
    24    15    16   ar
    25    16    17   ar
    26     8     9   ar
    27     9    10    1
    28     9    11   ar
    29    30    26   ar
    30    11     5   ar
    31    17    12   ar
    32     1     4    1
@<TRIPOS>MOLECULE
*****
 30 32 0 0 0
SMALL
GASTEIGER

@<TRIPOS>ATOM
      1 N          -1.5681    2.4715   20.7120 N.am    1  UNL1       -0.2917
      2 C          -0.1815    2.6789   20.1790 C.2     1  UNL1        0.2463
      3 O           0.2603    4.0467   19.7500 O.2     1  UNL1       -0.2701
      4 H          -1.8580    1.5738   20.9936 H       1  UNL1        0.1502
      5 C           0.7635    1.5186   20.0751 C.ar    1  UNL1        0.0556
      6 C           1.0786    0.6968   21.2897 C.ar    1  UNL1        0.0047
      7 C           2.0235   -0.4635   21.1857 C.ar    1  UNL1        0.0024
      8 C           2.6533   -0.8019   19.8671 C.ar    1  UNL1        0.0275
      9 C           2.3382    0.0198   18.6525 C.ar    1  UNL1        0.1402
     10 F           2.9681   -0.3186   17.3339 F       1  UNL1       -0.2042
     11 C           1.3933    1.1801   18.7565 C.ar    1  UNL1        0.0341
     12 C           3.5983   -1.9623   19.7631 C.ar    1  UNL1        0.0022
     13 C           5.0107   -1.8251   20.2490 C.ar    1  UNL1        0.0001
     14 C           5.9557   -2.9855   20.1451 C.ar    1  UNL1        0.0000
     15 C           5.4881   -4.2830   19.5552 C.ar    1  UNL1        0.0000
     16 C           4.0755   -4.4201   19.0694 C.ar    1  UNL1        0.0000
     17 C           3.1307   -3.2598   19.1733 C.ar    1  UNL1        0.0001
     18 C          -2.5131    3.6319   20.8160 C.3     1  UNL1        0.1945
     19 C          -3.5048    3.8918   19.7211 C.2     1  UNL1        0.3369
     20 O          -4.8872    3.3159   19.8090 O.2     1  UNL1       -0.2482
     21 O          -3.1144    4.7276   18.5383 O.3     1  UNL1       -0.4511
     22 C          -1.3963    3.9640   16.7453 C.3     1  UNL1        0.0473
     23 C          -2.8140    4.0719   17.2230 C.3     1  UNL1        0.1691
     24 C          -3.9314    3.5243   16.3855 C.3     1  UNL1        0.0473
     25 C          -2.4662    4.5322   22.0148 C.3     1  UNL1        0.1386
     26 N          -3.2450    4.1806   23.2476 N.ar    1  UNL1       -0.3055
     27 C          -4.7092    3.8596   23.3039 C.ar    1  UNL1        0.0981
     28 C          -5.0654    3.5690   24.7317 C.ar    1  UNL1        0.1193
     29 N          -3.8214    3.7103   25.5578 N.ar    1  UNL1       -0.2223
     30 C          -2.6963    4.0884   24.6406 C.ar    1  UNL1        0.1787
@<TRIPOS>BOND
     1    22    23    1
     2    23    24    1
     3    23    21    1
     4    21    19    1
     5    19    20    2
     6    19    18    1
     7    18    25    1
     8    25    26    1
     9    26    27   ar
    10    27    28   ar
    11    28    29   ar
    12    29    30   ar
    13    18     1    1
    14     1     2   am
    15     2     3    2
    16     2     5    1
    17     5     6   ar
    18     6     7   ar
    19     7     8   ar
    20     8    12    1
    21    12    13   ar
    22    13    14   ar
    23    14    15   ar
    24    15    16   ar
    25    16    17   ar
    26     8     9   ar
    27     9    10    1
    28     9    11   ar
    29    30    26   ar
    30    11     5   ar
    31    17    12   ar
    32     1     4    1
@<TRIPOS>MOLECULE
*****
 30 32 0 0 0
SMALL
GASTEIGER

@<TRIPOS>ATOM
      1 N           5.9467   -3.3663   26.1092 N.am    1  UNL1       -0.2917
      2 C           6.1173   -3.6993   24.6566 C.2     1  UNL1        0.2463
      3 O           7.1024   -4.7506   24.2388 O.2     1  UNL1       -0.2701
      4 H           5.3002   -2.6763   26.3834 H       1  UNL1        0.1502
      5 C           5.3029   -2.9810   23.6218 C.ar    1  UNL1        0.0556
      6 C           4.8333   -1.5795   23.8770 C.ar    1  UNL1        0.0047
      7 C           4.0189   -0.8613   22.8422 C.ar    1  UNL1        0.0024
      8 C           3.6741   -1.5446   21.5521 C.ar    1  UNL1        0.0275
      9 C           4.1436   -2.9462   21.2969 C.ar    1  UNL1        0.1402
     10 F           3.7988   -3.6295   20.0069 F       1  UNL1       -0.2042
     11 C           4.9580   -3.6643   22.3317 C.ar    1  UNL1        0.0341
     12 C           2.8596   -0.8264   20.5173 C.ar    1  UNL1        0.0022
     13 C           1.4468   -0.4244   20.8211 C.ar    1  UNL1        0.0001
     14 C           0.6323    0.2939   19.7862 C.ar    1  UNL1        0.0000
     15 C           1.2308    0.6102   18.4476 C.ar    1  UNL1        0.0000
     16 C           2.6437    0.2082   18.1439 C.ar    1  UNL1        0.0000
     17 C           3.4581   -0.5101   19.1787 C.ar    1  UNL1        0.0001
     18 C           6.7612   -4.0846   27.1440 C.3     1  UNL1        0.1945
     19 C           8.0188   -3.4618   27.6736 C.2     1  UNL1        0.3369
     20 O           9.0584   -2.9463   26.7230 O.2     1  UNL1       -0.2482
     21 O           8.2368   -3.3544   29.1538 O.3     1  UNL1       -0.4511
     22 C           6.6073   -1.4351   29.7945 C.3     1  UNL1        0.0473
     23 C           7.1504   -2.8125   30.0346 C.3     1  UNL1        0.1691
     24 C           6.6069   -3.6480   31.1555 C.3     1  UNL1        0.0473
     25 C           6.3180   -5.4256   27.6492 C.3     1  UNL1        0.1386
     26 N           7.2035   -6.6234   27.4733 N.ar    1  UNL1       -0.3055
     27 C           8.2378   -7.1058   28.4467 C.ar    1  UNL1        0.0981
     28 C           8.8838   -8.3297   27.8681 C.ar    1  UNL1        0.1193
     29 N           8.2488   -8.6036   26.5370 N.ar    1  UNL1       -0.2223
     30 C           7.2103   -7.5491   26.2930 C.ar    1  UNL1        0.1787
@<TRIPOS>BOND
     1    22    23    1
     2    23    24    1
     3    23    21    1
     4    21    19    1
     5    19    20    2
     6    19    18    1
     7    18    25    1
     8    25    26    1
     9    26    27   ar
    10    27    28   ar
    11    28    29   ar
    12    29    30   ar
    13    18     1    1
    14     1     2   am
    15     2     3    2
    16     2     5    1
    17     5     6   ar
    18     6     7   ar
    19     7     8   ar
    20     8    12    1
    21    12    13   ar
    22    13    14   ar
    23    14    15   ar
    24    15    16   ar
    25    16    17   ar
    26     8     9   ar
    27     9    10    1
    28     9    11   ar
    29    30    26   ar
    30    11     5   ar
    31    17    12   ar
    32     1     4    1
@<TRIPOS>MOLECULE
*****
 30 32 0 0 0
SMALL
GASTEIGER

@<TRIPOS>ATOM
      1 N          -2.5405    2.5517   20.5012 N.am    1  UNL1       -0.2917
      2 C          -1.1262    2.7740   20.9486 C.2     1  UNL1        0.2463
      3 O          -0.7942    3.9371   21.8358 O.2     1  UNL1       -0.2701
      4 H          -2.7584    1.7883   19.9190 H       1  UNL1        0.1502
      5 C          -0.0437    1.8331   20.5089 C.ar    1  UNL1        0.0556
      6 C           0.3544    1.7707   19.0641 C.ar    1  UNL1        0.0047
      7 C           1.4368    0.8299   18.6245 C.ar    1  UNL1        0.0024
      8 C           2.1210   -0.0485   19.6297 C.ar    1  UNL1        0.0275
      9 C           1.7228    0.0140   21.0745 C.ar    1  UNL1        0.1402
     10 F           2.4071   -0.8643   22.0797 F       1  UNL1       -0.2042
     11 C           0.6405    0.9548   21.5141 C.ar    1  UNL1        0.0341
     12 C           3.2034   -0.9893   19.1900 C.ar    1  UNL1        0.0022
     13 C           3.1277   -2.4424   19.5542 C.ar    1  UNL1        0.0001
     14 C           4.2101   -3.3833   19.1145 C.ar    1  UNL1        0.0000
     15 C           5.3683   -2.8709   18.3106 C.ar    1  UNL1        0.0000
     16 C           5.4440   -1.4177   17.9464 C.ar    1  UNL1        0.0000
     17 C           4.3616   -0.4769   18.3861 C.ar    1  UNL1        0.0001
     18 C          -3.6229    3.4925   20.9409 C.3     1  UNL1        0.1945
     19 C          -3.6590    4.8949   20.4099 C.2     1  UNL1        0.3369
     20 O          -3.5273    6.0564   21.3499 O.2     1  UNL1       -0.2482
     21 O          -3.8268    5.1358   18.9390 O.3     1  UNL1       -0.4511
     22 C          -6.0724    3.8925   18.5374 C.3     1  UNL1        0.0473
     23 C          -4.6664    4.2033   18.1172 C.3     1  UNL1        0.1691
     24 C          -4.1001    3.5815   16.8752 C.3     1  UNL1        0.0473
     25 C          -4.6692    3.0309   21.9116 C.3     1  UNL1        0.1386
     26 N          -4.6171    3.4820   23.3411 N.ar    1  UNL1       -0.3055
     27 C          -3.3996    3.4964   24.2173 C.ar    1  UNL1        0.0981
     28 C          -3.8034    4.0212   25.5633 C.ar    1  UNL1        0.1193
     29 N          -5.2704    4.3311   25.5189 N.ar    1  UNL1       -0.2223
     30 C          -5.7732    3.9978   24.1456 C.ar    1  UNL1        0.1787
@<TRIPOS>BOND
     1    22    23    1
     2    23    24    1
     3    23    21    1
     4    21    19    1
     5    19    20    2
     6    19    18    1
     7    18    25    1
     8    25    26    1
     9    26    27   ar
    10    27    28   ar
    11    28    29   ar
    12    29    30   ar
    13    18     1    1
    14     1     2   am
    15     2     3    2
    16     2     5    1
    17     5     6   ar
    18     6     7   ar
    19     7     8   ar
    20     8    12    1
    21    12    13   ar
    22    13    14   ar
    23    14    15   ar
    24    15    16   ar
    25    16    17   ar
    26     8     9   ar
    27     9    10    1
    28     9    11   ar
    29    30    26   ar
    30    11     5   ar
    31    17    12   ar
    32     1     4    1
