@<TRIPOS>MOLECULE
*****
 38 42 0 0 0
SMALL
GASTEIGER

@<TRIPOS>ATOM
      1 C          -6.0355  -16.2400   23.8416 C.3     1  UNL1        0.1225
      2 O          -6.6883  -15.6446   25.0538 O.3     1  UNL1       -0.3559
      3 C          -8.1483  -15.8752   25.3088 C.3     1  UNL1        0.1441
      4 C          -8.9556  -16.7012   24.3517 C.3     1  UNL1        0.0589
      5 C          -8.3028  -17.2966   23.1396 C.3     1  UNL1        0.1466
      6 C          -9.1100  -18.1227   22.1825 C.ar    1  UNL1        0.0618
      7 C         -10.5700  -18.3533   22.4376 C.ar    1  UNL1        0.1407
      8 F         -11.5203  -17.9232   23.5157 F       1  UNL1       -0.2043
      9 C         -11.3773  -19.1794   21.4805 C.ar    1  UNL1        0.0319
     10 C         -10.7245  -19.7748   20.2683 C.ar    1  UNL1        0.0351
     11 C          -9.2645  -19.5441   20.0133 C.ar    1  UNL1        0.1737
     12 F          -8.6116  -20.1396   18.8011 F       1  UNL1       -0.2010
     13 C          -8.4573  -18.7181   20.9704 C.ar    1  UNL1        0.1655
     14 O          -6.9971  -18.4875   20.7153 O.3     1  UNL1       -0.4732
     15 C          -6.1899  -17.6614   21.6724 C.3     1  UNL1        0.2098
     16 C          -6.8428  -17.0660   22.8846 C.3     1  UNL1        0.0957
     17 S          -9.7628  -17.5273   23.3946 S.O2    1  UNL1        0.0094
     18 O          -9.9837  -18.2321   23.6946 O.2     1  UNL1       -0.1684
     19 O         -10.4129  -16.2446   22.9676 O.2     1  UNL1       -0.1684
     20 C         -11.2229  -17.7579   23.6497 C.ar    1  UNL1        0.1059
     21 C         -12.2506  -17.0020   22.8608 C.ar    1  UNL1        0.0192
     22 C         -13.7107  -17.2326   23.1158 C.ar    1  UNL1        0.0127
     23 C         -14.1431  -18.2191   24.1598 C.ar    1  UNL1        0.0578
     24 CL        -15.6031  -18.4497   24.4149 Cl      1  UNL1       -0.0822
     25 C         -13.1153  -18.9750   24.9487 C.ar    1  UNL1        0.0127
     26 C         -11.6552  -18.7444   24.6937 C.ar    1  UNL1        0.0192
     27 C          -4.5754  -16.0094   23.5865 C.3     1  UNL1        0.0550
     28 C          -3.5720  -17.0547   23.9744 C.3     1  UNL1        0.1534
     29 O          -2.1918  -16.6768   22.4086 O.2     1  UNL1       -0.1729
     30 S          -2.9123  -17.8899   22.9175 S.O2    1  UNL1       -0.0086
     31 O          -3.6329  -19.1031   23.4264 O.2     1  UNL1       -0.1729
     32 C          -2.2526  -18.7252   21.8605 C.3     1  UNL1        0.1664
     33 C          -2.1888  -18.2312   20.4456 C.3     1  UNL1        0.0779
     34 C          -0.9975  -18.3092   19.5375 C.3     1  UNL1        0.0189
     35 C          -1.3775  -17.6987   18.2211 C.3     1  UNL1        0.0185
     36 C          -2.8037  -17.2435   18.3156 C.3     1  UNL1        0.0686
     37 N          -3.3051  -17.5727   19.6904 N.3     1  UNL1       -0.2971
     38 H          -4.1010  -18.2073   19.6259 H       1  UNL1        0.1233
@<TRIPOS>BOND
     1    29    30    2
     2    30    31    2
     3    30    28    1
     4    28    27    1
     5     1    27    1
     6     1     2    1
     7     2     3    1
     8     3     4    1
     9     4     5    1
    10     5    17    1
    11    17    18    2
    12    17    19    2
    13    17    20    1
    14    20    21   ar
    15    21    22   ar
    16    22    23   ar
    17    23    24    1
    18    23    25   ar
    19    25    26   ar
    20     5     6    1
    21     6     7   ar
    22     7     8    1
    23     7     9   ar
    24     9    10   ar
    25    10    11   ar
    26    11    12    1
    27    11    13   ar
    28    13    14    1
    29    14    15    1
    30    16    15    1
    31    30    32    1
    32    33    32    1
    33    33    34    1
    34    34    35    1
    35    35    36    1
    36    36    37    1
    37    16     1    1
    38    37    33    1
    39    16     5    1
    40    26    20   ar
    41    13     6   ar
    42    37    38    1
@<TRIPOS>MOLECULE
*****
 38 42 0 0 0
SMALL
GASTEIGER

@<TRIPOS>ATOM
      1 C           1.3966    4.3506   34.7797 C.3     1  UNL1        0.1225
      2 O           0.3932    5.2030   34.0611 O.3     1  UNL1       -0.3559
      3 C          -0.0130    4.8618   32.6581 C.3     1  UNL1        0.1441
      4 C           0.5842    3.6681   31.9736 C.3     1  UNL1        0.0589
      5 C           1.5876    2.8157   32.6922 C.3     1  UNL1        0.1466
      6 C           2.1849    1.6220   32.0078 C.ar    1  UNL1        0.0618
      7 C           1.7787    1.2807   30.6048 C.ar    1  UNL1        0.1407
      8 F           0.8317    1.8934   29.6158 F       1  UNL1       -0.2043
      9 C           2.3759    0.0870   29.9204 C.ar    1  UNL1        0.0319
     10 C           3.3793   -0.7654   30.6390 C.ar    1  UNL1        0.0351
     11 C           3.7855   -0.4242   32.0420 C.ar    1  UNL1        0.1737
     12 F           4.7889   -1.2767   32.7607 F       1  UNL1       -0.2010
     13 C           3.1883    0.7695   32.7264 C.ar    1  UNL1        0.1655
     14 O           3.5945    1.1107   34.1295 O.3     1  UNL1       -0.4732
     15 C           2.9973    2.3044   34.8140 C.3     1  UNL1        0.2098
     16 C           1.9938    3.1569   34.0953 C.3     1  UNL1        0.0957
     17 S           1.1814    2.4744   31.2892 S.O2    1  UNL1        0.0094
     18 O           1.6401    2.7369   30.6924 O.2     1  UNL1       -0.1684
     19 O          -0.0750    1.6730   31.4599 O.2     1  UNL1       -0.1684
     20 C           0.7752    2.1331   29.8861 C.ar    1  UNL1        0.1059
     21 C           1.4761    2.7744   28.7254 C.ar    1  UNL1        0.0192
     22 C           1.0699    2.4331   27.3223 C.ar    1  UNL1        0.0127
     23 C          -0.0373    1.4506   27.0801 C.ar    1  UNL1        0.0578
     24 CL         -0.4436    1.1093   25.6771 Cl      1  UNL1       -0.0822
     25 C          -0.7383    0.8093   28.2409 C.ar    1  UNL1        0.0127
     26 C          -0.3320    1.1506   29.6439 C.ar    1  UNL1        0.0192
     27 C           1.8029    4.6918   36.1828 C.3     1  UNL1        0.0550
     28 C           1.3840    3.8087   37.3206 C.3     1  UNL1        0.1534
     29 O           3.2497    4.2198   38.2425 O.2     1  UNL1       -0.1729
     30 S           2.4077    2.9930   38.0531 S.O2    1  UNL1       -0.0086
     31 O           1.5656    1.7662   37.8637 O.2     1  UNL1       -0.1729
     32 C           3.4314    2.1772   38.7857 C.3     1  UNL1        0.1664
     33 C           4.5033    1.4576   38.0221 C.3     1  UNL1        0.0779
     34 C           5.9393    1.8765   37.9114 C.3     1  UNL1        0.0189
     35 C           6.6510    0.8706   37.0560 C.3     1  UNL1        0.0185
     36 C           5.6547   -0.1701   36.6380 C.3     1  UNL1        0.0686
     37 N           4.3274    0.1928   37.2351 N.3     1  UNL1       -0.2971
     38 H           4.0081   -0.5559   37.8500 H       1  UNL1        0.1233
@<TRIPOS>BOND
     1    29    30    2
     2    30    31    2
     3    30    28    1
     4    28    27    1
     5     1    27    1
     6     1     2    1
     7     2     3    1
     8     3     4    1
     9     4     5    1
    10     5    17    1
    11    17    18    2
    12    17    19    2
    13    17    20    1
    14    20    21   ar
    15    21    22   ar
    16    22    23   ar
    17    23    24    1
    18    23    25   ar
    19    25    26   ar
    20     5     6    1
    21     6     7   ar
    22     7     8    1
    23     7     9   ar
    24     9    10   ar
    25    10    11   ar
    26    11    12    1
    27    11    13   ar
    28    13    14    1
    29    14    15    1
    30    16    15    1
    31    30    32    1
    32    33    32    1
    33    33    34    1
    34    34    35    1
    35    35    36    1
    36    36    37    1
    37    16     1    1
    38    37    33    1
    39    16     5    1
    40    26    20   ar
    41    13     6   ar
    42    37    38    1
@<TRIPOS>MOLECULE
*****
 38 42 0 0 0
SMALL
GASTEIGER

@<TRIPOS>ATOM
      1 C           3.8104    0.8398   33.9730 C.3     1  UNL1        0.1225
      2 O           2.6935    1.7854   34.3021 O.3     1  UNL1       -0.3559
      3 C           1.7241    2.2012   33.2357 C.3     1  UNL1        0.1441
      4 C           1.8715    1.6714   31.8401 C.3     1  UNL1        0.0589
      5 C           2.9884    0.7258   31.5110 C.3     1  UNL1        0.1466
      6 C           3.1359    0.1960   30.1155 C.ar    1  UNL1        0.0618
      7 C           2.1665    0.6118   29.0490 C.ar    1  UNL1        0.1407
      8 F           0.9678    1.5134   29.0244 F       1  UNL1       -0.2043
      9 C           2.3139    0.0819   27.6535 C.ar    1  UNL1        0.0319
     10 C           3.4308   -0.8637   27.3244 C.ar    1  UNL1        0.0351
     11 C           4.4002   -1.2794   28.3908 C.ar    1  UNL1        0.1737
     12 F           5.5172   -2.2251   28.0617 F       1  UNL1       -0.2010
     13 C           4.2528   -0.7496   29.7864 C.ar    1  UNL1        0.1655
     14 O           5.2223   -1.1655   30.8528 O.3     1  UNL1       -0.4732
     15 C           5.0748   -0.6356   32.2484 C.3     1  UNL1        0.2098
     16 C           3.9578    0.3100   32.5774 C.3     1  UNL1        0.0957
     17 S           2.0190    1.1416   30.4446 S.O2    1  UNL1        0.0094
     18 O           1.3764    0.6854   30.3243 O.2     1  UNL1       -0.1684
     19 O           2.6130    2.4002   29.8848 O.2     1  UNL1       -0.1684
     20 C           1.0496    1.5574   29.3781 C.ar    1  UNL1        0.1059
     21 C           1.3120    2.7906   28.5655 C.ar    1  UNL1        0.0192
     22 C           0.3426    3.2064   27.4990 C.ar    1  UNL1        0.0127
     23 C          -0.8893    2.3891   27.2452 C.ar    1  UNL1        0.0578
     24 CL         -1.8587    2.8048   26.1788 Cl      1  UNL1       -0.0822
     25 C          -1.1517    1.1558   28.0579 C.ar    1  UNL1        0.0127
     26 C          -0.1823    0.7400   29.1243 C.ar    1  UNL1        0.0192
     27 C           4.7799    0.4240   35.0394 C.3     1  UNL1        0.0550
     28 C           5.4473    1.4619   35.8922 C.3     1  UNL1        0.1534
     29 O           5.1555    3.2695   36.9633 O.2     1  UNL1       -0.1729
     30 S           4.8672    1.8214   37.2279 S.O2    1  UNL1       -0.0086
     31 O           4.5789    0.3734   37.4925 O.2     1  UNL1       -0.1729
     32 C           4.2869    2.1810   38.5637 C.3     1  UNL1        0.1664
     33 C           2.9368    1.6610   38.9594 C.3     1  UNL1        0.0779
     34 C           1.6399    2.4078   38.8581 C.3     1  UNL1        0.0189
     35 C           0.5481    1.5112   39.3620 C.3     1  UNL1        0.0185
     36 C           1.1702    0.2102   39.7749 C.3     1  UNL1        0.0686
     37 N           2.6465    0.3028   39.5260 N.3     1  UNL1       -0.2971
     38 H           2.9314   -0.4174   38.8623 H       1  UNL1        0.1233
@<TRIPOS>BOND
     1    29    30    2
     2    30    31    2
     3    30    28    1
     4    28    27    1
     5     1    27    1
     6     1     2    1
     7     2     3    1
     8     3     4    1
     9     4     5    1
    10     5    17    1
    11    17    18    2
    12    17    19    2
    13    17    20    1
    14    20    21   ar
    15    21    22   ar
    16    22    23   ar
    17    23    24    1
    18    23    25   ar
    19    25    26   ar
    20     5     6    1
    21     6     7   ar
    22     7     8    1
    23     7     9   ar
    24     9    10   ar
    25    10    11   ar
    26    11    12    1
    27    11    13   ar
    28    13    14    1
    29    14    15    1
    30    16    15    1
    31    30    32    1
    32    33    32    1
    33    33    34    1
    34    34    35    1
    35    35    36    1
    36    36    37    1
    37    16     1    1
    38    37    33    1
    39    16     5    1
    40    26    20   ar
    41    13     6   ar
    42    37    38    1
@<TRIPOS>MOLECULE
*****
 38 42 0 0 0
SMALL
GASTEIGER

@<TRIPOS>ATOM
      1 C           5.7839   -1.9849   30.1156 C.3     1  UNL1        0.1225
      2 O           5.5678   -2.2325   28.6521 O.3     1  UNL1       -0.3559
      3 C           4.4398   -1.5519   27.9349 C.3     1  UNL1        0.1441
      4 C           3.5280   -0.6237   28.6812 C.3     1  UNL1        0.0589
      5 C           3.7441   -0.3761   30.1447 C.3     1  UNL1        0.1466
      6 C           2.8322    0.5521   30.8911 C.ar    1  UNL1        0.0618
      7 C           1.7043    1.2327   30.1739 C.ar    1  UNL1        0.1407
      8 F           1.2096    1.2173   28.7578 F       1  UNL1       -0.2043
      9 C           0.7924    2.1609   30.9202 C.ar    1  UNL1        0.0319
     10 C           1.0086    2.4085   32.3837 C.ar    1  UNL1        0.0351
     11 C           2.1365    1.7279   33.1009 C.ar    1  UNL1        0.1737
     12 F           2.3527    1.9755   34.5645 F       1  UNL1       -0.2010
     13 C           3.0484    0.7997   32.3546 C.ar    1  UNL1        0.1655
     14 O           4.1764    0.1191   33.0719 O.3     1  UNL1       -0.4732
     15 C           5.0882   -0.8091   32.3256 C.3     1  UNL1        0.2098
     16 C           4.8720   -1.0567   30.8619 C.3     1  UNL1        0.0957
     17 S           2.6161    0.3045   29.4275 S.O2    1  UNL1        0.0094
     18 O           1.8993   -0.0441   29.4411 O.2     1  UNL1       -0.1684
     19 O           3.2434    1.5414   28.8557 O.2     1  UNL1       -0.1684
     20 C           1.4881    0.9852   28.7103 C.ar    1  UNL1        0.1059
     21 C           0.1477    0.3185   28.6170 C.ar    1  UNL1        0.0192
     22 C          -0.9803    0.9992   27.8998 C.ar    1  UNL1        0.0127
     23 C          -0.7678    2.3466   27.2758 C.ar    1  UNL1        0.0578
     24 CL         -1.8957    3.0273   26.5586 Cl      1  UNL1       -0.0822
     25 C           0.5727    3.0133   27.3691 C.ar    1  UNL1        0.0127
     26 C           1.7006    2.3326   28.0863 C.ar    1  UNL1        0.0192
     27 C           6.9119   -2.6655   30.8329 C.3     1  UNL1        0.0550
     28 C           6.7309   -4.0555   31.3669 C.3     1  UNL1        0.1534
     29 O           6.7910   -6.1532   31.6764 O.2     1  UNL1       -0.1729
     30 S           7.5150   -5.1921   30.7809 S.O2    1  UNL1       -0.0086
     31 O           8.2391   -4.2309   29.8855 O.2     1  UNL1       -0.1729
     32 C           8.2992   -6.3286   30.1949 C.3     1  UNL1        0.1664
     33 C           8.0047   -6.8040   28.8031 C.3     1  UNL1        0.0779
     34 C           8.6775   -7.9459   28.1006 C.3     1  UNL1        0.0189
     35 C           8.0743   -8.0686   26.7327 C.3     1  UNL1        0.0185
     36 C           7.0288   -7.0025   26.5898 C.3     1  UNL1        0.0686
     37 N           6.9858   -6.2210   27.8693 N.3     1  UNL1       -0.2971
     38 H           6.0568   -6.2883   28.2850 H       1  UNL1        0.1233
@<TRIPOS>BOND
     1    29    30    2
     2    30    31    2
     3    30    28    1
     4    28    27    1
     5     1    27    1
     6     1     2    1
     7     2     3    1
     8     3     4    1
     9     4     5    1
    10     5    17    1
    11    17    18    2
    12    17    19    2
    13    17    20    1
    14    20    21   ar
    15    21    22   ar
    16    22    23   ar
    17    23    24    1
    18    23    25   ar
    19    25    26   ar
    20     5     6    1
    21     6     7   ar
    22     7     8    1
    23     7     9   ar
    24     9    10   ar
    25    10    11   ar
    26    11    12    1
    27    11    13   ar
    28    13    14    1
    29    14    15    1
    30    16    15    1
    31    30    32    1
    32    33    32    1
    33    33    34    1
    34    34    35    1
    35    35    36    1
    36    36    37    1
    37    16     1    1
    38    37    33    1
    39    16     5    1
    40    26    20   ar
    41    13     6   ar
    42    37    38    1
@<TRIPOS>MOLECULE
*****
 38 42 0 0 0
SMALL
GASTEIGER

@<TRIPOS>ATOM
      1 C           7.0151   -4.0577   21.4110 C.3     1  UNL1        0.1225
      2 O           6.0153   -4.3020   22.5022 O.3     1  UNL1       -0.3559
      3 C           4.7855   -3.4486   22.5973 C.3     1  UNL1        0.1441
      4 C           4.5553   -2.3509   21.6012 C.3     1  UNL1        0.0589
      5 C           5.5551   -2.1066   20.5100 C.3     1  UNL1        0.1466
      6 C           5.3250   -1.0090   19.5139 C.ar    1  UNL1        0.0618
      7 C           4.0951   -0.1556   19.6091 C.ar    1  UNL1        0.1407
      8 F           2.9210   -0.1200   20.5420 F       1  UNL1       -0.2043
      9 C           3.8650    0.9421   18.6130 C.ar    1  UNL1        0.0319
     10 C           4.8647    1.1864   17.5218 C.ar    1  UNL1        0.0351
     11 C           6.0946    0.3330   17.4267 C.ar    1  UNL1        0.1737
     12 F           7.0944    0.5772   16.3354 F       1  UNL1       -0.2010
     13 C           6.3247   -0.7647   18.4227 C.ar    1  UNL1        0.1655
     14 O           7.5547   -1.6181   18.3276 O.3     1  UNL1       -0.4732
     15 C           7.7848   -2.7158   19.3237 C.3     1  UNL1        0.2098
     16 C           6.7850   -2.9600   20.4149 C.3     1  UNL1        0.0957
     17 S           4.3252   -1.2533   20.6051 S.O2    1  UNL1        0.0094
     18 O           4.3918   -0.5377   20.9502 O.2     1  UNL1       -0.1684
     19 O           3.2551   -2.0860   19.9636 O.2     1  UNL1       -0.1684
     20 C           3.0952   -0.3999   20.7002 C.ar    1  UNL1        0.1059
     21 C           1.8448   -0.8031   19.9765 C.ar    1  UNL1        0.0192
     22 C           0.6149    0.0503   20.0716 C.ar    1  UNL1        0.0127
     23 C           0.6354    1.3069   20.8905 C.ar    1  UNL1        0.0578
     24 CL         -0.5945    2.1603   20.9856 Cl      1  UNL1       -0.0822
     25 C           1.8859    1.7101   21.6143 C.ar    1  UNL1        0.0127
     26 C           3.1158    0.8567   21.5191 C.ar    1  UNL1        0.0192
     27 C           8.2451   -4.9111   21.3158 C.3     1  UNL1        0.0550
     28 C           9.1109   -5.1161   22.5234 C.3     1  UNL1        0.1534
     29 O           8.4575   -7.1341   22.5500 O.2     1  UNL1       -0.1729
     30 S           8.6909   -6.0810   23.5923 S.O2    1  UNL1       -0.0086
     31 O           8.9244   -5.0279   24.6346 O.2     1  UNL1       -0.1729
     32 C           8.2710   -7.0459   24.6613 C.3     1  UNL1        0.1664
     33 C           7.7510   -6.5338   25.9717 C.3     1  UNL1        0.0779
     34 C           8.2801   -6.8890   27.3296 C.3     1  UNL1        0.0189
     35 C           7.4667   -6.1513   28.3515 C.3     1  UNL1        0.0185
     36 C           6.4349   -5.3401   27.6251 C.3     1  UNL1        0.0686
     37 N           6.6107   -5.5766   26.1544 N.3     1  UNL1       -0.2971
     38 H           6.8196   -4.6956   25.6847 H       1  UNL1        0.1233
@<TRIPOS>BOND
     1    29    30    2
     2    30    31    2
     3    30    28    1
     4    28    27    1
     5     1    27    1
     6     1     2    1
     7     2     3    1
     8     3     4    1
     9     4     5    1
    10     5    17    1
    11    17    18    2
    12    17    19    2
    13    17    20    1
    14    20    21   ar
    15    21    22   ar
    16    22    23   ar
    17    23    24    1
    18    23    25   ar
    19    25    26   ar
    20     5     6    1
    21     6     7   ar
    22     7     8    1
    23     7     9   ar
    24     9    10   ar
    25    10    11   ar
    26    11    12    1
    27    11    13   ar
    28    13    14    1
    29    14    15    1
    30    16    15    1
    31    30    32    1
    32    33    32    1
    33    33    34    1
    34    34    35    1
    35    35    36    1
    36    36    37    1
    37    16     1    1
    38    37    33    1
    39    16     5    1
    40    26    20   ar
    41    13     6   ar
    42    37    38    1
@<TRIPOS>MOLECULE
*****
 38 42 0 0 0
SMALL
GASTEIGER

@<TRIPOS>ATOM
      1 C           4.2857   -2.1227   18.8979 C.3     1  UNL1        0.1225
      2 O           4.3615   -1.7191   17.4552 O.3     1  UNL1       -0.3559
      3 C           3.6660   -0.4754   16.9868 C.3     1  UNL1        0.1441
      4 C           2.8946    0.3647   17.9611 C.3     1  UNL1        0.0589
      5 C           2.8187   -0.0390   19.4038 C.3     1  UNL1        0.1466
      6 C           2.0473    0.8011   20.3781 C.ar    1  UNL1        0.0618
      7 C           1.3518    2.0448   19.9097 C.ar    1  UNL1        0.1407
      8 F           1.2204    2.7276   18.5805 F       1  UNL1       -0.2043
      9 C           0.5804    2.8848   20.8840 C.ar    1  UNL1        0.0319
     10 C           0.5045    2.4812   22.3266 C.ar    1  UNL1        0.0351
     11 C           1.2001    1.2375   22.7950 C.ar    1  UNL1        0.1737
     12 F           1.1243    0.8339   24.2377 F       1  UNL1       -0.2010
     13 C           1.9715    0.3975   21.8207 C.ar    1  UNL1        0.1655
     14 O           2.6671   -0.8463   22.2892 O.3     1  UNL1       -0.4732
     15 C           3.4385   -1.6863   21.3149 C.3     1  UNL1        0.2098
     16 C           3.5143   -1.2826   19.8721 C.3     1  UNL1        0.0957
     17 S           2.1232    1.2047   18.9354 S.O2    1  UNL1        0.0094
     18 O           2.4756    1.9060   19.0751 O.2     1  UNL1       -0.1684
     19 O           0.8670    0.6974   18.2914 O.2     1  UNL1       -0.1684
     20 C           1.4275    2.4485   18.4670 C.ar    1  UNL1        0.1059
     21 C           2.1830    3.7410   18.3753 C.ar    1  UNL1        0.0192
     22 C           1.4874    4.9848   17.9069 C.ar    1  UNL1        0.0127
     23 C           0.0363    4.9358   17.5302 C.ar    1  UNL1        0.0578
     24 CL         -0.6594    6.1794   17.0618 Cl      1  UNL1       -0.0822
     25 C          -0.7192    3.6431   17.6219 C.ar    1  UNL1        0.0127
     26 C          -0.0236    2.3995   18.0903 C.ar    1  UNL1        0.0192
     27 C           4.9813   -3.3664   19.3663 C.3     1  UNL1        0.0550
     28 C           6.4611   -3.3512   19.6108 C.3     1  UNL1        0.1534
     29 O           7.1118   -1.7402   20.8278 O.2     1  UNL1       -0.1729
     30 S           7.2471   -2.0953   19.3768 S.O2    1  UNL1       -0.0086
     31 O           7.3824   -2.4504   17.9257 O.2     1  UNL1       -0.1729
     32 C           8.0331   -0.8393   19.1426 C.3     1  UNL1        0.1664
     33 C           7.4029    0.3170   18.4247 C.3     1  UNL1        0.0779
     34 C           6.5144    1.3578   19.0390 C.3     1  UNL1        0.0189
     35 C           6.1128    2.3197   17.9603 C.3     1  UNL1        0.0185
     36 C           6.7531    1.8733   16.6793 C.3     1  UNL1        0.0686
     37 N           7.5504    0.6356   16.9663 N.3     1  UNL1       -0.2971
     38 H           8.5328    0.7977   16.7451 H       1  UNL1        0.1233
@<TRIPOS>BOND
     1    29    30    2
     2    30    31    2
     3    30    28    1
     4    28    27    1
     5     1    27    1
     6     1     2    1
     7     2     3    1
     8     3     4    1
     9     4     5    1
    10     5    17    1
    11    17    18    2
    12    17    19    2
    13    17    20    1
    14    20    21   ar
    15    21    22   ar
    16    22    23   ar
    17    23    24    1
    18    23    25   ar
    19    25    26   ar
    20     5     6    1
    21     6     7   ar
    22     7     8    1
    23     7     9   ar
    24     9    10   ar
    25    10    11   ar
    26    11    12    1
    27    11    13   ar
    28    13    14    1
    29    14    15    1
    30    16    15    1
    31    30    32    1
    32    33    32    1
    33    33    34    1
    34    34    35    1
    35    35    36    1
    36    36    37    1
    37    16     1    1
    38    37    33    1
    39    16     5    1
    40    26    20   ar
    41    13     6   ar
    42    37    38    1
@<TRIPOS>MOLECULE
*****
 38 42 0 0 0
SMALL
GASTEIGER

@<TRIPOS>ATOM
      1 C          -1.0777    3.6360   20.2598 C.3     1  UNL1        0.1225
      2 O          -0.7999    3.4187   18.8019 O.3     1  UNL1       -0.3559
      3 C           0.2341    2.4188   18.3764 C.3     1  UNL1        0.1441
      4 C           0.9902    1.6363   19.4088 C.3     1  UNL1        0.0589
      5 C           0.7124    1.8536   20.8667 C.3     1  UNL1        0.1466
      6 C           1.4686    1.0711   21.8991 C.ar    1  UNL1        0.0618
      7 C           2.5026    0.0712   21.4736 C.ar    1  UNL1        0.1407
      8 F           3.0223   -0.3887   20.1437 F       1  UNL1       -0.2043
      9 C           3.2588   -0.7113   22.5060 C.ar    1  UNL1        0.0319
     10 C           2.9810   -0.4939   23.9639 C.ar    1  UNL1        0.0351
     11 C           1.9470    0.5059   24.3894 C.ar    1  UNL1        0.1737
     12 F           1.6691    0.7233   25.8474 F       1  UNL1       -0.2010
     13 C           1.1908    1.2885   23.3570 C.ar    1  UNL1        0.1655
     14 O           0.1568    2.2884   23.7826 O.3     1  UNL1       -0.4732
     15 C          -0.5994    3.0709   22.7502 C.3     1  UNL1        0.2098
     16 C          -0.3215    2.8535   21.2922 C.3     1  UNL1        0.0957
     17 S           1.7464    0.8538   20.4412 S.O2    1  UNL1        0.0094
     18 O           2.5107    1.0802   20.4467 O.2     1  UNL1       -0.1684
     19 O           0.9497   -0.3726   20.1073 O.2     1  UNL1       -0.1684
     20 C           2.7804   -0.1462   20.0157 C.ar    1  UNL1        0.1059
     21 C           4.1831    0.3012   19.7288 C.ar    1  UNL1        0.0192
     22 C           5.2171   -0.6987   19.3032 C.ar    1  UNL1        0.0127
     23 C           4.8483   -2.1461   19.1646 C.ar    1  UNL1        0.0578
     24 CL          5.8822   -3.1460   18.7391 Cl      1  UNL1       -0.0822
     25 C           3.4456   -2.5935   19.4516 C.ar    1  UNL1        0.0127
     26 C           2.4117   -1.5935   19.8771 C.ar    1  UNL1        0.0192
     27 C          -2.1117    4.6360   20.6854 C.3     1  UNL1        0.0550
     28 C          -3.5655    4.2670   20.6634 C.3     1  UNL1        0.1534
     29 O          -3.7307    4.8221   22.7041 O.2     1  UNL1       -0.1729
     30 S          -4.2044    3.6628   21.8786 S.O2    1  UNL1       -0.0086
     31 O          -4.6781    2.5035   21.0530 O.2     1  UNL1       -0.1729
     32 C          -4.8433    3.0584   23.0938 C.3     1  UNL1        0.1664
     33 C          -4.4855    3.5648   24.4596 C.3     1  UNL1        0.0779
     34 C          -5.4147    4.2501   25.4172 C.3     1  UNL1        0.0189
     35 C          -4.6392    4.5837   26.6570 C.3     1  UNL1        0.0185
     36 C          -3.2306    4.1046   26.4657 C.3     1  UNL1        0.0686
     37 N          -3.1357    3.4749   25.1076 N.3     1  UNL1       -0.2971
     38 H          -2.8595    2.4972   25.1979 H       1  UNL1        0.1233
@<TRIPOS>BOND
     1    29    30    2
     2    30    31    2
     3    30    28    1
     4    28    27    1
     5     1    27    1
     6     1     2    1
     7     2     3    1
     8     3     4    1
     9     4     5    1
    10     5    17    1
    11    17    18    2
    12    17    19    2
    13    17    20    1
    14    20    21   ar
    15    21    22   ar
    16    22    23   ar
    17    23    24    1
    18    23    25   ar
    19    25    26   ar
    20     5     6    1
    21     6     7   ar
    22     7     8    1
    23     7     9   ar
    24     9    10   ar
    25    10    11   ar
    26    11    12    1
    27    11    13   ar
    28    13    14    1
    29    14    15    1
    30    16    15    1
    31    30    32    1
    32    33    32    1
    33    33    34    1
    34    34    35    1
    35    35    36    1
    36    36    37    1
    37    16     1    1
    38    37    33    1
    39    16     5    1
    40    26    20   ar
    41    13     6   ar
    42    37    38    1
@<TRIPOS>MOLECULE
*****
 38 42 0 0 0
SMALL
GASTEIGER

@<TRIPOS>ATOM
      1 C           4.4619   -2.5308   23.0066 C.3     1  UNL1        0.1225
      2 O           4.6635   -2.3689   24.4841 O.3     1  UNL1       -0.3559
      3 C           3.9340   -1.2889   25.2266 C.3     1  UNL1        0.1441
      4 C           3.0029   -0.3709   24.4916 C.3     1  UNL1        0.0589
      5 C           2.8013   -0.5328   23.0141 C.3     1  UNL1        0.1466
      6 C           1.8701    0.3852   22.2792 C.ar    1  UNL1        0.0618
      7 C           1.1406    1.4652   23.0217 C.ar    1  UNL1        0.1407
      8 F           1.1042    1.9014   24.4565 F       1  UNL1       -0.2043
      9 C           0.2094    2.3832   22.2867 C.ar    1  UNL1        0.0319
     10 C           0.0078    2.2213   20.8092 C.ar    1  UNL1        0.0351
     11 C           0.7374    1.1413   20.0667 C.ar    1  UNL1        0.1737
     12 F           0.5358    0.9793   18.5891 F       1  UNL1       -0.2010
     13 C           1.6685    0.2233   20.8017 C.ar    1  UNL1        0.1655
     14 O           2.3981   -0.8567   20.0590 O.3     1  UNL1       -0.4732
     15 C           3.3292   -1.7748   20.7940 C.3     1  UNL1        0.2098
     16 C           3.5308   -1.6128   22.2716 C.3     1  UNL1        0.0957
     17 S           2.0717    0.5471   23.7567 S.O2    1  UNL1        0.0094
     18 O           1.3254    0.3993   23.9946 O.2     1  UNL1       -0.1684
     19 O           3.0621    1.6716   23.8275 O.2     1  UNL1       -0.1684
     20 C           1.3422    1.6272   24.4992 C.ar    1  UNL1        0.1059
     21 C           0.0127    1.3369   25.1303 C.ar    1  UNL1        0.0192
     22 C          -0.7168    2.4170   25.8729 C.ar    1  UNL1        0.0127
     23 C          -0.1168    3.7872   25.9843 C.ar    1  UNL1        0.0578
     24 CL         -0.8463    4.8673   26.7269 Cl      1  UNL1       -0.0822
     25 C           1.2127    4.0775   25.3532 C.ar    1  UNL1        0.0127
     26 C           1.9422    2.9974   24.6107 C.ar    1  UNL1        0.0192
     27 C           5.1915   -3.6108   22.2640 C.3     1  UNL1        0.0550
     28 C           6.5693   -3.3542   21.7293 C.3     1  UNL1        0.1534
     29 O           7.6310   -1.7705   20.7995 O.2     1  UNL1       -0.1729
     30 S           6.7499   -2.8841   20.3164 S.O2    1  UNL1       -0.0086
     31 O           5.8688   -3.9978   19.8333 O.2     1  UNL1       -0.1729
     32 C           6.9306   -2.4141   18.9033 C.3     1  UNL1        0.1664
     33 C           5.8703   -1.5786   18.2495 C.3     1  UNL1        0.0779
     34 C           5.7773   -0.0820   18.2902 C.3     1  UNL1        0.0189
     35 C           4.5664    0.3287   17.5061 C.3     1  UNL1        0.0185
     36 C           3.9109   -0.9141   16.9807 C.3     1  UNL1        0.0686
     37 N           4.7168   -2.0928   17.4402 N.3     1  UNL1       -0.2971
     38 H           5.0639   -2.6107   16.6329 H       1  UNL1        0.1233
@<TRIPOS>BOND
     1    29    30    2
     2    30    31    2
     3    30    28    1
     4    28    27    1
     5     1    27    1
     6     1     2    1
     7     2     3    1
     8     3     4    1
     9     4     5    1
    10     5    17    1
    11    17    18    2
    12    17    19    2
    13    17    20    1
    14    20    21   ar
    15    21    22   ar
    16    22    23   ar
    17    23    24    1
    18    23    25   ar
    19    25    26   ar
    20     5     6    1
    21     6     7   ar
    22     7     8    1
    23     7     9   ar
    24     9    10   ar
    25    10    11   ar
    26    11    12    1
    27    11    13   ar
    28    13    14    1
    29    14    15    1
    30    16    15    1
    31    30    32    1
    32    33    32    1
    33    33    34    1
    34    34    35    1
    35    35    36    1
    36    36    37    1
    37    16     1    1
    38    37    33    1
    39    16     5    1
    40    26    20   ar
    41    13     6   ar
    42    37    38    1
@<TRIPOS>MOLECULE
*****
 38 42 0 0 0
SMALL
GASTEIGER

@<TRIPOS>ATOM
      1 C           5.7568   -2.2613   25.2996 C.3     1  UNL1        0.1225
      2 O           5.1593   -0.9690   25.7719 O.3     1  UNL1       -0.3559
      3 C           4.3127   -0.1504   24.8430 C.3     1  UNL1        0.1441
      4 C           4.0635   -0.6240   23.4417 C.3     1  UNL1        0.0589
      5 C           4.6609   -1.9163   22.9694 C.3     1  UNL1        0.1466
      6 C           4.4117   -2.3899   21.5681 C.ar    1  UNL1        0.0618
      7 C           3.5650   -1.5713   20.6391 C.ar    1  UNL1        0.1407
      8 F           2.8322   -0.2691   20.7719 F       1  UNL1       -0.2043
      9 C           3.3158   -2.0449   19.2378 C.ar    1  UNL1        0.0319
     10 C           3.9133   -3.3371   18.7655 C.ar    1  UNL1        0.0351
     11 C           4.7599   -4.1558   19.6945 C.ar    1  UNL1        0.1737
     12 F           5.3574   -5.4481   19.2222 F       1  UNL1       -0.2010
     13 C           5.0091   -3.6821   21.0957 C.ar    1  UNL1        0.1655
     14 O           5.8558   -4.5008   22.0247 O.3     1  UNL1       -0.4732
     15 C           6.1051   -4.0272   23.4260 C.3     1  UNL1        0.2098
     16 C           5.5076   -2.7349   23.8983 C.3     1  UNL1        0.0957
     17 S           3.8143   -1.0977   22.0404 S.O2    1  UNL1        0.0094
     18 O           3.0466   -1.2969   21.9600 O.2     1  UNL1       -0.1684
     19 O           4.7600   -0.0650   21.5024 O.2     1  UNL1       -0.1684
     20 C           2.9676   -0.2790   21.1114 C.ar    1  UNL1        0.1059
     21 C           1.4862   -0.5060   21.0505 C.ar    1  UNL1        0.0192
     22 C           0.6395    0.3127   20.1215 C.ar    1  UNL1        0.0127
     23 C           1.2744    1.3584   19.2534 C.ar    1  UNL1        0.0578
     24 CL          0.4278    2.1771   18.3244 Cl      1  UNL1       -0.0822
     25 C           2.7559    1.5854   19.3144 C.ar    1  UNL1        0.0127
     26 C           3.6025    0.7667   20.2433 C.ar    1  UNL1        0.0192
     27 C           6.6035   -3.0800   26.2285 C.3     1  UNL1        0.0550
     28 C           6.0838   -3.4516   27.5857 C.3     1  UNL1        0.1534
     29 O           7.9399   -3.5373   28.6092 O.2     1  UNL1       -0.1729
     30 S           6.7969   -4.4868   28.4042 S.O2    1  UNL1       -0.0086
     31 O           5.6539   -5.4362   28.1992 O.2     1  UNL1       -0.1729
     32 C           7.5099   -5.5220   29.2228 C.3     1  UNL1        0.1664
     33 C           8.0651   -6.7488   28.5620 C.3     1  UNL1        0.0779
     34 C           9.3720   -7.4099   28.8860 C.3     1  UNL1        0.0189
     35 C           9.5254   -8.5996   27.9855 C.3     1  UNL1        0.0185
     36 C           8.3133   -8.6739   27.1049 C.3     1  UNL1        0.0686
     37 N           7.4108   -7.5300   27.4612 N.3     1  UNL1       -0.2971
     38 H           6.5092   -7.8862   27.7783 H       1  UNL1        0.1233
@<TRIPOS>BOND
     1    29    30    2
     2    30    31    2
     3    30    28    1
     4    28    27    1
     5     1    27    1
     6     1     2    1
     7     2     3    1
     8     3     4    1
     9     4     5    1
    10     5    17    1
    11    17    18    2
    12    17    19    2
    13    17    20    1
    14    20    21   ar
    15    21    22   ar
    16    22    23   ar
    17    23    24    1
    18    23    25   ar
    19    25    26   ar
    20     5     6    1
    21     6     7   ar
    22     7     8    1
    23     7     9   ar
    24     9    10   ar
    25    10    11   ar
    26    11    12    1
    27    11    13   ar
    28    13    14    1
    29    14    15    1
    30    16    15    1
    31    30    32    1
    32    33    32    1
    33    33    34    1
    34    34    35    1
    35    35    36    1
    36    36    37    1
    37    16     1    1
    38    37    33    1
    39    16     5    1
    40    26    20   ar
    41    13     6   ar
    42    37    38    1
