@<TRIPOS>MOLECULE
*****
 31 34 0 0 0
SMALL
GASTEIGER

@<TRIPOS>ATOM
      1 O           7.3645   -0.4316   19.6355 O.2     1  UNL1       -0.1683
      2 S           7.0050   -1.3835   18.5333 S.O2    1  UNL1        0.0143
      3 O           6.6456   -2.3354   17.4311 O.2     1  UNL1       -0.1683
      4 C           7.5306   -2.5270   19.3495 C.ar    1  UNL1        0.1252
      5 C           9.0088   -2.6945   19.5414 C.ar    1  UNL1        0.0228
      6 C           9.5343   -3.8381   20.3576 C.ar    1  UNL1        0.0357
      7 C           8.5817   -4.8141   20.9819 C.ar    1  UNL1        0.1323
      8 N           7.1034   -4.6466   20.7901 N.ar    1  UNL1       -0.2277
      9 C           6.5779   -3.5031   19.9739 C.ar    1  UNL1        0.1186
     10 N           9.1071   -5.9576   21.7981 N.pl3   1  UNL1       -0.2979
     11 H           9.7743   -6.5711   21.4138 H       1  UNL1        0.1536
     12 C           8.6159   -6.1664   23.2000 C.ar    1  UNL1        0.0495
     13 C           8.7229   -7.5194   23.8386 C.ar    1  UNL1        0.0169
     14 C           8.2317   -7.7281   25.2404 C.ar    1  UNL1        0.0309
     15 C           7.6335   -6.5838   26.0037 C.ar    1  UNL1        0.1402
     16 F           7.1423   -6.7926   27.4055 F       1  UNL1       -0.2042
     17 C           7.5265   -5.2307   25.3651 C.ar    1  UNL1        0.0309
     18 C           8.0177   -5.0220   23.9633 C.ar    1  UNL1        0.0169
     19 C           6.4795   -0.2400   17.7171 C.3     1  UNL1        0.1823
     20 C           5.2239    0.4657   18.1360 C.ar    1  UNL1        0.0014
     21 C           5.0777    1.9397   17.8999 C.ar    1  UNL1       -0.0029
     22 C           3.8221    2.6455   18.3188 C.ar    1  UNL1       -0.0048
     23 C           2.7127    1.8771   18.9738 C.ar    1  UNL1       -0.0247
     24 C           2.8590    0.4031   19.2098 C.ar    1  UNL1       -0.0250
     25 C           4.1145   -0.3027   18.7910 C.ar    1  UNL1       -0.0071
     26 C           1.8826   -0.5443   19.8418 C.3     1  UNL1        0.0431
     27 C           0.5189   -0.2515   20.3937 C.3     1  UNL1        0.0733
     28 N          -0.2052    1.0609   20.4500 N.3     1  UNL1       -0.2969
     29 C           0.2554    2.4047   19.9683 C.3     1  UNL1        0.0733
     30 C           1.5540    2.7679   19.3113 C.3     1  UNL1        0.0431
     31 H          -0.4061    1.1995   21.4404 H       1  UNL1        0.1233
@<TRIPOS>BOND
     1     1     2    2
     2     2     3    2
     3     2    19    1
     4    19    20    1
     5    20    21   ar
     6    21    22   ar
     7    22    23   ar
     8    23    24   ar
     9    24    25   ar
    10    24    26    1
    11    26    27    1
    12    27    28    1
    13    28    29    1
    14    29    30    1
    15     2     4    1
    16     4     5   ar
    17     5     6   ar
    18     6     7   ar
    19     7    10    1
    20    10    12    1
    21    12    13   ar
    22    13    14   ar
    23    14    15   ar
    24    15    16    1
    25    15    17   ar
    26    17    18   ar
    27     7     8   ar
    28     8     9   ar
    29    25    20   ar
    30     9     4   ar
    31    30    23    1
    32    18    12   ar
    33    28    31    1
    34    10    11    1
@<TRIPOS>MOLECULE
*****
 31 34 0 0 0
SMALL
GASTEIGER

@<TRIPOS>ATOM
      1 O           8.7177   -3.1027   23.7700 O.2     1  UNL1       -0.1683
      2 S           7.7571   -4.0713   24.3937 S.O2    1  UNL1        0.0143
      3 O           6.7965   -5.0399   25.0173 O.2     1  UNL1       -0.1683
      4 C           6.8636   -3.9575   23.1942 C.ar    1  UNL1        0.1252
      5 C           5.4226   -3.5780   23.3657 C.ar    1  UNL1        0.0228
      6 C           4.5292   -3.4642   22.1662 C.ar    1  UNL1        0.0357
      7 C           5.0767   -3.7299   20.7952 C.ar    1  UNL1        0.1323
      8 N           6.5177   -4.1094   20.6237 N.ar    1  UNL1       -0.2277
      9 C           7.4112   -4.2232   21.8232 C.ar    1  UNL1        0.1186
     10 N           4.1833   -3.6161   19.5957 N.pl3   1  UNL1       -0.2979
     11 H           3.9594   -4.4183   19.0707 H       1  UNL1        0.1536
     12 C           3.6310   -2.2800   19.1960 C.ar    1  UNL1        0.0495
     13 C           2.5591   -1.6337   20.0226 C.ar    1  UNL1        0.0169
     14 C           2.0068   -0.2976   19.6230 C.ar    1  UNL1        0.0309
     15 C           2.5265    0.3923   18.3966 C.ar    1  UNL1        0.1402
     16 F           1.9742    1.7284   17.9969 F       1  UNL1       -0.2042
     17 C           3.5984   -0.2539   17.5699 C.ar    1  UNL1        0.0309
     18 C           4.1506   -1.5900   17.9696 C.ar    1  UNL1        0.0169
     19 C           8.6506   -4.1851   25.5932 C.3     1  UNL1        0.1823
     20 C           8.1185   -3.8624   26.9580 C.ar    1  UNL1        0.0014
     21 C           7.6995   -2.4602   27.2873 C.ar    1  UNL1       -0.0029
     22 C           7.1674   -2.1373   28.6521 C.ar    1  UNL1       -0.0048
     23 C           7.0542   -3.2168   29.6876 C.ar    1  UNL1       -0.0247
     24 C           7.4732   -4.6188   29.3582 C.ar    1  UNL1       -0.0250
     25 C           8.0053   -4.9417   27.9935 C.ar    1  UNL1       -0.0071
     26 C           7.4431   -5.8346   30.2364 C.3     1  UNL1        0.0431
     27 C           6.9866   -5.9484   31.6608 C.3     1  UNL1        0.0733
     28 N           6.4476   -4.8746   32.5586 N.3     1  UNL1       -0.2969
     29 C           6.2317   -3.4218   32.2541 C.3     1  UNL1        0.0733
     30 C           6.5017   -2.6840   30.9763 C.3     1  UNL1        0.0431
     31 H           7.0738   -4.8766   33.3638 H       1  UNL1        0.1233
@<TRIPOS>BOND
     1     1     2    2
     2     2     3    2
     3     2    19    1
     4    19    20    1
     5    20    21   ar
     6    21    22   ar
     7    22    23   ar
     8    23    24   ar
     9    24    25   ar
    10    24    26    1
    11    26    27    1
    12    27    28    1
    13    28    29    1
    14    29    30    1
    15     2     4    1
    16     4     5   ar
    17     5     6   ar
    18     6     7   ar
    19     7    10    1
    20    10    12    1
    21    12    13   ar
    22    13    14   ar
    23    14    15   ar
    24    15    16    1
    25    15    17   ar
    26    17    18   ar
    27     7     8   ar
    28     8     9   ar
    29    25    20   ar
    30     9     4   ar
    31    30    23    1
    32    18    12   ar
    33    28    31    1
    34    10    11    1
@<TRIPOS>MOLECULE
*****
 31 34 0 0 0
SMALL
GASTEIGER

@<TRIPOS>ATOM
      1 O           7.0267   -2.0016   21.6630 O.2     1  UNL1       -0.1683
      2 S           6.5691   -3.3143   21.0996 S.O2    1  UNL1        0.0143
      3 O           6.1116   -4.6270   20.5361 O.2     1  UNL1       -0.1683
      4 C           5.2242   -2.7190   20.8050 C.ar    1  UNL1        0.1252
      5 C           4.5133   -1.9163   21.8540 C.ar    1  UNL1        0.0228
      6 C           3.1683   -1.3211   21.5594 C.ar    1  UNL1        0.0357
      7 C           2.5342   -1.5285   20.2159 C.ar    1  UNL1        0.1323
      8 N           3.2451   -2.3313   19.1670 N.ar    1  UNL1       -0.2277
      9 C           4.5901   -2.9265   19.4615 C.ar    1  UNL1        0.1186
     10 N           1.1893   -0.9333   19.9213 N.pl3   1  UNL1       -0.2979
     11 H           0.3959   -1.5135   19.8646 H       1  UNL1        0.1536
     12 C           1.0532    0.5459   19.7131 C.ar    1  UNL1        0.0495
     13 C           1.9000    1.2401   18.6879 C.ar    1  UNL1        0.0169
     14 C           1.7639    2.7193   18.4797 C.ar    1  UNL1        0.0309
     15 C           0.7809    3.5044   19.2967 C.ar    1  UNL1        0.1402
     16 F           0.6448    4.9836   19.0885 F       1  UNL1       -0.2042
     17 C          -0.0660    2.8102   20.3219 C.ar    1  UNL1        0.0309
     18 C           0.0702    1.3310   20.5300 C.ar    1  UNL1        0.0169
     19 C           7.9141   -3.9095   21.3941 C.3     1  UNL1        0.1823
     20 C           8.0646   -4.9125   22.4993 C.ar    1  UNL1        0.0014
     21 C           8.8291   -6.1810   22.2618 C.ar    1  UNL1       -0.0029
     22 C           8.9797   -7.1840   23.3670 C.ar    1  UNL1       -0.0048
     23 C           8.3656   -6.9184   24.7096 C.ar    1  UNL1       -0.0247
     24 C           7.6011   -5.6500   24.9469 C.ar    1  UNL1       -0.0250
     25 C           7.4506   -4.6470   23.8419 C.ar    1  UNL1       -0.0071
     26 C           6.9151   -5.1919   26.1999 C.3     1  UNL1        0.0431
     27 C           6.8244   -5.8894   27.5248 C.3     1  UNL1        0.0733
     28 N           7.3971   -7.2169   27.9240 N.3     1  UNL1       -0.2969
     29 C           8.2020   -8.1751   27.0970 C.3     1  UNL1        0.0733
     30 C           8.6331   -8.0423   25.6664 C.3     1  UNL1        0.0431
     31 H           6.5910   -7.7605   28.2327 H       1  UNL1        0.1233
@<TRIPOS>BOND
     1     1     2    2
     2     2     3    2
     3     2    19    1
     4    19    20    1
     5    20    21   ar
     6    21    22   ar
     7    22    23   ar
     8    23    24   ar
     9    24    25   ar
    10    24    26    1
    11    26    27    1
    12    27    28    1
    13    28    29    1
    14    29    30    1
    15     2     4    1
    16     4     5   ar
    17     5     6   ar
    18     6     7   ar
    19     7    10    1
    20    10    12    1
    21    12    13   ar
    22    13    14   ar
    23    14    15   ar
    24    15    16    1
    25    15    17   ar
    26    17    18   ar
    27     7     8   ar
    28     8     9   ar
    29    25    20   ar
    30     9     4   ar
    31    30    23    1
    32    18    12   ar
    33    28    31    1
    34    10    11    1
@<TRIPOS>MOLECULE
*****
 31 34 0 0 0
SMALL
GASTEIGER

@<TRIPOS>ATOM
      1 O           1.8597    2.8004   21.0929 O.2     1  UNL1       -0.1683
      2 S           0.7237    1.8587   20.8232 S.O2    1  UNL1        0.0143
      3 O          -0.4123    0.9170   20.5536 O.2     1  UNL1       -0.1683
      4 C           0.1798    2.1217   22.1962 C.ar    1  UNL1        0.1252
      5 C           0.6897    1.3362   23.3680 C.ar    1  UNL1        0.0228
      6 C           0.1457    1.5993   24.7409 C.ar    1  UNL1        0.0357
      7 C          -0.9079    2.6477   24.9422 C.ar    1  UNL1        0.1323
      8 N          -1.4178    3.4332   23.7703 N.ar    1  UNL1       -0.2277
      9 C          -0.8739    3.1702   22.3974 C.ar    1  UNL1        0.1186
     10 N          -1.4519    2.9108   26.3151 N.pl3   1  UNL1       -0.2979
     11 H          -2.2974    3.4033   26.4236 H       1  UNL1        0.1536
     12 C          -0.7074    2.4234   27.5227 C.ar    1  UNL1        0.0495
     13 C          -0.9617    1.0441   28.0545 C.ar    1  UNL1        0.0169
     14 C          -0.2173    0.5568   29.2620 C.ar    1  UNL1        0.0309
     15 C           0.7814    1.4488   29.9379 C.ar    1  UNL1        0.1402
     16 F           1.5259    0.9614   31.1456 F       1  UNL1       -0.2042
     17 C           1.0358    2.8282   29.4062 C.ar    1  UNL1        0.0309
     18 C           0.2913    3.3154   28.1986 C.ar    1  UNL1        0.0169
     19 C           1.2676    1.5957   19.4503 C.3     1  UNL1        0.1823
     20 C           2.2150    0.4549   19.2248 C.ar    1  UNL1        0.0014
     21 C           2.7826    0.2103   17.8580 C.ar    1  UNL1       -0.0029
     22 C           3.7300   -0.9305   17.6325 C.ar    1  UNL1       -0.0048
     23 C           4.1098   -1.8268   18.7738 C.ar    1  UNL1       -0.0247
     24 C           3.5422   -1.5823   20.1404 C.ar    1  UNL1       -0.0250
     25 C           2.5948   -0.4415   20.3660 C.ar    1  UNL1       -0.0071
     26 C           3.7874   -2.3494   21.4060 C.3     1  UNL1        0.0431
     27 C           4.6608   -3.5505   21.6172 C.3     1  UNL1        0.0733
     28 N           5.5046   -4.2811   20.6152 N.3     1  UNL1       -0.2969
     29 C           5.6836   -3.9911   19.1544 C.3     1  UNL1        0.0733
     30 C           5.0628   -2.8989   18.3349 C.3     1  UNL1        0.0431
     31 H           5.1626   -5.2415   20.6450 H       1  UNL1        0.1233
@<TRIPOS>BOND
     1     1     2    2
     2     2     3    2
     3     2    19    1
     4    19    20    1
     5    20    21   ar
     6    21    22   ar
     7    22    23   ar
     8    23    24   ar
     9    24    25   ar
    10    24    26    1
    11    26    27    1
    12    27    28    1
    13    28    29    1
    14    29    30    1
    15     2     4    1
    16     4     5   ar
    17     5     6   ar
    18     6     7   ar
    19     7    10    1
    20    10    12    1
    21    12    13   ar
    22    13    14   ar
    23    14    15   ar
    24    15    16    1
    25    15    17   ar
    26    17    18   ar
    27     7     8   ar
    28     8     9   ar
    29    25    20   ar
    30     9     4   ar
    31    30    23    1
    32    18    12   ar
    33    28    31    1
    34    10    11    1
@<TRIPOS>MOLECULE
*****
 31 34 0 0 0
SMALL
GASTEIGER

@<TRIPOS>ATOM
      1 O           8.1585   -2.5001   20.5340 O.2     1  UNL1       -0.1683
      2 S           7.0867   -3.5180   20.7889 S.O2    1  UNL1        0.0143
      3 O           6.0148   -4.5359   21.0438 O.2     1  UNL1       -0.1683
      4 C           6.0933   -2.6512   20.0734 C.ar    1  UNL1        0.1252
      5 C           4.9279   -3.2745   19.3640 C.ar    1  UNL1        0.0228
      6 C           3.9346   -2.4076   18.6485 C.ar    1  UNL1        0.0357
      7 C           4.1067   -0.9175   18.6424 C.ar    1  UNL1        0.1323
      8 N           5.2721   -0.2942   19.3519 N.ar    1  UNL1       -0.2277
      9 C           6.2655   -1.1610   20.0674 C.ar    1  UNL1        0.1186
     10 N           3.1134   -0.0506   17.9270 N.pl3   1  UNL1       -0.2979
     11 H           3.1931    0.0912   16.9560 H       1  UNL1        0.1536
     12 C           1.9986    0.6002   18.6910 C.ar    1  UNL1        0.0495
     13 C           1.6233    2.0237   18.4035 C.ar    1  UNL1        0.0169
     14 C           0.5085    2.6744   19.1675 C.ar    1  UNL1        0.0309
     15 C          -0.2311    1.9016   20.2191 C.ar    1  UNL1        0.1402
     16 F          -1.3459    2.5524   20.9831 F       1  UNL1       -0.2042
     17 C           0.1442    0.4780   20.5066 C.ar    1  UNL1        0.0309
     18 C           1.2590   -0.1727   19.7426 C.ar    1  UNL1        0.0169
     19 C           8.0800   -4.3848   21.5044 C.3     1  UNL1        0.1823
     20 C           7.9380   -4.6293   22.9775 C.ar    1  UNL1        0.0014
     21 C           7.5815   -3.4972   23.8947 C.ar    1  UNL1       -0.0029
     22 C           7.4395   -3.7417   25.3679 C.ar    1  UNL1       -0.0048
     23 C           7.6540   -5.1183   25.9238 C.ar    1  UNL1       -0.0247
     24 C           8.0104   -6.2503   25.0066 C.ar    1  UNL1       -0.0250
     25 C           8.1525   -6.0059   23.5335 C.ar    1  UNL1       -0.0071
     26 C           8.2654   -7.6880   25.3506 C.3     1  UNL1        0.0431
     27 C           8.2268   -8.3485   26.6968 C.3     1  UNL1        0.0733
     28 N           7.9238   -7.7346   28.0314 N.3     1  UNL1       -0.2969
     29 C           7.5845   -6.3085   28.3495 C.3     1  UNL1        0.0733
     30 C           7.4644   -5.1441   27.4115 C.3     1  UNL1        0.0431
     31 H           8.7489   -7.9332   28.5972 H       1  UNL1        0.1233
@<TRIPOS>BOND
     1     1     2    2
     2     2     3    2
     3     2    19    1
     4    19    20    1
     5    20    21   ar
     6    21    22   ar
     7    22    23   ar
     8    23    24   ar
     9    24    25   ar
    10    24    26    1
    11    26    27    1
    12    27    28    1
    13    28    29    1
    14    29    30    1
    15     2     4    1
    16     4     5   ar
    17     5     6   ar
    18     6     7   ar
    19     7    10    1
    20    10    12    1
    21    12    13   ar
    22    13    14   ar
    23    14    15   ar
    24    15    16    1
    25    15    17   ar
    26    17    18   ar
    27     7     8   ar
    28     8     9   ar
    29    25    20   ar
    30     9     4   ar
    31    30    23    1
    32    18    12   ar
    33    28    31    1
    34    10    11    1
@<TRIPOS>MOLECULE
*****
 31 34 0 0 0
SMALL
GASTEIGER

@<TRIPOS>ATOM
      1 O           8.5583   -3.4620   22.7308 O.2     1  UNL1       -0.1683
      2 S           8.4211   -4.8321   22.1359 S.O2    1  UNL1        0.0143
      3 O           8.2838   -6.2023   21.5410 O.2     1  UNL1       -0.1683
      4 C           8.6956   -5.4425   23.4784 C.ar    1  UNL1        0.1252
      5 C           8.4054   -6.8950   23.7154 C.ar    1  UNL1        0.0228
      6 C           8.6800   -7.5052   25.0578 C.ar    1  UNL1        0.0357
      7 C           9.2448   -6.6632   26.1632 C.ar    1  UNL1        0.1323
      8 N           9.5350   -5.2107   25.9262 N.ar    1  UNL1       -0.2277
      9 C           9.2604   -4.6004   24.5838 C.ar    1  UNL1        0.1186
     10 N           9.5194   -7.2734   27.5057 N.pl3   1  UNL1       -0.2979
     11 H          10.1716   -8.0061   27.5892 H       1  UNL1        0.1536
     12 C           8.8001   -6.7672   28.7208 C.ar    1  UNL1        0.0495
     13 C           7.4876   -6.0562   28.5737 C.ar    1  UNL1        0.0169
     14 C           6.7685   -5.5501   29.7888 C.ar    1  UNL1        0.0309
     15 C           7.3618   -5.7549   31.1511 C.ar    1  UNL1        0.1402
     16 F           6.6426   -5.2487   32.3663 F       1  UNL1       -0.2042
     17 C           8.6744   -6.4659   31.2983 C.ar    1  UNL1        0.0309
     18 C           9.3935   -6.9721   30.0832 C.ar    1  UNL1        0.0169
     19 C           8.1465   -4.2218   20.7935 C.3     1  UNL1        0.1823
     20 C           6.8610   -3.4873   20.5524 C.ar    1  UNL1        0.0014
     21 C           5.6482   -3.8086   21.3745 C.ar    1  UNL1       -0.0029
     22 C           4.3627   -3.0741   21.1334 C.ar    1  UNL1       -0.0048
     23 C           4.2901   -2.0184   20.0702 C.ar    1  UNL1       -0.0247
     24 C           5.5028   -1.6972   19.2482 C.ar    1  UNL1       -0.0250
     25 C           6.7884   -2.4316   19.4892 C.ar    1  UNL1       -0.0071
     26 C           5.6460   -0.6889   18.1469 C.3     1  UNL1        0.0431
     27 C           4.6116    0.2473   17.5957 C.3     1  UNL1        0.0733
     28 N           3.1788    0.4062   18.0097 N.3     1  UNL1       -0.2969
     29 C           2.4262   -0.3316   19.0771 C.3     1  UNL1        0.0733
     30 C           2.9208   -1.4107   19.9941 C.3     1  UNL1        0.0431
     31 H           2.6460    0.2353   17.1568 H       1  UNL1        0.1233
@<TRIPOS>BOND
     1     1     2    2
     2     2     3    2
     3     2    19    1
     4    19    20    1
     5    20    21   ar
     6    21    22   ar
     7    22    23   ar
     8    23    24   ar
     9    24    25   ar
    10    24    26    1
    11    26    27    1
    12    27    28    1
    13    28    29    1
    14    29    30    1
    15     2     4    1
    16     4     5   ar
    17     5     6   ar
    18     6     7   ar
    19     7    10    1
    20    10    12    1
    21    12    13   ar
    22    13    14   ar
    23    14    15   ar
    24    15    16    1
    25    15    17   ar
    26    17    18   ar
    27     7     8   ar
    28     8     9   ar
    29    25    20   ar
    30     9     4   ar
    31    30    23    1
    32    18    12   ar
    33    28    31    1
    34    10    11    1
@<TRIPOS>MOLECULE
*****
 31 34 0 0 0
SMALL
GASTEIGER

@<TRIPOS>ATOM
      1 O           9.3799   -3.9996   23.4012 O.2     1  UNL1       -0.1683
      2 S           9.0383   -5.4108   23.0248 S.O2    1  UNL1        0.0143
      3 O           8.6966   -6.8220   22.6484 O.2     1  UNL1       -0.1683
      4 C           8.6357   -5.6914   24.4423 C.ar    1  UNL1        0.1252
      5 C           7.6551   -6.7867   24.7406 C.ar    1  UNL1        0.0228
      6 C           7.2525   -7.0672   26.1581 C.ar    1  UNL1        0.0357
      7 C           7.8304   -6.2527   27.2772 C.ar    1  UNL1        0.1323
      8 N           8.8110   -5.1574   26.9789 N.ar    1  UNL1       -0.2277
      9 C           9.2136   -4.8768   25.5614 C.ar    1  UNL1        0.1186
     10 N           7.4279   -6.5332   28.6947 N.pl3   1  UNL1       -0.2979
     11 H           7.3968   -7.4607   29.0232 H       1  UNL1        0.1536
     12 C           7.0727   -5.4004   29.6116 C.ar    1  UNL1        0.0495
     13 C           6.6411   -4.0815   29.0421 C.ar    1  UNL1        0.0169
     14 C           6.2859   -2.9488   29.9589 C.ar    1  UNL1        0.0309
     15 C           6.3623   -3.1349   31.4454 C.ar    1  UNL1        0.1402
     16 F           6.0071   -2.0021   32.3623 F       1  UNL1       -0.2042
     17 C           6.7939   -4.4538   32.0150 C.ar    1  UNL1        0.0309
     18 C           7.1491   -5.5865   31.0980 C.ar    1  UNL1        0.0169
     19 C           9.4409   -5.1302   21.6074 C.3     1  UNL1        0.1823
     20 C           8.6163   -4.2046   20.7628 C.ar    1  UNL1        0.0014
     21 C           9.2892   -3.2218   19.8510 C.ar    1  UNL1       -0.0029
     22 C           8.4647   -2.2962   19.0064 C.ar    1  UNL1       -0.0048
     23 C           6.9672   -2.3533   19.0736 C.ar    1  UNL1       -0.0247
     24 C           6.2944   -3.3361   19.9853 C.ar    1  UNL1       -0.0250
     25 C           7.1189   -4.2617   20.8300 C.ar    1  UNL1       -0.0071
     26 C           4.8267   -3.5569   20.2030 C.3     1  UNL1        0.0431
     27 C           3.6695   -2.8493   19.5624 C.3     1  UNL1        0.0733
     28 N           3.6941   -1.7463   18.5463 N.3     1  UNL1       -0.2969
     29 C           4.8820   -1.0784   17.9195 C.3     1  UNL1        0.0733
     30 C           6.3387   -1.3485   18.1541 C.3     1  UNL1        0.0431
     31 H           3.1738   -0.9853   18.9826 H       1  UNL1        0.1233
@<TRIPOS>BOND
     1     1     2    2
     2     2     3    2
     3     2    19    1
     4    19    20    1
     5    20    21   ar
     6    21    22   ar
     7    22    23   ar
     8    23    24   ar
     9    24    25   ar
    10    24    26    1
    11    26    27    1
    12    27    28    1
    13    28    29    1
    14    29    30    1
    15     2     4    1
    16     4     5   ar
    17     5     6   ar
    18     6     7   ar
    19     7    10    1
    20    10    12    1
    21    12    13   ar
    22    13    14   ar
    23    14    15   ar
    24    15    16    1
    25    15    17   ar
    26    17    18   ar
    27     7     8   ar
    28     8     9   ar
    29    25    20   ar
    30     9     4   ar
    31    30    23    1
    32    18    12   ar
    33    28    31    1
    34    10    11    1
@<TRIPOS>MOLECULE
*****
 31 34 0 0 0
SMALL
GASTEIGER

@<TRIPOS>ATOM
      1 O           0.8069    3.9282   23.6039 O.2     1  UNL1       -0.1683
      2 S           0.4338    2.5152   23.9420 S.O2    1  UNL1        0.0143
      3 O           0.0608    1.1022   24.2801 O.2     1  UNL1       -0.1683
      4 C           1.2140    2.0259   22.7580 C.ar    1  UNL1        0.1252
      5 C           0.5040    1.6817   21.4823 C.ar    1  UNL1        0.0228
      6 C           1.2843    1.1924   20.2983 C.ar    1  UNL1        0.0357
      7 C           2.7744    1.0473   20.3899 C.ar    1  UNL1        0.1323
      8 N           3.4844    1.3916   21.6657 N.ar    1  UNL1       -0.2277
      9 C           2.7042    1.8809   22.8497 C.ar    1  UNL1        0.1186
     10 N           3.5547    0.5581   19.2060 N.pl3   1  UNL1       -0.2979
     11 H           3.8524    1.1938   18.5158 H       1  UNL1        0.1536
     12 C           3.8814   -0.9000   19.0737 C.ar    1  UNL1        0.0495
     13 C           3.0404   -1.9239   19.7768 C.ar    1  UNL1        0.0169
     14 C           3.3671   -3.3818   19.6445 C.ar    1  UNL1        0.0309
     15 C           4.5348   -3.8160   18.8092 C.ar    1  UNL1        0.1402
     16 F           4.8615   -5.2740   18.6769 F       1  UNL1       -0.2042
     17 C           5.3759   -2.7921   18.1060 C.ar    1  UNL1        0.0309
     18 C           5.0492   -1.3341   18.2384 C.ar    1  UNL1        0.0169
     19 C          -0.3464    3.0045   25.1260 C.3     1  UNL1        0.1823
     20 C          -1.8041    3.3273   24.9821 C.ar    1  UNL1        0.0014
     21 C          -2.6304    3.6229   26.1986 C.ar    1  UNL1       -0.0029
     22 C          -4.0882    3.9457   26.0548 C.ar    1  UNL1       -0.0048
     23 C          -4.7197    3.9730   24.6944 C.ar    1  UNL1       -0.0247
     24 C          -3.8934    3.6774   23.4780 C.ar    1  UNL1       -0.0250
     25 C          -2.4356    3.3546   23.6218 C.ar    1  UNL1       -0.0071
     26 C          -4.3212    3.6511   22.0405 C.3     1  UNL1        0.0431
     27 C          -5.6811    3.9139   21.4645 C.3     1  UNL1        0.0733
     28 N          -6.9488    4.2679   22.1837 N.3     1  UNL1       -0.2969
     29 C          -7.1700    4.4466   23.6566 C.3     1  UNL1        0.0733
     30 C          -6.1779    4.3153   24.7739 C.3     1  UNL1        0.0431
     31 H          -7.6084    3.5385   21.9129 H       1  UNL1        0.1233
@<TRIPOS>BOND
     1     1     2    2
     2     2     3    2
     3     2    19    1
     4    19    20    1
     5    20    21   ar
     6    21    22   ar
     7    22    23   ar
     8    23    24   ar
     9    24    25   ar
    10    24    26    1
    11    26    27    1
    12    27    28    1
    13    28    29    1
    14    29    30    1
    15     2     4    1
    16     4     5   ar
    17     5     6   ar
    18     6     7   ar
    19     7    10    1
    20    10    12    1
    21    12    13   ar
    22    13    14   ar
    23    14    15   ar
    24    15    16    1
    25    15    17   ar
    26    17    18   ar
    27     7     8   ar
    28     8     9   ar
    29    25    20   ar
    30     9     4   ar
    31    30    23    1
    32    18    12   ar
    33    28    31    1
    34    10    11    1
@<TRIPOS>MOLECULE
*****
 31 34 0 0 0
SMALL
GASTEIGER

@<TRIPOS>ATOM
      1 O           2.1325    3.1951   18.8527 O.2     1  UNL1       -0.1683
      2 S           1.4290    1.8900   18.6253 S.O2    1  UNL1        0.0143
      3 O           0.7255    0.5848   18.3979 O.2     1  UNL1       -0.1683
      4 C           0.1284    2.5214   19.0249 C.ar    1  UNL1        0.1252
      5 C          -0.5250    3.5272   18.1241 C.ar    1  UNL1        0.0228
      6 C          -1.8256    4.1586   18.5237 C.ar    1  UNL1        0.0357
      7 C          -2.4729    3.7842   19.8240 C.ar    1  UNL1        0.1323
      8 N          -1.8196    2.7784   20.7248 N.ar    1  UNL1       -0.2277
      9 C          -0.5189    2.1470   20.3253 C.ar    1  UNL1        0.1186
     10 N          -3.7736    4.4156   20.2237 N.pl3   1  UNL1       -0.2979
     11 H          -4.3519    4.8260   19.5408 H       1  UNL1        0.1536
     12 C          -4.1930    4.4216   21.6639 C.ar    1  UNL1        0.0495
     13 C          -3.8291    5.5788   22.5462 C.ar    1  UNL1        0.0169
     14 C          -4.2485    5.5848   23.9863 C.ar    1  UNL1        0.0309
     15 C          -5.0318    4.4336   24.5442 C.ar    1  UNL1        0.1402
     16 F          -5.4512    4.4396   25.9844 F       1  UNL1       -0.2042
     17 C          -5.3957    3.2764   23.6618 C.ar    1  UNL1        0.0309
     18 C          -4.9763    3.2704   22.2217 C.ar    1  UNL1        0.0169
     19 C           2.7297    1.2585   18.2257 C.3     1  UNL1        0.1823
     20 C           3.2494    0.0706   18.9797 C.ar    1  UNL1        0.0014
     21 C           3.7439   -1.1333   18.2340 C.ar    1  UNL1       -0.0029
     22 C           4.2637   -2.3214   18.9879 C.ar    1  UNL1       -0.0048
     23 C           4.2890   -2.3055   20.4877 C.ar    1  UNL1       -0.0247
     24 C           3.7946   -1.1016   21.2333 C.ar    1  UNL1       -0.0250
     25 C           3.2748    0.0864   20.4795 C.ar    1  UNL1       -0.0071
     26 C           3.7324   -0.8800   22.7156 C.3     1  UNL1        0.0431
     27 C           4.1493   -1.8078   23.8182 C.3     1  UNL1        0.0733
     28 N           4.7313   -3.1860   23.7108 N.3     1  UNL1       -0.2969
     29 C           5.0402   -3.9771   22.4744 C.3     1  UNL1        0.0733
     30 C           4.8434   -3.5852   21.0399 C.3     1  UNL1        0.0431
     31 H           4.0882   -3.7766   24.2381 H       1  UNL1        0.1233
@<TRIPOS>BOND
     1     1     2    2
     2     2     3    2
     3     2    19    1
     4    19    20    1
     5    20    21   ar
     6    21    22   ar
     7    22    23   ar
     8    23    24   ar
     9    24    25   ar
    10    24    26    1
    11    26    27    1
    12    27    28    1
    13    28    29    1
    14    29    30    1
    15     2     4    1
    16     4     5   ar
    17     5     6   ar
    18     6     7   ar
    19     7    10    1
    20    10    12    1
    21    12    13   ar
    22    13    14   ar
    23    14    15   ar
    24    15    16    1
    25    15    17   ar
    26    17    18   ar
    27     7     8   ar
    28     8     9   ar
    29    25    20   ar
    30     9     4   ar
    31    30    23    1
    32    18    12   ar
    33    28    31    1
    34    10    11    1
