@<TRIPOS>MOLECULE
*****
 17 18 0 0 0
SMALL
GASTEIGER

@<TRIPOS>ATOM
      1 C         -11.0367  -17.8816   23.3928 C.ar    1  UNL1        0.0030
      2 C         -11.6212  -17.9029   22.0116 C.ar    1  UNL1        0.0795
      3 C         -10.9738  -17.1157   20.9110 C.ar    1  UNL1        0.3456
      4 O         -11.5583  -17.1371   19.5297 O.2     1  UNL1       -0.2445
      5 O          -9.7421  -16.3071   21.1917 O.2     1  UNL1       -0.4209
      6 C          -9.1576  -16.2857   22.5731 C.ar    1  UNL1        0.1514
      7 C          -7.9258  -15.4771   22.8538 C.ar    1  UNL1        0.0744
      8 C          -7.3414  -15.4558   24.2351 C.ar    1  UNL1        0.1418
      9 C          -7.9887  -16.2430   25.3356 C.ar    1  UNL1        0.0371
     10 C          -9.2205  -17.0516   25.0549 C.ar    1  UNL1        0.0059
     11 C          -9.8049  -17.0730   23.6736 C.ar    1  UNL1        0.0324
     12 O          -6.1095  -14.6471   24.5158 O.3     1  UNL1       -0.4713
     13 C          -5.2406  -14.9873   25.6903 C.3     1  UNL1        0.2525
     14 C         -11.6841  -18.6688   24.4934 C.3     1  UNL1        0.0960
     15 C          -9.9000  -20.5531   24.3659 C.3     1  UNL1        0.0861
     16 N         -10.9455  -19.8042   25.1379 N.3     1  UNL1       -0.2926
     17 H         -10.4851  -19.4242   25.9649 H       1  UNL1        0.1236
@<TRIPOS>BOND
     1    15    16    1
     2    16    14    1
     3    14     1    1
     4     1     2   ar
     5     2     3   ar
     6     3     4    2
     7     3     5   ar
     8     5     6   ar
     9     6     7   ar
    10     7     8   ar
    11     8    12    1
    12    12    13    1
    13     8     9   ar
    14     9    10   ar
    15    10    11   ar
    16    11     1   ar
    17    11     6   ar
    18    16    17    1
@<TRIPOS>MOLECULE
*****
 17 18 0 0 0
SMALL
GASTEIGER

@<TRIPOS>ATOM
      1 C         -11.7389  -18.0959   22.5513 C.ar    1  UNL1        0.0030
      2 C         -12.3381  -17.1948   21.5126 C.ar    1  UNL1        0.0795
      3 C         -11.5757  -16.8850   20.2585 C.ar    1  UNL1        0.3456
      4 O         -12.1749  -15.9839   19.2197 O.2     1  UNL1       -0.2445
      5 O         -10.2142  -17.4764   20.0431 O.2     1  UNL1       -0.4209
      6 C          -9.6149  -18.3776   21.0818 C.ar    1  UNL1        0.1514
      7 C          -8.2534  -18.9689   20.8664 C.ar    1  UNL1        0.0744
      8 C          -7.6542  -19.8700   21.9051 C.ar    1  UNL1        0.1418
      9 C          -8.4166  -20.1798   23.1592 C.ar    1  UNL1        0.0371
     10 C          -9.7781  -19.5884   23.3747 C.ar    1  UNL1        0.0059
     11 C         -10.3773  -18.6873   22.3359 C.ar    1  UNL1        0.0324
     12 O          -6.2926  -20.4615   21.6897 O.3     1  UNL1       -0.4713
     13 C          -5.8664  -20.8815   20.3142 C.3     1  UNL1        0.2525
     14 C         -12.5013  -18.4056   23.8055 C.3     1  UNL1        0.0960
     15 C         -14.7467  -18.4267   25.1122 C.3     1  UNL1        0.0861
     16 N         -13.9268  -17.9604   23.9459 N.3     1  UNL1       -0.2926
     17 H         -13.9146  -16.9412   23.9833 H       1  UNL1        0.1236
@<TRIPOS>BOND
     1    15    16    1
     2    16    14    1
     3    14     1    1
     4     1     2   ar
     5     2     3   ar
     6     3     4    2
     7     3     5   ar
     8     5     6   ar
     9     6     7   ar
    10     7     8   ar
    11     8    12    1
    12    12    13    1
    13     8     9   ar
    14     9    10   ar
    15    10    11   ar
    16    11     1   ar
    17    11     6   ar
    18    16    17    1
@<TRIPOS>MOLECULE
*****
 17 18 0 0 0
SMALL
GASTEIGER

@<TRIPOS>ATOM
      1 C         -10.2478  -18.3393   22.1941 C.ar    1  UNL1        0.0030
      2 C          -9.8044  -19.1314   21.0000 C.ar    1  UNL1        0.0795
      3 C          -8.3928  -19.0165   20.5059 C.ar    1  UNL1        0.3456
      4 O          -7.9494  -19.8087   19.3117 O.2     1  UNL1       -0.2445
      5 O          -7.4246  -18.1096   21.2058 O.2     1  UNL1       -0.4209
      6 C          -7.8679  -17.3174   22.4000 C.ar    1  UNL1        0.1514
      7 C          -6.8997  -16.4105   23.0999 C.ar    1  UNL1        0.0744
      8 C          -7.3431  -15.6184   24.2940 C.ar    1  UNL1        0.1418
      9 C          -8.7547  -15.7332   24.7882 C.ar    1  UNL1        0.0371
     10 C          -9.7229  -16.6401   24.0882 C.ar    1  UNL1        0.0059
     11 C          -9.2795  -17.4322   22.8941 C.ar    1  UNL1        0.0324
     12 O          -6.3749  -14.7114   24.9941 O.3     1  UNL1       -0.4713
     13 C          -5.5079  -15.2463   26.0951 C.3     1  UNL1        0.2525
     14 C         -11.6594  -18.4541   22.6883 C.3     1  UNL1        0.0960
     15 C         -12.4396  -16.5273   21.1299 C.3     1  UNL1        0.0861
     16 N         -12.7610  -17.7134   21.9900 N.3     1  UNL1       -0.2926
     17 H         -13.2381  -18.3892   21.3932 H       1  UNL1        0.1236
@<TRIPOS>BOND
     1    15    16    1
     2    16    14    1
     3    14     1    1
     4     1     2   ar
     5     2     3   ar
     6     3     4    2
     7     3     5   ar
     8     5     6   ar
     9     6     7   ar
    10     7     8   ar
    11     8    12    1
    12    12    13    1
    13     8     9   ar
    14     9    10   ar
    15    10    11   ar
    16    11     1   ar
    17    11     6   ar
    18    16    17    1
@<TRIPOS>MOLECULE
*****
 17 18 0 0 0
SMALL
GASTEIGER

@<TRIPOS>ATOM
      1 C         -10.5094  -17.5040   21.9714 C.ar    1  UNL1        0.0030
      2 C         -10.4799  -16.5876   23.1584 C.ar    1  UNL1        0.0795
      3 C          -9.1868  -16.3263   23.8723 C.ar    1  UNL1        0.3456
      4 O          -9.1574  -15.4097   25.0594 O.2     1  UNL1       -0.2445
      5 O          -7.9232  -16.9814   23.3991 O.2     1  UNL1       -0.4209
      6 C          -7.9526  -17.8980   22.2120 C.ar    1  UNL1        0.1514
      7 C          -6.6890  -18.5532   21.7388 C.ar    1  UNL1        0.0744
      8 C          -6.7184  -19.4696   20.5517 C.ar    1  UNL1        0.1418
      9 C          -8.0115  -19.7309   19.8379 C.ar    1  UNL1        0.0371
     10 C          -9.2752  -19.0757   20.3110 C.ar    1  UNL1        0.0059
     11 C          -9.2457  -18.1593   21.4981 C.ar    1  UNL1        0.0324
     12 O          -5.4548  -20.1249   20.0785 O.3     1  UNL1       -0.4713
     13 C          -4.2226  -19.3005   19.8503 C.3     1  UNL1        0.2525
     14 C         -11.8025  -17.7653   21.2575 C.3     1  UNL1        0.0960
     15 C         -11.4270  -15.7982   19.6023 C.3     1  UNL1        0.0861
     16 N         -12.3535  -16.7448   20.3063 N.3     1  UNL1       -0.2926
     17 H         -12.8559  -17.2583   19.5821 H       1  UNL1        0.1236
@<TRIPOS>BOND
     1    15    16    1
     2    16    14    1
     3    14     1    1
     4     1     2   ar
     5     2     3   ar
     6     3     4    2
     7     3     5   ar
     8     5     6   ar
     9     6     7   ar
    10     7     8   ar
    11     8    12    1
    12    12    13    1
    13     8     9   ar
    14     9    10   ar
    15    10    11   ar
    16    11     1   ar
    17    11     6   ar
    18    16    17    1
@<TRIPOS>MOLECULE
*****
 17 18 0 0 0
SMALL
GASTEIGER

@<TRIPOS>ATOM
      1 C          -3.9469  -18.6443   22.3811 C.ar    1  UNL1        0.0030
      2 C          -3.8540  -17.5366   23.3882 C.ar    1  UNL1        0.0795
      3 C          -5.0710  -16.7286   23.7287 C.ar    1  UNL1        0.3456
      4 O          -4.9781  -15.6208   24.7359 O.2     1  UNL1       -0.2445
      5 O          -6.3809  -17.0283   23.0622 O.2     1  UNL1       -0.4209
      6 C          -6.4738  -18.1360   22.0550 C.ar    1  UNL1        0.1514
      7 C          -7.7837  -18.4357   21.3885 C.ar    1  UNL1        0.0744
      8 C          -7.8766  -19.5434   20.3814 C.ar    1  UNL1        0.1418
      9 C          -6.6596  -20.3515   20.0409 C.ar    1  UNL1        0.0371
     10 C          -5.3497  -20.0518   20.7074 C.ar    1  UNL1        0.0059
     11 C          -5.2568  -18.9441   21.7145 C.ar    1  UNL1        0.0324
     12 O          -9.1866  -19.8432   19.7148 O.3     1  UNL1       -0.4713
     13 C         -10.3021  -18.8418   19.7690 C.3     1  UNL1        0.2525
     14 C          -2.7299  -19.4524   22.0405 C.3     1  UNL1        0.0960
     15 C          -1.1650  -18.2731   20.3346 C.3     1  UNL1        0.0861
     16 N          -1.4355  -18.7627   21.7264 N.3     1  UNL1       -0.2926
     17 H          -1.3780  -17.9504   22.3406 H       1  UNL1        0.1236
@<TRIPOS>BOND
     1    15    16    1
     2    16    14    1
     3    14     1    1
     4     1     2   ar
     5     2     3   ar
     6     3     4    2
     7     3     5   ar
     8     5     6   ar
     9     6     7   ar
    10     7     8   ar
    11     8    12    1
    12    12    13    1
    13     8     9   ar
    14     9    10   ar
    15    10    11   ar
    16    11     1   ar
    17    11     6   ar
    18    16    17    1
@<TRIPOS>MOLECULE
*****
 17 18 0 0 0
SMALL
GASTEIGER

@<TRIPOS>ATOM
      1 C          -8.4545  -16.6513   23.5199 C.ar    1  UNL1        0.0030
      2 C          -7.6905  -15.6186   24.2944 C.ar    1  UNL1        0.0795
      3 C          -6.1906  -15.6266   24.2781 C.ar    1  UNL1        0.3456
      4 O          -5.4266  -14.5938   25.0526 O.2     1  UNL1       -0.2445
      5 O          -5.4547  -16.6672   23.4872 O.2     1  UNL1       -0.4209
      6 C          -6.2187  -17.6999   22.7126 C.ar    1  UNL1        0.1514
      7 C          -5.4828  -18.7405   21.9217 C.ar    1  UNL1        0.0744
      8 C          -6.2468  -19.7731   21.1472 C.ar    1  UNL1        0.1418
      9 C          -7.7467  -19.7652   21.1636 C.ar    1  UNL1        0.0371
     10 C          -8.4826  -18.7246   21.9545 C.ar    1  UNL1        0.0059
     11 C          -7.7186  -17.6919   22.7290 C.ar    1  UNL1        0.0324
     12 O          -5.5109  -20.8138   20.3562 O.3     1  UNL1       -0.4713
     13 C          -4.0769  -20.5919   19.9762 C.3     1  UNL1        0.2525
     14 C          -9.9544  -16.6433   23.5363 C.3     1  UNL1        0.0960
     15 C         -12.1966  -16.0518   22.3647 C.3     1  UNL1        0.0861
     16 N         -10.7118  -15.8798   22.4907 N.3     1  UNL1       -0.2926
     17 H         -10.5443  -14.8897   22.6700 H       1  UNL1        0.1236
@<TRIPOS>BOND
     1    15    16    1
     2    16    14    1
     3    14     1    1
     4     1     2   ar
     5     2     3   ar
     6     3     4    2
     7     3     5   ar
     8     5     6   ar
     9     6     7   ar
    10     7     8   ar
    11     8    12    1
    12    12    13    1
    13     8     9   ar
    14     9    10   ar
    15    10    11   ar
    16    11     1   ar
    17    11     6   ar
    18    16    17    1
@<TRIPOS>MOLECULE
*****
 17 18 0 0 0
SMALL
GASTEIGER

@<TRIPOS>ATOM
      1 C          -4.5045  -18.1611   22.8407 C.ar    1  UNL1        0.0030
      2 C          -3.1562  -18.7398   22.5290 C.ar    1  UNL1        0.0795
      3 C          -3.0082  -19.7442   21.4247 C.ar    1  UNL1        0.3456
      4 O          -1.6599  -20.3229   21.1130 O.2     1  UNL1       -0.2445
      5 O          -4.2085  -20.1697   20.6321 O.2     1  UNL1       -0.4209
      6 C          -5.5568  -19.5910   20.9438 C.ar    1  UNL1        0.1514
      7 C          -6.7571  -20.0166   20.1512 C.ar    1  UNL1        0.0744
      8 C          -8.1053  -19.4378   20.4629 C.ar    1  UNL1        0.1418
      9 C          -8.2533  -18.4335   21.5671 C.ar    1  UNL1        0.0371
     10 C          -7.0531  -18.0079   22.3597 C.ar    1  UNL1        0.0059
     11 C          -5.7048  -18.5867   22.0480 C.ar    1  UNL1        0.0324
     12 O          -9.3057  -19.8634   19.6703 O.3     1  UNL1       -0.4713
     13 C         -10.5379  -19.0081   19.6578 C.3     1  UNL1        0.2525
     14 C          -4.6525  -17.1568   23.9449 C.3     1  UNL1        0.0960
     15 C          -6.1286  -15.0517   24.3188 C.3     1  UNL1        0.0861
     16 N          -4.9870  -15.7307   23.6219 N.3     1  UNL1       -0.2926
     17 H          -4.1516  -15.1801   23.8202 H       1  UNL1        0.1236
@<TRIPOS>BOND
     1    15    16    1
     2    16    14    1
     3    14     1    1
     4     1     2   ar
     5     2     3   ar
     6     3     4    2
     7     3     5   ar
     8     5     6   ar
     9     6     7   ar
    10     7     8   ar
    11     8    12    1
    12    12    13    1
    13     8     9   ar
    14     9    10   ar
    15    10    11   ar
    16    11     1   ar
    17    11     6   ar
    18    16    17    1
@<TRIPOS>MOLECULE
*****
 17 18 0 0 0
SMALL
GASTEIGER

@<TRIPOS>ATOM
      1 C          -8.3500  -18.0343   22.0104 C.ar    1  UNL1        0.0030
      2 C          -8.6177  -16.8285   22.8615 C.ar    1  UNL1        0.0795
      3 C          -7.4852  -16.1400   23.5640 C.ar    1  UNL1        0.3456
      4 O          -7.7529  -14.9342   24.4151 O.2     1  UNL1       -0.2445
      5 O          -6.0852  -16.6574   23.4156 O.2     1  UNL1       -0.4209
      6 C          -5.8174  -17.8633   22.5645 C.ar    1  UNL1        0.1514
      7 C          -4.4174  -18.3806   22.4160 C.ar    1  UNL1        0.0744
      8 C          -4.1497  -19.5864   21.5650 C.ar    1  UNL1        0.1418
      9 C          -5.2821  -20.2749   20.8624 C.ar    1  UNL1        0.0371
     10 C          -6.6822  -19.7576   21.0109 C.ar    1  UNL1        0.0059
     11 C          -6.9499  -18.5517   21.8619 C.ar    1  UNL1        0.0324
     12 O          -2.7496  -20.1039   21.4165 O.3     1  UNL1       -0.4713
     13 C          -1.7151  -19.2767   20.7125 C.3     1  UNL1        0.2525
     14 C          -9.4824  -18.7228   21.3079 C.3     1  UNL1        0.0960
     15 C         -11.2420  -17.4189   19.9102 C.3     1  UNL1        0.0861
     16 N          -9.9685  -18.2079   19.9856 N.3     1  UNL1       -0.2926
     17 H          -9.2301  -17.6114   19.6123 H       1  UNL1        0.1236
@<TRIPOS>BOND
     1    15    16    1
     2    16    14    1
     3    14     1    1
     4     1     2   ar
     5     2     3   ar
     6     3     4    2
     7     3     5   ar
     8     5     6   ar
     9     6     7   ar
    10     7     8   ar
    11     8    12    1
    12    12    13    1
    13     8     9   ar
    14     9    10   ar
    15    10    11   ar
    16    11     1   ar
    17    11     6   ar
    18    16    17    1
@<TRIPOS>MOLECULE
*****
 17 18 0 0 0
SMALL
GASTEIGER

@<TRIPOS>ATOM
      1 C          -5.5957  -16.4432   23.8095 C.ar    1  UNL1        0.0030
      2 C          -4.3710  -17.2499   23.4944 C.ar    1  UNL1        0.0795
      3 C          -4.4738  -18.4526   22.6038 C.ar    1  UNL1        0.3456
      4 O          -3.2490  -19.2593   22.2886 O.2     1  UNL1       -0.2445
      5 O          -5.8012  -18.8486   22.0285 O.2     1  UNL1       -0.4209
      6 C          -7.0260  -18.0419   22.3437 C.ar    1  UNL1        0.1514
      7 C          -8.3534  -18.4378   21.7683 C.ar    1  UNL1        0.0744
      8 C          -9.5781  -17.6312   22.0835 C.ar    1  UNL1        0.1418
      9 C          -9.4753  -16.4285   22.9741 C.ar    1  UNL1        0.0371
     10 C          -8.1479  -16.0325   23.5494 C.ar    1  UNL1        0.0059
     11 C          -6.9232  -16.8392   23.2342 C.ar    1  UNL1        0.0324
     12 O         -10.9056  -18.0271   21.5082 O.3     1  UNL1       -0.4713
     13 C         -11.1397  -17.9348   20.0294 C.3     1  UNL1        0.2525
     14 C          -5.4929  -15.2406   24.7001 C.3     1  UNL1        0.0960
     15 C          -6.6626  -15.5854   26.9942 C.3     1  UNL1        0.0861
     16 N          -5.4095  -15.4138   26.1877 N.3     1  UNL1       -0.2926
     17 H          -4.8354  -16.2399   26.3562 H       1  UNL1        0.1236
@<TRIPOS>BOND
     1    15    16    1
     2    16    14    1
     3    14     1    1
     4     1     2   ar
     5     2     3   ar
     6     3     4    2
     7     3     5   ar
     8     5     6   ar
     9     6     7   ar
    10     7     8   ar
    11     8    12    1
    12    12    13    1
    13     8     9   ar
    14     9    10   ar
    15    10    11   ar
    16    11     1   ar
    17    11     6   ar
    18    16    17    1
