@<TRIPOS>MOLECULE
*****
 26 29 0 0 0
SMALL
GASTEIGER

@<TRIPOS>ATOM
      1 C         -10.5718  -19.4077   21.2613 C.ar    1  UNL1        0.1386
      2 C          -9.8224  -19.6743   22.5332 C.ar    1  UNL1        0.0369
      3 C          -8.3257  -19.7717   22.5154 C.ar    1  UNL1        0.0043
      4 C          -7.5784  -19.6026   21.2258 C.ar    1  UNL1        0.0152
      5 C          -8.3277  -19.3361   19.9541 C.ar    1  UNL1        0.0043
      6 C          -9.8245  -19.2387   19.9718 C.ar    1  UNL1        0.0369
      7 C          -6.0816  -19.7001   21.2081 C.2     1  UNL1        0.0763
      8 N          -5.4008  -20.6096   20.2287 N.2     1  UNL1       -0.1836
      9 N          -3.9041  -20.7071   20.2110 N.am    1  UNL1       -0.2062
     10 C          -3.0882  -19.8950   21.1726 C.2     1  UNL1        0.2410
     11 O          -1.5914  -19.9924   21.1548 O.2     1  UNL1       -0.2734
     12 C          -3.7690  -18.9853   22.1520 C.3     1  UNL1        0.0841
     13 C          -4.4498  -18.0758   23.1313 C.3     1  UNL1        0.0160
     14 C          -5.2657  -18.8879   22.1697 C.3     1  UNL1        0.0509
     15 H          -3.4573  -21.3040   19.5682 H       1  UNL1        0.1772
     16 O         -12.0685  -19.3103   21.2791 O.3     1  UNL1       -0.4754
     17 C         -12.7312  -17.9772   21.4624 C.3     1  UNL1        0.2067
     18 C         -13.6852  -17.9722   23.8789 C.3     1  UNL1        0.0053
     19 C         -12.8088  -17.3595   22.8271 C.3     1  UNL1        0.0597
     20 C         -12.0099  -16.1291   23.1399 C.3     1  UNL1        0.0757
     21 N         -10.5124  -16.1674   23.0628 N.3     1  UNL1       -0.2738
     22 C          -9.5785  -16.4682   24.1975 C.3     1  UNL1        0.0721
     23 C          -8.1748  -16.3983   23.6734 C.3     1  UNL1        0.0187
     24 C          -8.2411  -16.0545   22.2149 C.3     1  UNL1        0.0174
     25 C          -9.6858  -15.9117   21.8375 C.3     1  UNL1        0.0576
     26 C         -10.2116  -15.5728   20.4742 C.3     1  UNL1        0.0173
@<TRIPOS>BOND
     1    19    18    1
     2    19    17    1
     3    17    16    1
     4    16     1    1
     5     1     2   ar
     6     2     3   ar
     7     3     4   ar
     8     4     7    1
     9     7     8    2
    10     8     9    1
    11     9    10   am
    12    10    11    2
    13    10    12    1
    14    12    13    1
    15    13    14    1
    16     4     5   ar
    17     5     6   ar
    18    19    20    1
    19    20    21    1
    20    21    22    1
    21    22    23    1
    22    23    24    1
    23    24    25    1
    24    25    26    1
    25     6     1   ar
    26    25    21    1
    27    14     7    1
    28    14    12    1
    29     9    15    1
@<TRIPOS>MOLECULE
*****
 26 29 0 0 0
SMALL
GASTEIGER

@<TRIPOS>ATOM
      1 C          -9.1379  -17.6876   23.6906 C.ar    1  UNL1        0.1386
      2 C          -8.0900  -16.6167   23.7627 C.ar    1  UNL1        0.0369
      3 C          -6.7181  -16.8715   23.2124 C.ar    1  UNL1        0.0043
      4 C          -6.3940  -18.1973   22.5900 C.ar    1  UNL1        0.0152
      5 C          -7.4419  -19.2682   22.5179 C.ar    1  UNL1        0.0043
      6 C          -8.8138  -19.0133   23.0682 C.ar    1  UNL1        0.0369
      7 C          -5.0221  -18.4522   22.0397 C.2     1  UNL1        0.0763
      8 N          -3.8692  -17.5962   22.4732 N.2     1  UNL1       -0.1836
      9 N          -2.4972  -17.8510   21.9229 N.am    1  UNL1       -0.2062
     10 C          -2.2782  -18.9619   20.9391 C.2     1  UNL1        0.2410
     11 O          -0.9062  -19.2168   20.3889 O.2     1  UNL1       -0.2734
     12 C          -3.4311  -19.8180   20.5056 C.3     1  UNL1        0.0841
     13 C          -4.5840  -20.6741   20.0721 C.3     1  UNL1        0.0160
     14 C          -4.8031  -19.5632   21.0559 C.3     1  UNL1        0.0509
     15 H          -1.7405  -17.2891   22.2075 H       1  UNL1        0.1772
     16 O         -10.5098  -17.4327   24.2409 O.3     1  UNL1       -0.4754
     17 C         -11.5573  -18.5041   24.1700 C.3     1  UNL1        0.2067
     18 C         -14.1159  -18.1345   24.4286 C.3     1  UNL1        0.0053
     19 C         -12.8949  -18.2061   23.5602 C.3     1  UNL1        0.0597
     20 C         -13.0116  -17.9796   22.0821 C.3     1  UNL1        0.0757
     21 N         -11.8983  -18.3995   21.1687 N.3     1  UNL1       -0.2738
     22 C         -11.4174  -19.8039   20.9526 C.3     1  UNL1        0.0721
     23 C         -10.2923  -19.7611   19.9615 C.3     1  UNL1        0.0187
     24 C         -10.0778  -18.3304   19.5651 C.3     1  UNL1        0.0174
     25 C         -11.0704  -17.4889   20.3112 C.3     1  UNL1        0.0576
     26 C         -11.2104  -15.9985   20.2165 C.3     1  UNL1        0.0173
@<TRIPOS>BOND
     1    19    18    1
     2    19    17    1
     3    17    16    1
     4    16     1    1
     5     1     2   ar
     6     2     3   ar
     7     3     4   ar
     8     4     7    1
     9     7     8    2
    10     8     9    1
    11     9    10   am
    12    10    11    2
    13    10    12    1
    14    12    13    1
    15    13    14    1
    16     4     5   ar
    17     5     6   ar
    18    19    20    1
    19    20    21    1
    20    21    22    1
    21    22    23    1
    22    23    24    1
    23    24    25    1
    24    25    26    1
    25     6     1   ar
    26    25    21    1
    27    14     7    1
    28    14    12    1
    29     9    15    1
@<TRIPOS>MOLECULE
*****
 26 29 0 0 0
SMALL
GASTEIGER

@<TRIPOS>ATOM
      1 C          -8.6799  -19.4887   21.1605 C.ar    1  UNL1        0.1386
      2 C          -7.8007  -19.2982   22.3609 C.ar    1  UNL1        0.0369
      3 C          -6.3241  -19.1015   22.1854 C.ar    1  UNL1        0.0043
      4 C          -5.7265  -19.0953   20.8096 C.ar    1  UNL1        0.0152
      5 C          -6.6056  -19.2858   19.6092 C.ar    1  UNL1        0.0043
      6 C          -8.0823  -19.4825   19.7847 C.ar    1  UNL1        0.0369
      7 C          -4.2499  -18.8987   20.6341 C.2     1  UNL1        0.0763
      8 N          -3.6133  -19.1489   19.2991 N.2     1  UNL1       -0.1836
      9 N          -2.1367  -18.9522   19.1237 N.am    1  UNL1       -0.2062
     10 C          -1.2966  -18.5053   20.2831 C.2     1  UNL1        0.2410
     11 O           0.1801  -18.3086   20.1077 O.2     1  UNL1       -0.2734
     12 C          -1.9331  -18.2551   21.6182 C.3     1  UNL1        0.0841
     13 C          -2.5696  -18.0049   22.9532 C.3     1  UNL1        0.0160
     14 C          -3.4098  -18.4517   21.7937 C.3     1  UNL1        0.0509
     15 H          -1.7189  -19.1164   18.2475 H       1  UNL1        0.1772
     16 O         -10.1565  -19.6854   21.3360 O.3     1  UNL1       -0.4754
     17 C         -11.1223  -18.9052   20.4943 C.3     1  UNL1        0.2067
     18 C         -11.4181  -16.4217   19.7909 C.3     1  UNL1        0.0053
     19 C         -11.4486  -17.4847   20.8488 C.3     1  UNL1        0.0597
     20 C         -11.8054  -17.1272   22.2611 C.3     1  UNL1        0.0757
     21 N         -10.7471  -17.1239   23.3242 N.3     1  UNL1       -0.2738
     22 C          -9.6626  -16.1002   23.4855 C.3     1  UNL1        0.0721
     23 C          -8.8327  -16.4874   24.6736 C.3     1  UNL1        0.0187
     24 C          -9.4043  -17.7504   25.2465 C.3     1  UNL1        0.0174
     25 C         -10.5875  -18.1437   24.4125 C.3     1  UNL1        0.0576
     26 C         -11.4581  -19.3459   24.6289 C.3     1  UNL1        0.0173
@<TRIPOS>BOND
     1    19    18    1
     2    19    17    1
     3    17    16    1
     4    16     1    1
     5     1     2   ar
     6     2     3   ar
     7     3     4   ar
     8     4     7    1
     9     7     8    2
    10     8     9    1
    11     9    10   am
    12    10    11    2
    13    10    12    1
    14    12    13    1
    15    13    14    1
    16     4     5   ar
    17     5     6   ar
    18    19    20    1
    19    20    21    1
    20    21    22    1
    21    22    23    1
    22    23    24    1
    23    24    25    1
    24    25    26    1
    25     6     1   ar
    26    25    21    1
    27    14     7    1
    28    14    12    1
    29     9    15    1
@<TRIPOS>MOLECULE
*****
 26 29 0 0 0
SMALL
GASTEIGER

@<TRIPOS>ATOM
      1 C          -7.9354  -17.0529   23.7780 C.ar    1  UNL1        0.1386
      2 C          -6.7167  -16.2725   24.1731 C.ar    1  UNL1        0.0369
      3 C          -5.3942  -16.5717   23.5317 C.ar    1  UNL1        0.0043
      4 C          -5.2903  -17.6511   22.4953 C.ar    1  UNL1        0.0152
      5 C          -6.5090  -18.4313   22.1003 C.ar    1  UNL1        0.0043
      6 C          -7.8315  -18.1322   22.7416 C.ar    1  UNL1        0.0369
      7 C          -3.9677  -17.9502   21.8539 C.2     1  UNL1        0.0763
      8 N          -2.8008  -17.0352   22.0795 N.2     1  UNL1       -0.1836
      9 N          -1.4782  -17.3344   21.4381 N.am    1  UNL1       -0.2062
     10 C          -1.3226  -18.5485   20.5711 C.2     1  UNL1        0.2410
     11 O          -0.0001  -18.8476   19.9298 O.2     1  UNL1       -0.2734
     12 C          -2.4896  -19.4635   20.3455 C.3     1  UNL1        0.0841
     13 C          -3.6566  -20.3785   20.1199 C.3     1  UNL1        0.0160
     14 C          -3.8122  -19.1644   20.9869 C.3     1  UNL1        0.0509
     15 H          -0.7123  -16.7338   21.5862 H       1  UNL1        0.1772
     16 O          -9.2580  -16.7537   24.4194 O.3     1  UNL1       -0.4754
     17 C          -9.9606  -17.8114   25.2179 C.3     1  UNL1        0.2067
     18 C         -10.2709  -20.3172   24.6058 C.3     1  UNL1        0.0053
     19 C         -10.7304  -18.8920   24.5181 C.3     1  UNL1        0.0597
     20 C         -11.9596  -18.5475   23.7306 C.3     1  UNL1        0.0757
     21 N         -11.8316  -17.8682   22.3994 N.3     1  UNL1       -0.2738
     22 C         -12.1579  -16.4337   22.1065 C.3     1  UNL1        0.0721
     23 C         -11.8828  -16.1831   20.6534 C.3     1  UNL1        0.0187
     24 C         -11.3866  -17.4628   20.0482 C.3     1  UNL1        0.0174
     25 C         -11.3550  -18.5042   21.1273 C.3     1  UNL1        0.0576
     26 C         -10.9226  -19.9311   20.9630 C.3     1  UNL1        0.0173
@<TRIPOS>BOND
     1    19    18    1
     2    19    17    1
     3    17    16    1
     4    16     1    1
     5     1     2   ar
     6     2     3   ar
     7     3     4   ar
     8     4     7    1
     9     7     8    2
    10     8     9    1
    11     9    10   am
    12    10    11    2
    13    10    12    1
    14    12    13    1
    15    13    14    1
    16     4     5   ar
    17     5     6   ar
    18    19    20    1
    19    20    21    1
    20    21    22    1
    21    22    23    1
    22    23    24    1
    23    24    25    1
    24    25    26    1
    25     6     1   ar
    26    25    21    1
    27    14     7    1
    28    14    12    1
    29     9    15    1
@<TRIPOS>MOLECULE
*****
 26 29 0 0 0
SMALL
GASTEIGER

@<TRIPOS>ATOM
      1 C          -8.7126  -19.6089   20.9973 C.ar    1  UNL1        0.1386
      2 C          -8.1231  -19.4648   19.6255 C.ar    1  UNL1        0.0369
      3 C          -6.6389  -19.3273   19.4576 C.ar    1  UNL1        0.0043
      4 C          -5.7441  -19.3338   20.6616 C.ar    1  UNL1        0.0152
      5 C          -6.3336  -19.4778   22.0333 C.ar    1  UNL1        0.0043
      6 C          -7.8178  -19.6154   22.2012 C.ar    1  UNL1        0.0369
      7 C          -4.2599  -19.1962   20.4937 C.2     1  UNL1        0.0763
      8 N          -3.3299  -19.9712   21.3794 N.2     1  UNL1       -0.1836
      9 N          -1.8457  -19.8336   21.2115 N.am    1  UNL1       -0.2062
     10 C          -1.2915  -18.9211   20.1579 C.2     1  UNL1        0.2410
     11 O           0.1927  -18.7835   19.9900 O.2     1  UNL1       -0.2734
     12 C          -2.2215  -18.1460   19.2721 C.3     1  UNL1        0.0841
     13 C          -3.1515  -17.3711   18.3864 C.3     1  UNL1        0.0160
     14 C          -3.7057  -18.2836   19.4400 C.3     1  UNL1        0.0509
     15 H          -1.2353  -20.3422   21.7928 H       1  UNL1        0.1772
     16 O         -10.1968  -19.7465   21.1652 O.3     1  UNL1       -0.4754
     17 C         -11.1264  -18.9310   20.3163 C.3     1  UNL1        0.2067
     18 C         -11.4582  -16.4037   19.8136 C.3     1  UNL1        0.0053
     19 C         -11.5436  -17.5614   20.7636 C.3     1  UNL1        0.0597
     20 C         -12.0461  -17.3494   22.1608 C.3     1  UNL1        0.0757
     21 N         -11.1798  -17.7073   23.3319 N.3     1  UNL1       -0.2738
     22 C         -11.4954  -18.7313   24.3817 C.3     1  UNL1        0.0721
     23 C         -10.3564  -18.7609   25.3574 C.3     1  UNL1        0.0187
     24 C          -9.3369  -17.7554   24.9106 C.3     1  UNL1        0.0174
     25 C          -9.8458  -17.1043   23.6587 C.3     1  UNL1        0.0576
     26 C          -9.1440  -16.0374   22.8719 C.3     1  UNL1        0.0173
@<TRIPOS>BOND
     1    19    18    1
     2    19    17    1
     3    17    16    1
     4    16     1    1
     5     1     2   ar
     6     2     3   ar
     7     3     4   ar
     8     4     7    1
     9     7     8    2
    10     8     9    1
    11     9    10   am
    12    10    11    2
    13    10    12    1
    14    12    13    1
    15    13    14    1
    16     4     5   ar
    17     5     6   ar
    18    19    20    1
    19    20    21    1
    20    21    22    1
    21    22    23    1
    22    23    24    1
    23    24    25    1
    24    25    26    1
    25     6     1   ar
    26    25    21    1
    27    14     7    1
    28    14    12    1
    29     9    15    1
@<TRIPOS>MOLECULE
*****
 26 29 0 0 0
SMALL
GASTEIGER

@<TRIPOS>ATOM
      1 C          -6.2076  -16.0826   23.5352 C.ar    1  UNL1        0.1386
      2 C          -7.1492  -15.3092   24.4100 C.ar    1  UNL1        0.0369
      3 C          -8.5861  -15.7260   24.5178 C.ar    1  UNL1        0.0043
      4 C          -9.0814  -16.9162   23.7507 C.ar    1  UNL1        0.0152
      5 C          -8.1397  -17.6894   22.8759 C.ar    1  UNL1        0.0043
      6 C          -6.7028  -17.2726   22.7681 C.ar    1  UNL1        0.0369
      7 C         -10.5183  -17.3329   23.8584 C.2     1  UNL1        0.0763
      8 N         -10.9226  -18.3813   24.8521 N.2     1  UNL1       -0.1836
      9 N         -12.3595  -18.7980   24.9598 N.am    1  UNL1       -0.2062
     10 C         -13.3921  -18.1665   24.0739 C.2     1  UNL1        0.2410
     11 O         -14.8290  -18.5833   24.1816 O.2     1  UNL1       -0.2734
     12 C         -12.9877  -17.1181   23.0801 C.3     1  UNL1        0.0841
     13 C         -12.5834  -16.0698   22.0864 C.3     1  UNL1        0.0160
     14 C         -11.5508  -16.7014   22.9724 C.3     1  UNL1        0.0509
     15 H         -12.6249  -19.4861   25.6121 H       1  UNL1        0.1772
     16 O          -4.7707  -15.6658   23.4274 O.3     1  UNL1       -0.4754
     17 C          -3.6795  -16.6549   23.7120 C.3     1  UNL1        0.2067
     18 C          -2.0512  -16.2381   21.7309 C.3     1  UNL1        0.0053
     19 C          -2.8359  -17.1844   22.5904 C.3     1  UNL1        0.0597
     20 C          -2.7770  -18.6601   22.3283 C.3     1  UNL1        0.0757
     21 N          -3.8861  -19.3329   21.5751 N.3     1  UNL1       -0.2738
     22 C          -5.0608  -20.0415   22.1819 C.3     1  UNL1        0.0721
     23 C          -5.9159  -20.5618   21.0647 C.3     1  UNL1        0.0187
     24 C          -5.2697  -20.1748   19.7675 C.3     1  UNL1        0.0174
     25 C          -4.0152  -19.4153   20.0830 C.3     1  UNL1        0.0576
     26 C          -3.0579  -18.8393   19.0820 C.3     1  UNL1        0.0173
@<TRIPOS>BOND
     1    19    18    1
     2    19    17    1
     3    17    16    1
     4    16     1    1
     5     1     2   ar
     6     2     3   ar
     7     3     4   ar
     8     4     7    1
     9     7     8    2
    10     8     9    1
    11     9    10   am
    12    10    11    2
    13    10    12    1
    14    12    13    1
    15    13    14    1
    16     4     5   ar
    17     5     6   ar
    18    19    20    1
    19    20    21    1
    20    21    22    1
    21    22    23    1
    22    23    24    1
    23    24    25    1
    24    25    26    1
    25     6     1   ar
    26    25    21    1
    27    14     7    1
    28    14    12    1
    29     9    15    1
@<TRIPOS>MOLECULE
*****
 26 29 0 0 0
SMALL
GASTEIGER

@<TRIPOS>ATOM
      1 C          -7.2903  -19.0936   20.0615 C.ar    1  UNL1        0.1386
      2 C          -8.6628  -19.4634   19.5823 C.ar    1  UNL1        0.0369
      3 C          -9.8339  -19.3670   20.5146 C.ar    1  UNL1        0.0043
      4 C          -9.6325  -18.9009   21.9261 C.ar    1  UNL1        0.0152
      5 C          -8.2601  -18.5312   22.4053 C.ar    1  UNL1        0.0043
      6 C          -7.0889  -18.6276   21.4730 C.ar    1  UNL1        0.0369
      7 C         -10.8037  -18.8045   22.8584 C.2     1  UNL1        0.0763
      8 N         -10.7038  -19.3602   24.2481 N.2     1  UNL1       -0.1836
      9 N         -11.8749  -19.2638   25.1803 N.am    1  UNL1       -0.2062
     10 C         -13.1459  -18.6118   24.7230 C.2     1  UNL1        0.2410
     11 O         -14.3171  -18.5154   25.6553 O.2     1  UNL1       -0.2734
     12 C         -13.2459  -18.0560   23.3333 C.3     1  UNL1        0.0841
     13 C         -13.3458  -17.5004   21.9436 C.3     1  UNL1        0.0160
     14 C         -12.0748  -18.1524   22.4010 C.3     1  UNL1        0.0509
     15 H         -11.8093  -19.6286   26.0924 H       1  UNL1        0.1772
     16 O          -6.1191  -19.1900   19.1293 O.3     1  UNL1       -0.4754
     17 C          -4.7290  -18.9648   19.6456 C.3     1  UNL1        0.2067
     18 C          -4.4140  -21.5219   19.9796 C.3     1  UNL1        0.0053
     19 C          -3.9343  -20.1160   20.1870 C.3     1  UNL1        0.0597
     20 C          -2.6599  -19.8612   20.9359 C.3     1  UNL1        0.0757
     21 N          -2.0910  -18.4747   20.9984 N.3     1  UNL1       -0.2738
     22 C          -1.0057  -17.9266   20.1198 C.3     1  UNL1        0.0721
     23 C          -0.7515  -16.5059   20.5288 C.3     1  UNL1        0.0187
     24 C          -1.6795  -16.1761   21.6602 C.3     1  UNL1        0.0174
     25 C          -2.5073  -17.3929   21.9504 C.3     1  UNL1        0.0576
     26 C          -3.5658  -17.5076   23.0070 C.3     1  UNL1        0.0173
@<TRIPOS>BOND
     1    19    18    1
     2    19    17    1
     3    17    16    1
     4    16     1    1
     5     1     2   ar
     6     2     3   ar
     7     3     4   ar
     8     4     7    1
     9     7     8    2
    10     8     9    1
    11     9    10   am
    12    10    11    2
    13    10    12    1
    14    12    13    1
    15    13    14    1
    16     4     5   ar
    17     5     6   ar
    18    19    20    1
    19    20    21    1
    20    21    22    1
    21    22    23    1
    22    23    24    1
    23    24    25    1
    24    25    26    1
    25     6     1   ar
    26    25    21    1
    27    14     7    1
    28    14    12    1
    29     9    15    1
@<TRIPOS>MOLECULE
*****
 26 29 0 0 0
SMALL
GASTEIGER

@<TRIPOS>ATOM
      1 C          -7.5237  -16.9400   23.8848 C.ar    1  UNL1        0.1386
      2 C          -6.2482  -16.2337   24.2377 C.ar    1  UNL1        0.0369
      3 C          -4.9714  -16.5980   23.5399 C.ar    1  UNL1        0.0043
      4 C          -4.9700  -17.6686   22.4892 C.ar    1  UNL1        0.0152
      5 C          -6.2454  -18.3748   22.1364 C.ar    1  UNL1        0.0043
      6 C          -7.5222  -18.0105   22.8342 C.ar    1  UNL1        0.0369
      7 C          -3.6932  -18.0329   21.7914 C.2     1  UNL1        0.0763
      8 N          -3.5105  -19.4135   21.2341 N.2     1  UNL1       -0.1836
      9 N          -2.2337  -19.7778   20.5363 N.am    1  UNL1       -0.2062
     10 C          -1.1395  -18.7615   20.3957 C.2     1  UNL1        0.2410
     11 O           0.1373  -19.1259   19.6979 O.2     1  UNL1       -0.2734
     12 C          -1.3221  -17.3809   20.9529 C.3     1  UNL1        0.0841
     13 C          -1.5047  -16.0003   21.5102 C.3     1  UNL1        0.0160
     14 C          -2.5989  -17.0165   21.6508 C.3     1  UNL1        0.0509
     15 H          -2.1139  -20.6840   20.1706 H       1  UNL1        0.1772
     16 O          -8.8005  -16.5757   24.5827 O.3     1  UNL1       -0.4754
     17 C         -10.1189  -16.9870   23.9973 C.3     1  UNL1        0.2067
     18 C         -10.2821  -19.1216   25.4693 C.3     1  UNL1        0.0053
     19 C         -10.6346  -18.3786   24.2149 C.3     1  UNL1        0.0597
     20 C         -11.5028  -19.0274   23.1779 C.3     1  UNL1        0.0757
     21 N         -11.2121  -18.8216   21.7208 N.3     1  UNL1       -0.2738
     22 C         -10.3794  -19.7180   20.8528 C.3     1  UNL1        0.0721
     23 C         -10.3557  -19.1337   19.4714 C.3     1  UNL1        0.0187
     24 C         -11.1736  -17.8764   19.4857 C.3     1  UNL1        0.0174
     25 C         -11.7028  -17.6835   20.8759 C.3     1  UNL1        0.0576
     26 C         -12.5705  -16.5513   21.3398 C.3     1  UNL1        0.0173
@<TRIPOS>BOND
     1    19    18    1
     2    19    17    1
     3    17    16    1
     4    16     1    1
     5     1     2   ar
     6     2     3   ar
     7     3     4   ar
     8     4     7    1
     9     7     8    2
    10     8     9    1
    11     9    10   am
    12    10    11    2
    13    10    12    1
    14    12    13    1
    15    13    14    1
    16     4     5   ar
    17     5     6   ar
    18    19    20    1
    19    20    21    1
    20    21    22    1
    21    22    23    1
    22    23    24    1
    23    24    25    1
    24    25    26    1
    25     6     1   ar
    26    25    21    1
    27    14     7    1
    28    14    12    1
    29     9    15    1
@<TRIPOS>MOLECULE
*****
 26 29 0 0 0
SMALL
GASTEIGER

@<TRIPOS>ATOM
      1 C         -10.7810  -15.8490   22.8240 C.ar    1  UNL1        0.1386
      2 C         -10.1140  -16.2029   24.1202 C.ar    1  UNL1        0.0369
      3 C          -8.6734  -16.6207   24.1328 C.ar    1  UNL1        0.0043
      4 C          -7.8999  -16.6847   22.8492 C.ar    1  UNL1        0.0152
      5 C          -8.5668  -16.3308   21.5531 C.ar    1  UNL1        0.0043
      6 C         -10.0074  -15.9130   21.5405 C.ar    1  UNL1        0.0369
      7 C          -6.4593  -17.1025   22.8617 C.2     1  UNL1        0.0763
      8 N          -5.9554  -18.0880   21.8494 N.2     1  UNL1       -0.1836
      9 N          -4.5148  -18.5059   21.8620 N.am    1  UNL1       -0.2062
     10 C          -3.5781  -17.9382   22.8869 C.2     1  UNL1        0.2410
     11 O          -2.1376  -18.3560   22.8995 O.2     1  UNL1       -0.2734
     12 C          -4.0820  -16.9526   23.8992 C.3     1  UNL1        0.0841
     13 C          -4.5860  -15.9671   24.9115 C.3     1  UNL1        0.0160
     14 C          -5.5226  -16.5348   23.8867 C.3     1  UNL1        0.0509
     15 H          -4.1840  -19.1527   21.1976 H       1  UNL1        0.1772
     16 O         -12.2216  -15.4311   22.8114 O.3     1  UNL1       -0.4754
     17 C         -13.2872  -16.4234   22.4510 C.3     1  UNL1        0.2067
     18 C         -13.9255  -18.1479   24.2864 C.3     1  UNL1        0.0053
     19 C         -13.2293  -17.8184   22.9992 C.3     1  UNL1        0.0597
     20 C         -12.4753  -18.8839   22.2603 C.3     1  UNL1        0.0757
     21 N         -11.1810  -19.4055   22.8106 N.3     1  UNL1       -0.2738
     22 C         -10.9060  -19.7447   24.2457 C.3     1  UNL1        0.0721
     23 C          -9.4895  -20.2282   24.3444 C.3     1  UNL1        0.0187
     24 C          -8.8890  -20.1878   22.9704 C.3     1  UNL1        0.0174
     25 C          -9.9345  -19.6793   22.0225 C.3     1  UNL1        0.0576
     26 C          -9.7633  -19.4797   20.5457 C.3     1  UNL1        0.0173
@<TRIPOS>BOND
     1    19    18    1
     2    19    17    1
     3    17    16    1
     4    16     1    1
     5     1     2   ar
     6     2     3   ar
     7     3     4   ar
     8     4     7    1
     9     7     8    2
    10     8     9    1
    11     9    10   am
    12    10    11    2
    13    10    12    1
    14    12    13    1
    15    13    14    1
    16     4     5   ar
    17     5     6   ar
    18    19    20    1
    19    20    21    1
    20    21    22    1
    21    22    23    1
    22    23    24    1
    23    24    25    1
    24    25    26    1
    25     6     1   ar
    26    25    21    1
    27    14     7    1
    28    14    12    1
    29     9    15    1
