@<TRIPOS>MOLECULE
*****
 34 38 0 0 0
SMALL
GASTEIGER

@<TRIPOS>ATOM
      1 N         -11.1286  -19.9728   21.9942 N.3     1  UNL1       -0.2985
      2 H         -11.3387  -20.9114   21.6547 H       1  UNL1        0.1232
      3 C          -9.6377  -19.8165   21.9401 C.3     1  UNL1        0.0543
      4 C          -8.6928  -19.9682   23.0952 C.3     1  UNL1        0.0160
      5 C          -7.3012  -19.7265   22.5903 C.3     1  UNL1        0.0055
      6 C          -7.3859  -19.4255   21.1233 C.3     1  UNL1        0.0202
      7 C          -7.7789  -19.1636   19.6996 C.3     1  UNL1        0.0057
      8 C          -8.8300  -19.4811   20.7214 C.3     1  UNL1        0.0185
      9 C          -5.9121  -19.2386   20.9161 C.ar    1  UNL1       -0.0228
     10 C          -5.3816  -18.9168   19.5505 C.ar    1  UNL1       -0.0043
     11 C          -3.9078  -18.7299   19.3433 C.ar    1  UNL1        0.0035
     12 C          -2.9644  -18.8648   20.5019 C.ar    1  UNL1        0.0714
     13 C          -3.4950  -19.1866   21.8675 C.ar    1  UNL1        0.0035
     14 C          -4.9689  -19.3735   22.0746 C.ar    1  UNL1       -0.0043
     15 C          -1.4906  -18.6779   20.2947 C.3     1  UNL1        0.4186
     16 F          -0.0168  -18.4910   20.0875 F       1  UNL1       -0.1659
     17 F          -1.2791  -18.6999   21.7795 F       1  UNL1       -0.1659
     18 F          -1.7021  -18.6559   18.8099 F       1  UNL1       -0.1659
     19 C         -12.0098  -19.0289   21.2309 C.3     1  UNL1        0.0694
     20 C         -12.6564  -17.8722   21.9338 C.3     1  UNL1        0.0292
     21 C         -12.0215  -16.5141   21.8833 C.3     1  UNL1        0.0666
     22 S         -10.7694  -16.3008   21.0854 S.3     1  UNL1       -0.0756
     23 C          -7.7911  -15.5266   23.4508 C.ar    1  UNL1        0.2029
     24 N          -7.3523  -14.8325   22.1956 N.ar    1  UNL1       -0.1250
     25 N          -8.4145  -15.0380   21.1567 N.ar    1  UNL1       -0.1220
     26 C          -9.5099  -15.8592   21.7699 C.ar    1  UNL1        0.1933
     27 N          -9.1246  -16.1612   23.1877 N.ar    1  UNL1       -0.2860
     28 C          -9.9311  -16.9578   24.1700 C.3     1  UNL1        0.1341
     29 C          -4.6065  -16.1601   23.7771 C.3     1  UNL1        0.0556
     30 C          -5.5662  -15.8685   24.8924 C.ar    1  UNL1        0.1001
     31 N          -5.2307  -15.8169   26.3535 N.ar    1  UNL1       -0.2085
     32 C          -6.4870  -15.4938   27.1065 C.ar    1  UNL1        0.2849
     33 O          -7.5991  -15.3458   26.1108 O.2     1  UNL1       -0.4283
     34 C          -7.0300  -15.5773   24.7424 C.ar    1  UNL1        0.1964
@<TRIPOS>BOND
     1    29    30    1
     2    30    31   ar
     3    31    32   ar
     4    32    33   ar
     5    33    34   ar
     6    34    23    1
     7    23    24   ar
     8    24    25   ar
     9    25    26   ar
    10    26    22    1
    11    22    21    1
    12    21    20    1
    13    20    19    1
    14    19     1    1
    15     3     1    1
    16     3     4    1
    17     4     5    1
    18     5     6    1
    19     6     9    1
    20     9    10   ar
    21    10    11   ar
    22    11    12   ar
    23    12    15    1
    24    15    16    1
    25    15    17    1
    26    15    18    1
    27    12    13   ar
    28    13    14   ar
    29     6     7    1
    30     7     8    1
    31    26    27   ar
    32    27    28    1
    33    34    30   ar
    34    27    23   ar
    35     8     3    1
    36     8     6    1
    37    14     9   ar
    38     1     2    1
@<TRIPOS>MOLECULE
*****
 34 38 0 0 0
SMALL
GASTEIGER

@<TRIPOS>ATOM
      1 N          -8.8863  -15.4351   26.0290 N.3     1  UNL1       -0.2985
      2 H          -8.5029  -14.5819   25.6221 H       1  UNL1        0.1232
      3 C          -9.0086  -16.4300   24.9131 C.3     1  UNL1        0.0543
      4 C          -9.5417  -17.8270   25.0320 C.3     1  UNL1        0.0160
      5 C          -9.4818  -18.4630   23.6748 C.3     1  UNL1        0.0055
      6 C          -8.9117  -17.4590   22.7172 C.3     1  UNL1        0.0202
      7 C          -8.3286  -16.2702   22.0125 C.3     1  UNL1        0.0057
      8 C          -8.6192  -16.2026   23.4825 C.3     1  UNL1        0.0185
      9 C          -8.9737  -18.3436   21.5073 C.ar    1  UNL1       -0.0228
     10 C         -10.3008  -18.6971   20.9040 C.ar    1  UNL1       -0.0043
     11 C         -10.3628  -19.5816   19.6941 C.ar    1  UNL1        0.0035
     12 C          -9.0977  -20.1126   19.0876 C.ar    1  UNL1        0.0714
     13 C          -7.7707  -19.7591   19.6909 C.ar    1  UNL1        0.0035
     14 C          -7.7087  -18.8745   20.9008 C.ar    1  UNL1       -0.0043
     15 C          -9.1598  -20.9972   17.8777 C.3     1  UNL1        0.4186
     16 F          -9.2218  -21.8817   16.6679 F       1  UNL1       -0.1659
     17 F         -10.3940  -20.2801   17.4167 F       1  UNL1       -0.1659
     18 F          -7.9256  -21.7142   18.3387 F       1  UNL1       -0.1659
     19 C          -8.0487  -15.7557   27.2313 C.3     1  UNL1        0.0694
     20 C          -6.5684  -15.5152   27.2000 C.3     1  UNL1        0.0292
     21 C          -5.8761  -15.2688   25.8923 C.3     1  UNL1        0.0666
     22 S          -5.3546  -16.4242   25.0904 S.3     1  UNL1       -0.0756
     23 C          -3.0289  -16.5166   21.9843 C.ar    1  UNL1        0.2029
     24 N          -3.3894  -15.0614   22.0333 N.ar    1  UNL1       -0.1250
     25 N          -4.3044  -14.8497   23.2028 N.ar    1  UNL1       -0.1220
     26 C          -4.5096  -16.1740   23.8766 C.ar    1  UNL1        0.1933
     27 N          -3.7212  -17.2043   23.1236 N.ar    1  UNL1       -0.2860
     28 C          -3.6395  -18.6655   23.4521 C.3     1  UNL1        0.1341
     29 C          -3.9221  -18.7765   19.8061 C.3     1  UNL1        0.0556
     30 C          -2.5439  -18.2083   19.9723 C.ar    1  UNL1        0.1001
     31 N          -1.3342  -18.5791   19.1665 N.ar    1  UNL1       -0.2085
     32 C          -0.1761  -17.7695   19.6698 C.ar    1  UNL1        0.2849
     33 O          -0.6700  -16.8984   20.7865 O.2     1  UNL1       -0.4283
     34 C          -2.1333  -17.1696   20.9736 C.ar    1  UNL1        0.1964
@<TRIPOS>BOND
     1    29    30    1
     2    30    31   ar
     3    31    32   ar
     4    32    33   ar
     5    33    34   ar
     6    34    23    1
     7    23    24   ar
     8    24    25   ar
     9    25    26   ar
    10    26    22    1
    11    22    21    1
    12    21    20    1
    13    20    19    1
    14    19     1    1
    15     3     1    1
    16     3     4    1
    17     4     5    1
    18     5     6    1
    19     6     9    1
    20     9    10   ar
    21    10    11   ar
    22    11    12   ar
    23    12    15    1
    24    15    16    1
    25    15    17    1
    26    15    18    1
    27    12    13   ar
    28    13    14   ar
    29     6     7    1
    30     7     8    1
    31    26    27   ar
    32    27    28    1
    33    34    30   ar
    34    27    23   ar
    35     8     3    1
    36     8     6    1
    37    14     9   ar
    38     1     2    1
@<TRIPOS>MOLECULE
*****
 34 38 0 0 0
SMALL
GASTEIGER

@<TRIPOS>ATOM
      1 N          -5.8834  -15.8444   27.3091 N.3     1  UNL1       -0.2985
      2 H          -6.0702  -16.7860   27.6538 H       1  UNL1        0.1232
      3 C          -5.3468  -15.9917   25.9161 C.3     1  UNL1        0.0543
      4 C          -5.7137  -15.1422   24.7355 C.3     1  UNL1        0.0160
      5 C          -4.9428  -15.6399   23.5490 C.3     1  UNL1        0.0055
      6 C          -4.0995  -16.7970   23.9961 C.3     1  UNL1        0.0202
      7 C          -3.3863  -17.8982   24.7232 C.3     1  UNL1        0.0057
      8 C          -4.3492  -17.0144   25.4591 C.3     1  UNL1        0.0185
      9 C          -3.4778  -17.0645   22.6576 C.ar    1  UNL1       -0.0228
     10 C          -3.9847  -18.1912   21.8068 C.ar    1  UNL1       -0.0043
     11 C          -3.3629  -18.4587   20.4682 C.ar    1  UNL1        0.0035
     12 C          -2.2342  -17.5995   19.9803 C.ar    1  UNL1        0.0714
     13 C          -1.7273  -16.4728   20.8310 C.ar    1  UNL1        0.0035
     14 C          -2.3492  -16.2053   22.1697 C.ar    1  UNL1       -0.0043
     15 C          -1.6125  -17.8670   18.6417 C.3     1  UNL1        0.4186
     16 F          -0.9907  -18.1345   17.3031 F       1  UNL1       -0.1659
     17 F          -0.2780  -18.0572   19.2996 F       1  UNL1       -0.1659
     18 F          -2.9470  -17.6767   17.9838 F       1  UNL1       -0.1659
     19 C          -7.1254  -15.0395   27.5532 C.3     1  UNL1        0.0694
     20 C          -8.4743  -15.6514   27.3165 C.3     1  UNL1        0.0292
     21 C          -8.5971  -17.1274   27.0789 C.3     1  UNL1        0.0666
     22 S          -9.5797  -17.6455   26.0709 S.3     1  UNL1       -0.0756
     23 C          -8.9486  -17.9533   22.2535 C.ar    1  UNL1        0.2029
     24 N          -8.8471  -16.4691   22.4453 N.ar    1  UNL1       -0.1250
     25 N          -9.0712  -16.1731   23.8986 N.ar    1  UNL1       -0.1220
     26 C          -9.3112  -17.4745   24.6051 C.ar    1  UNL1        0.1933
     27 N          -9.2354  -18.5746   23.5883 N.ar    1  UNL1       -0.2860
     28 C          -9.4148  -20.0391   23.8589 C.3     1  UNL1        0.1341
     29 C         -11.2974  -19.5700   20.6665 C.3     1  UNL1        0.0556
     30 C          -9.8706  -19.4304   20.2254 C.ar    1  UNL1        0.1001
     31 N          -9.2728  -20.0094   18.9774 N.ar    1  UNL1       -0.2085
     32 C          -7.8238  -19.6241   18.9356 C.ar    1  UNL1        0.2849
     33 O          -7.5260  -18.8070   20.1577 O.2     1  UNL1       -0.4283
     34 C          -8.7909  -18.6872   20.9549 C.ar    1  UNL1        0.1964
@<TRIPOS>BOND
     1    29    30    1
     2    30    31   ar
     3    31    32   ar
     4    32    33   ar
     5    33    34   ar
     6    34    23    1
     7    23    24   ar
     8    24    25   ar
     9    25    26   ar
    10    26    22    1
    11    22    21    1
    12    21    20    1
    13    20    19    1
    14    19     1    1
    15     3     1    1
    16     3     4    1
    17     4     5    1
    18     5     6    1
    19     6     9    1
    20     9    10   ar
    21    10    11   ar
    22    11    12   ar
    23    12    15    1
    24    15    16    1
    25    15    17    1
    26    15    18    1
    27    12    13   ar
    28    13    14   ar
    29     6     7    1
    30     7     8    1
    31    26    27   ar
    32    27    28    1
    33    34    30   ar
    34    27    23   ar
    35     8     3    1
    36     8     6    1
    37    14     9   ar
    38     1     2    1
@<TRIPOS>MOLECULE
*****
 34 38 0 0 0
SMALL
GASTEIGER

@<TRIPOS>ATOM
      1 N           1.4713    3.0146   25.1215 N.3     1  UNL1       -0.2985
      2 H           1.8038    2.6528   26.0153 H       1  UNL1        0.1232
      3 C           1.8047    1.9823   24.0855 C.3     1  UNL1        0.0543
      4 C           1.4024    2.0210   22.6410 C.3     1  UNL1        0.0160
      5 C           1.9480    0.7928   21.9749 C.3     1  UNL1        0.0055
      6 C           2.6875   -0.0050   23.0077 C.3     1  UNL1        0.0202
      7 C           3.3415   -0.5707   24.2334 C.3     1  UNL1        0.0057
      8 C           2.5989    0.7302   24.3122 C.3     1  UNL1        0.0185
      9 C           3.0964   -1.1150   22.0854 C.ar    1  UNL1       -0.0228
     10 C           2.6697   -1.0909   20.6475 C.ar    1  UNL1       -0.0043
     11 C           3.0786   -2.2009   19.7252 C.ar    1  UNL1        0.0035
     12 C           3.9143   -3.3350   20.2407 C.ar    1  UNL1        0.0714
     13 C           4.3409   -3.3591   21.6785 C.ar    1  UNL1        0.0035
     14 C           3.9320   -2.2490   22.6009 C.ar    1  UNL1       -0.0043
     15 C           4.3232   -4.4450   19.3183 C.3     1  UNL1        0.4186
     16 F           4.7320   -5.5549   18.3960 F       1  UNL1       -0.1659
     17 F           5.7524   -4.2666   19.7372 F       1  UNL1       -0.1659
     18 F           2.8939   -4.6234   18.8994 F       1  UNL1       -0.1659
     19 C           0.0469    3.4369   25.3282 C.3     1  UNL1        0.0694
     20 C          -0.9557    2.4577   25.8631 C.3     1  UNL1        0.0292
     21 C          -0.8865    2.0209   27.2964 C.3     1  UNL1        0.0666
     22 S          -0.1803    0.7483   27.6593 S.3     1  UNL1       -0.0756
     23 C           2.2963    0.0852   30.5735 C.ar    1  UNL1        0.2029
     24 N           1.2847    0.9644   31.2472 N.ar    1  UNL1       -0.1250
     25 N           0.2339    1.3198   30.2376 N.ar    1  UNL1       -0.1220
     26 C           0.5960    0.6603   28.9398 C.ar    1  UNL1        0.1933
     27 N           1.8706   -0.1027   29.1475 N.ar    1  UNL1       -0.2860
     28 C           2.5928   -0.9116   28.1112 C.3     1  UNL1        0.1341
     29 C           5.3826    0.9650   29.9819 C.3     1  UNL1        0.0556
     30 C           4.9375   -0.0983   30.9416 C.ar    1  UNL1        0.1001
     31 N           5.8328   -0.9441   31.7979 N.ar    1  UNL1       -0.2085
     32 C           4.9675   -1.8711   32.5990 C.ar    1  UNL1        0.2849
     33 O           3.5375   -1.5983   32.2379 O.2     1  UNL1       -0.4283
     34 C           3.5188   -0.5027   31.2136 C.ar    1  UNL1        0.1964
@<TRIPOS>BOND
     1    29    30    1
     2    30    31   ar
     3    31    32   ar
     4    32    33   ar
     5    33    34   ar
     6    34    23    1
     7    23    24   ar
     8    24    25   ar
     9    25    26   ar
    10    26    22    1
    11    22    21    1
    12    21    20    1
    13    20    19    1
    14    19     1    1
    15     3     1    1
    16     3     4    1
    17     4     5    1
    18     5     6    1
    19     6     9    1
    20     9    10   ar
    21    10    11   ar
    22    11    12   ar
    23    12    15    1
    24    15    16    1
    25    15    17    1
    26    15    18    1
    27    12    13   ar
    28    13    14   ar
    29     6     7    1
    30     7     8    1
    31    26    27   ar
    32    27    28    1
    33    34    30   ar
    34    27    23   ar
    35     8     3    1
    36     8     6    1
    37    14     9   ar
    38     1     2    1
@<TRIPOS>MOLECULE
*****
 34 38 0 0 0
SMALL
GASTEIGER

@<TRIPOS>ATOM
      1 N           2.6856    1.4095   27.2590 N.3     1  UNL1       -0.2985
      2 H           2.1066    0.8336   27.8702 H       1  UNL1        0.1232
      3 C           2.8123    0.6703   25.9599 C.3     1  UNL1        0.0543
      4 C           2.0448    0.9578   24.7035 C.3     1  UNL1        0.0160
      5 C           2.4868   -0.0209   23.6563 C.3     1  UNL1        0.0055
      6 C           3.5274   -0.9132   24.2654 C.3     1  UNL1        0.0202
      7 C           4.5189   -1.6323   25.1312 C.3     1  UNL1        0.0057
      8 C           3.7286   -0.4860   25.6891 C.3     1  UNL1        0.0185
      9 C           3.7621   -1.7416   23.0371 C.ar    1  UNL1       -0.0228
     10 C           3.1946   -1.3057   21.7188 C.ar    1  UNL1       -0.0043
     11 C           3.4293   -2.1340   20.4905 C.ar    1  UNL1        0.0035
     12 C           4.2316   -3.3983   20.5804 C.ar    1  UNL1        0.0714
     13 C           4.7991   -3.8342   21.8987 C.ar    1  UNL1        0.0035
     14 C           4.5644   -3.0058   23.1271 C.ar    1  UNL1       -0.0043
     15 C           4.4663   -4.2267   19.3521 C.3     1  UNL1        0.4186
     16 F           4.7010   -5.0550   18.1238 F       1  UNL1       -0.1659
     17 F           2.9964   -4.2009   19.0539 F       1  UNL1       -0.1659
     18 F           5.9361   -4.2524   19.6503 F       1  UNL1       -0.1659
     19 C           2.1000    2.7902   27.2824 C.3     1  UNL1        0.0694
     20 C           2.4232    3.7231   28.4117 C.3     1  UNL1        0.0292
     21 C           1.3401    4.1714   29.3475 C.3     1  UNL1        0.0666
     22 S           0.9034    3.2793   30.4715 S.3     1  UNL1       -0.0756
     23 C           2.6931   -0.1238   31.0020 C.ar    1  UNL1        0.2029
     24 N           1.4929   -0.5481   30.2086 N.ar    1  UNL1       -0.1250
     25 N           0.6764    0.6750   29.9133 N.ar    1  UNL1       -0.1220
     26 C           1.3720    1.8553   30.5242 C.ar    1  UNL1        0.1933
     27 N           2.6184    1.3616   31.1971 N.ar    1  UNL1       -0.2860
     28 C           3.6150    2.2051   31.9354 C.3     1  UNL1        0.1341
     29 C           5.5314   -0.7402   29.5141 C.3     1  UNL1        0.0556
     30 C           5.0822   -1.3098   30.8270 C.ar    1  UNL1        0.1001
     31 N           5.8588   -2.2627   31.6867 N.ar    1  UNL1       -0.2085
     32 C           5.0342   -2.5683   32.9018 C.ar    1  UNL1        0.2849
     33 O           3.7480   -1.8042   32.7932 O.2     1  UNL1       -0.4283
     34 C           3.7776   -1.0265   31.5110 C.ar    1  UNL1        0.1964
@<TRIPOS>BOND
     1    29    30    1
     2    30    31   ar
     3    31    32   ar
     4    32    33   ar
     5    33    34   ar
     6    34    23    1
     7    23    24   ar
     8    24    25   ar
     9    25    26   ar
    10    26    22    1
    11    22    21    1
    12    21    20    1
    13    20    19    1
    14    19     1    1
    15     3     1    1
    16     3     4    1
    17     4     5    1
    18     5     6    1
    19     6     9    1
    20     9    10   ar
    21    10    11   ar
    22    11    12   ar
    23    12    15    1
    24    15    16    1
    25    15    17    1
    26    15    18    1
    27    12    13   ar
    28    13    14   ar
    29     6     7    1
    30     7     8    1
    31    26    27   ar
    32    27    28    1
    33    34    30   ar
    34    27    23   ar
    35     8     3    1
    36     8     6    1
    37    14     9   ar
    38     1     2    1
@<TRIPOS>MOLECULE
*****
 34 38 0 0 0
SMALL
GASTEIGER

@<TRIPOS>ATOM
      1 N           7.1427   -6.1599   28.5946 N.3     1  UNL1       -0.2985
      2 H           7.1546   -7.1333   28.8992 H       1  UNL1        0.1232
      3 C           6.9089   -5.3258   29.8192 C.3     1  UNL1        0.0543
      4 C           6.9961   -5.8008   31.2393 C.3     1  UNL1        0.0160
      5 C           6.6879   -4.6388   32.1364 C.3     1  UNL1        0.0055
      6 C           6.4103   -3.4456   31.2707 C.3     1  UNL1        0.0202
      7 C           6.1874   -2.4521   30.1693 C.3     1  UNL1        0.0057
      8 C           6.5469   -3.8703   29.8386 C.3     1  UNL1        0.0185
      9 C           6.1488   -2.4914   32.3981 C.ar    1  UNL1       -0.0228
     10 C           7.2239   -1.5456   32.8449 C.ar    1  UNL1       -0.0043
     11 C           6.9624   -0.5914   33.9722 C.ar    1  UNL1        0.0035
     12 C           5.6256   -0.5828   34.6528 C.ar    1  UNL1        0.0714
     13 C           4.5505   -1.5285   34.2060 C.ar    1  UNL1        0.0035
     14 C           4.8121   -2.4828   33.0786 C.ar    1  UNL1       -0.0043
     15 C           5.3641    0.3715   35.7802 C.3     1  UNL1        0.4186
     16 F           5.1026    1.3258   36.9075 F       1  UNL1       -0.1659
     17 F           4.3717   -0.5900   36.3638 F       1  UNL1       -0.1659
     18 F           6.3565    1.3330   35.1965 F       1  UNL1       -0.1659
     19 C           8.3768   -5.9497   27.7683 C.3     1  UNL1        0.0694
     20 C           8.2555   -5.5838   26.3186 C.3     1  UNL1        0.0292
     21 C           6.9114   -5.2611   25.7365 C.3     1  UNL1        0.0666
     22 S           6.7346   -4.0336   24.8927 S.3     1  UNL1       -0.0756
     23 C           6.7457   -3.6037   21.0352 C.ar    1  UNL1        0.2029
     24 N           7.4829   -4.9015   21.1842 N.ar    1  UNL1       -0.1250
     25 N           7.5685   -5.2205   22.6474 N.ar    1  UNL1       -0.1220
     26 C           6.8841   -4.1198   23.4026 C.ar    1  UNL1        0.1933
     27 N           6.3756   -3.1206   22.4062 N.ar    1  UNL1       -0.2860
     28 C           5.6283   -1.8597   22.7248 C.3     1  UNL1        0.1341
     29 C           4.5589   -4.5766   18.8168 C.3     1  UNL1        0.0556
     30 C           5.4282   -3.3579   18.7224 C.ar    1  UNL1        0.1001
     31 N           5.4450   -2.3723   17.5917 N.ar    1  UNL1       -0.2085
     32 C           6.4605   -1.3160   17.9126 C.ar    1  UNL1        0.2849
     33 O           7.0713   -1.6488   19.2415 O.2     1  UNL1       -0.4283
     34 C           6.4334   -2.9107   19.7420 C.ar    1  UNL1        0.1964
@<TRIPOS>BOND
     1    29    30    1
     2    30    31   ar
     3    31    32   ar
     4    32    33   ar
     5    33    34   ar
     6    34    23    1
     7    23    24   ar
     8    24    25   ar
     9    25    26   ar
    10    26    22    1
    11    22    21    1
    12    21    20    1
    13    20    19    1
    14    19     1    1
    15     3     1    1
    16     3     4    1
    17     4     5    1
    18     5     6    1
    19     6     9    1
    20     9    10   ar
    21    10    11   ar
    22    11    12   ar
    23    12    15    1
    24    15    16    1
    25    15    17    1
    26    15    18    1
    27    12    13   ar
    28    13    14   ar
    29     6     7    1
    30     7     8    1
    31    26    27   ar
    32    27    28    1
    33    34    30   ar
    34    27    23   ar
    35     8     3    1
    36     8     6    1
    37    14     9   ar
    38     1     2    1
@<TRIPOS>MOLECULE
*****
 34 38 0 0 0
SMALL
GASTEIGER

@<TRIPOS>ATOM
      1 N           1.3965    5.2660   18.2266 N.3     1  UNL1       -0.2985
      2 H           1.0935    5.5085   19.1699 H       1  UNL1        0.1232
      3 C           2.0568    3.9221   18.3160 C.3     1  UNL1        0.0543
      4 C           3.5344    3.6640   18.3165 C.3     1  UNL1        0.0160
      5 C           3.7462    2.1828   18.4214 C.3     1  UNL1        0.0055
      6 C           2.3994    1.5254   18.4856 C.3     1  UNL1        0.0202
      7 C           0.9449    1.1618   18.5299 C.3     1  UNL1        0.0057
      8 C           1.3553    2.6003   18.4205 C.3     1  UNL1        0.0185
      9 C           2.9153    0.1201   18.5812 C.ar    1  UNL1       -0.0228
     10 C           3.8119   -0.4243   17.5089 C.ar    1  UNL1       -0.0043
     11 C           4.3277   -1.8295   17.6044 C.ar    1  UNL1        0.0035
     12 C           3.9471   -2.6904   18.7724 C.ar    1  UNL1        0.0714
     13 C           3.0505   -2.1461   19.8447 C.ar    1  UNL1        0.0035
     14 C           2.5347   -0.7407   19.7491 C.ar    1  UNL1       -0.0043
     15 C           4.4630   -4.0957   18.8680 C.3     1  UNL1        0.4186
     16 F           4.9788   -5.5009   18.9635 F       1  UNL1       -0.1659
     17 F           5.8618   -3.5726   19.0076 F       1  UNL1       -0.1659
     18 F           3.0641   -4.6187   18.7283 F       1  UNL1       -0.1659
     19 C           0.2117    5.4612   17.3277 C.3     1  UNL1        0.0694
     20 C          -1.1747    5.2359   17.8544 C.3     1  UNL1        0.0292
     21 C          -1.3891    4.9809   19.3168 C.3     1  UNL1        0.0666
     22 S          -1.7553    3.6063   19.7926 S.3     1  UNL1       -0.0756
     23 C          -3.8536    3.5222   23.0568 C.ar    1  UNL1        0.2029
     24 N          -4.7770    2.8270   22.1008 N.ar    1  UNL1       -0.1250
     25 N          -4.1034    2.7738   20.7617 N.ar    1  UNL1       -0.1220
     26 C          -2.7636    3.4362   20.8900 C.ar    1  UNL1        0.1933
     27 N          -2.6093    3.8988   22.3085 N.ar    1  UNL1       -0.2860
     28 C          -1.4196    4.6126   22.8786 C.3     1  UNL1        0.1341
     29 C          -6.6681    4.5979   24.3103 C.3     1  UNL1        0.0556
     30 C          -5.4203    4.2878   25.0828 C.ar    1  UNL1        0.1001
     31 N          -5.2471    4.4176   26.5671 N.ar    1  UNL1       -0.2085
     32 C          -3.8464    4.0035   26.9083 C.ar    1  UNL1        0.2849
     33 O          -3.1540    3.6177   25.6349 O.2     1  UNL1       -0.4283
     34 C          -4.1266    3.7934   24.5067 C.ar    1  UNL1        0.1964
@<TRIPOS>BOND
     1    29    30    1
     2    30    31   ar
     3    31    32   ar
     4    32    33   ar
     5    33    34   ar
     6    34    23    1
     7    23    24   ar
     8    24    25   ar
     9    25    26   ar
    10    26    22    1
    11    22    21    1
    12    21    20    1
    13    20    19    1
    14    19     1    1
    15     3     1    1
    16     3     4    1
    17     4     5    1
    18     5     6    1
    19     6     9    1
    20     9    10   ar
    21    10    11   ar
    22    11    12   ar
    23    12    15    1
    24    15    16    1
    25    15    17    1
    26    15    18    1
    27    12    13   ar
    28    13    14   ar
    29     6     7    1
    30     7     8    1
    31    26    27   ar
    32    27    28    1
    33    34    30   ar
    34    27    23   ar
    35     8     3    1
    36     8     6    1
    37    14     9   ar
    38     1     2    1
@<TRIPOS>MOLECULE
*****
 34 38 0 0 0
SMALL
GASTEIGER

@<TRIPOS>ATOM
      1 N           1.8976    2.7123   25.4669 N.3     1  UNL1       -0.2985
      2 H           2.7413    3.2735   25.5841 H       1  UNL1        0.1232
      3 C           2.1834    1.7236   24.3757 C.3     1  UNL1        0.0543
      4 C           1.7842    1.8595   22.9362 C.3     1  UNL1        0.0160
      5 C           2.2726    0.6453   22.2032 C.3     1  UNL1        0.0055
      6 C           2.9737   -0.2409   23.1897 C.3     1  UNL1        0.0202
      7 C           3.6000   -0.9021   24.3815 C.3     1  UNL1        0.0057
      8 C           2.9185    0.4256   24.5324 C.3     1  UNL1        0.0185
      9 C           3.3311   -1.3168   22.2076 C.ar    1  UNL1       -0.0228
     10 C           4.1772   -2.4771   22.6411 C.ar    1  UNL1       -0.0043
     11 C           4.5347   -3.5530   21.6590 C.ar    1  UNL1        0.0035
     12 C           4.0461   -3.4687   20.2433 C.ar    1  UNL1        0.0714
     13 C           3.2000   -2.3085   19.8097 C.ar    1  UNL1        0.0035
     14 C           2.8425   -1.2325   20.7919 C.ar    1  UNL1       -0.0043
     15 C           4.4035   -4.5446   19.2612 C.3     1  UNL1        0.4186
     16 F           4.7610   -5.6206   18.2790 F       1  UNL1       -0.1659
     17 F           2.9709   -4.6208   18.8232 F       1  UNL1       -0.1659
     18 F           5.8361   -4.4685   19.6991 F       1  UNL1       -0.1659
     19 C           1.5052    2.2301   26.8320 C.3     1  UNL1        0.0694
     20 C           0.3302    1.3119   26.9941 C.3     1  UNL1        0.0292
     21 C           0.2674    0.3733   28.1624 C.3     1  UNL1        0.0666
     22 S           1.5339   -0.1172   28.7992 S.3     1  UNL1       -0.0756
     23 C           3.1441    0.7040   32.2340 C.ar    1  UNL1        0.2029
     24 N           1.8178    1.3926   32.3636 N.ar    1  UNL1       -0.1250
     25 N           1.0532    1.1688   31.0927 N.ar    1  UNL1       -0.1220
     26 C           1.9069    0.3418   30.1776 C.ar    1  UNL1        0.1933
     27 N           3.1992    0.0546   30.8830 N.ar    1  UNL1       -0.2860
     28 C           4.3453   -0.7421   30.3338 C.3     1  UNL1        0.1341
     29 C           4.2092   -1.9479   33.8097 C.3     1  UNL1        0.0556
     30 C           4.7150   -0.5483   33.9973 C.ar    1  UNL1        0.1001
     31 N           5.7993   -0.1218   34.9421 N.ar    1  UNL1       -0.2085
     32 C           5.9797    1.3606   34.8018 C.ar    1  UNL1        0.2849
     33 O           5.0071    1.8504   33.7702 O.2     1  UNL1       -0.4283
     34 C           4.2254    0.6707   33.2730 C.ar    1  UNL1        0.1964
@<TRIPOS>BOND
     1    29    30    1
     2    30    31   ar
     3    31    32   ar
     4    32    33   ar
     5    33    34   ar
     6    34    23    1
     7    23    24   ar
     8    24    25   ar
     9    25    26   ar
    10    26    22    1
    11    22    21    1
    12    21    20    1
    13    20    19    1
    14    19     1    1
    15     3     1    1
    16     3     4    1
    17     4     5    1
    18     5     6    1
    19     6     9    1
    20     9    10   ar
    21    10    11   ar
    22    11    12   ar
    23    12    15    1
    24    15    16    1
    25    15    17    1
    26    15    18    1
    27    12    13   ar
    28    13    14   ar
    29     6     7    1
    30     7     8    1
    31    26    27   ar
    32    27    28    1
    33    34    30   ar
    34    27    23   ar
    35     8     3    1
    36     8     6    1
    37    14     9   ar
    38     1     2    1
@<TRIPOS>MOLECULE
*****
 34 38 0 0 0
SMALL
GASTEIGER

@<TRIPOS>ATOM
      1 N           2.5865    1.8613   26.4463 N.3     1  UNL1       -0.2985
      2 H           3.3826    2.4959   26.5094 H       1  UNL1        0.1232
      3 C           2.9744    0.7739   25.4887 C.3     1  UNL1        0.0543
      4 C           3.7991   -0.4357   25.8154 C.3     1  UNL1        0.0160
      5 C           3.9401   -1.2520   24.5648 C.3     1  UNL1        0.0055
      6 C           3.2026   -0.5469   23.4653 C.3     1  UNL1        0.0202
      7 C           2.4006    0.3690   22.5890 C.3     1  UNL1        0.0057
      8 C           2.6058    0.7052   24.0363 C.3     1  UNL1        0.0185
      9 C           3.5113   -1.5546   22.3980 C.ar    1  UNL1       -0.0228
     10 C           4.3548   -2.7526   22.7191 C.ar    1  UNL1       -0.0043
     11 C           4.6635   -3.7604   21.6518 C.ar    1  UNL1        0.0035
     12 C           4.1286   -3.5701   20.2633 C.ar    1  UNL1        0.0714
     13 C           3.2851   -2.3720   19.9422 C.ar    1  UNL1        0.0035
     14 C           2.9764   -1.3643   21.0096 C.ar    1  UNL1       -0.0043
     15 C           4.4373   -4.5778   19.1960 C.3     1  UNL1        0.4186
     16 F           4.7460   -5.5856   18.1287 F       1  UNL1       -0.1659
     17 F           3.3506   -5.4679   19.7221 F       1  UNL1       -0.1659
     18 F           5.5241   -3.6878   18.6700 F       1  UNL1       -0.1659
     19 C           2.1943    1.5175   27.8527 C.3     1  UNL1        0.0694
     20 C           0.7470    1.3446   28.2069 C.3     1  UNL1        0.0292
     21 C           0.3394    1.1897   29.6421 C.3     1  UNL1        0.0666
     22 S           1.1992    1.7589   30.7315 S.3     1  UNL1       -0.0756
     23 C           3.7123    0.0492   33.1453 C.ar    1  UNL1        0.2029
     24 N           3.4434   -1.0609   32.1731 N.ar    1  UNL1       -0.1250
     25 N           2.4692   -0.5556   31.1505 N.ar    1  UNL1       -0.1220
     26 C           2.1361    0.8669   31.4908 C.ar    1  UNL1        0.1933
     27 N           2.9044    1.2407   32.7236 N.ar    1  UNL1       -0.2860
     28 C           2.8707    2.5721   33.4136 C.3     1  UNL1        0.1341
     29 C           6.8509   -0.8432   33.0950 C.3     1  UNL1        0.0556
     30 C           6.0711   -0.4302   34.3079 C.ar    1  UNL1        0.1001
     31 N           6.5970   -0.3548   35.7107 N.ar    1  UNL1       -0.2085
     32 C           5.4794    0.1020   36.6007 C.ar    1  UNL1        0.2849
     33 O           4.2628    0.3089   35.7481 O.2     1  UNL1       -0.4283
     34 C           4.6284   -0.0200   34.3310 C.ar    1  UNL1        0.1964
@<TRIPOS>BOND
     1    29    30    1
     2    30    31   ar
     3    31    32   ar
     4    32    33   ar
     5    33    34   ar
     6    34    23    1
     7    23    24   ar
     8    24    25   ar
     9    25    26   ar
    10    26    22    1
    11    22    21    1
    12    21    20    1
    13    20    19    1
    14    19     1    1
    15     3     1    1
    16     3     4    1
    17     4     5    1
    18     5     6    1
    19     6     9    1
    20     9    10   ar
    21    10    11   ar
    22    11    12   ar
    23    12    15    1
    24    15    16    1
    25    15    17    1
    26    15    18    1
    27    12    13   ar
    28    13    14   ar
    29     6     7    1
    30     7     8    1
    31    26    27   ar
    32    27    28    1
    33    34    30   ar
    34    27    23   ar
    35     8     3    1
    36     8     6    1
    37    14     9   ar
    38     1     2    1
