@<TRIPOS>MOLECULE
*****
 27 30 0 0 0
SMALL
GASTEIGER

@<TRIPOS>ATOM
      1 C          -2.9164  -18.7287   21.8188 C.ar    1  UNL1        0.1388
      2 C          -2.4465  -17.7132   22.8178 C.ar    1  UNL1        0.0384
      3 C          -3.4444  -16.8820   23.5683 C.ar    1  UNL1        0.0203
      4 C          -4.9122  -17.0663   23.3199 C.ar    1  UNL1        0.0601
      5 C          -5.3821  -18.0818   22.3209 C.ar    1  UNL1        0.0199
      6 C          -4.3842  -18.9130   21.5703 C.ar    1  UNL1        0.0384
      7 C          -6.8811  -18.0405   22.2878 C.ar    1  UNL1        0.0131
      8 C          -7.8893  -18.8162   21.4931 C.ar    1  UNL1       -0.0189
      9 C          -7.4327  -19.8573   20.5145 C.3     1  UNL1        0.0311
     10 C          -9.3542  -18.5510   21.6770 C.ar    1  UNL1        0.0150
     11 C         -10.3624  -19.3268   20.8822 C.ar    1  UNL1        0.0985
     12 N         -11.8273  -19.0615   21.0661 N.ar    1  UNL1       -0.2423
     13 C         -12.2839  -18.0204   22.0447 C.ar    1  UNL1        0.0989
     14 C         -11.2757  -17.2446   22.8395 C.ar    1  UNL1        0.0204
     15 C          -9.8109  -17.5099   22.6556 C.ar    1  UNL1        0.0002
     16 C          -8.8026  -16.7341   23.4503 C.ar    1  UNL1       -0.0060
     17 C          -9.2592  -15.6930   24.4289 C.3     1  UNL1        0.0325
     18 C          -7.3377  -16.9994   23.2665 C.ar    1  UNL1        0.0555
     19 N          -6.1209  -16.3974   23.9043 N.ar    1  UNL1       -0.3274
     20 C          -0.9707  -18.9068   20.1063 C.3     1  UNL1        0.2525
     21 O          -1.9185  -19.5599   21.0682 O.3     1  UNL1       -0.4714
     22 C          -6.1139  -15.3162   24.9440 C.3     1  UNL1        0.1074
     23 C          -5.8915  -15.6638   26.3861 C.3     1  UNL1        0.0413
     24 C          -7.0649  -15.8974   27.2909 C.3     1  UNL1        0.0672
     25 N          -8.0296  -14.7835   27.5708 N.3     1  UNL1       -0.3211
     26 H          -7.5557  -14.0464   28.0927 H       1  UNL1        0.1189
     27 H          -8.8111  -15.1407   28.1204 H       1  UNL1        0.1189
@<TRIPOS>BOND
     1    20    21    1
     2    21     1    1
     3     1     2   ar
     4     2     3   ar
     5     3     4   ar
     6     4     5   ar
     7     5     6   ar
     8     5     7   ar
     9     7     8   ar
    10     8     9    1
    11     8    10   ar
    12    10    11   ar
    13    11    12   ar
    14    12    13   ar
    15    13    14   ar
    16    14    15   ar
    17    15    16   ar
    18    16    17    1
    19    16    18   ar
    20    18    19   ar
    21    19    22    1
    22    22    23    1
    23    23    24    1
    24    24    25    1
    25     6     1   ar
    26    18     7   ar
    27    19     4   ar
    28    15    10   ar
    29    25    26    1
    30    25    27    1
@<TRIPOS>MOLECULE
*****
 27 30 0 0 0
SMALL
GASTEIGER

@<TRIPOS>ATOM
      1 C          -8.8967  -15.8332   24.9244 C.ar    1  UNL1        0.1388
      2 C         -10.1683  -16.3495   24.3191 C.ar    1  UNL1        0.0384
      3 C         -10.1155  -17.3564   23.2086 C.ar    1  UNL1        0.0203
      4 C          -8.7911  -17.8469   22.7033 C.ar    1  UNL1        0.0601
      5 C          -7.5195  -17.3306   23.3085 C.ar    1  UNL1        0.0199
      6 C          -7.5723  -16.3237   24.4191 C.ar    1  UNL1        0.0384
      7 C          -6.3703  -17.9933   22.6083 C.ar    1  UNL1        0.0131
      8 C          -4.8852  -17.8732   22.7818 C.ar    1  UNL1       -0.0189
      9 C          -4.3238  -16.9473   23.8199 C.3     1  UNL1        0.0311
     10 C          -3.9615  -18.6791   21.9173 C.ar    1  UNL1        0.0150
     11 C          -2.4764  -18.5590   22.0908 C.ar    1  UNL1        0.0985
     12 N          -1.5528  -19.3648   21.2263 N.ar    1  UNL1       -0.2423
     13 C          -2.1142  -20.2907   20.1882 C.ar    1  UNL1        0.0989
     14 C          -3.5993  -20.4108   20.0147 C.ar    1  UNL1        0.0204
     15 C          -4.5229  -19.6050   20.8792 C.ar    1  UNL1        0.0002
     16 C          -6.0080  -19.7250   20.7057 C.ar    1  UNL1       -0.0060
     17 C          -6.5694  -20.6509   19.6677 C.3     1  UNL1        0.0325
     18 C          -6.9317  -18.9192   21.5703 C.ar    1  UNL1        0.0555
     19 N          -8.4278  -18.8287   21.6290 N.ar    1  UNL1       -0.3274
     20 C          -8.3713  -15.1603   27.3782 C.3     1  UNL1        0.2525
     21 O          -8.9494  -14.8262   26.0350 O.3     1  UNL1       -0.4714
     22 C          -9.3915  -19.5870   20.7650 C.3     1  UNL1        0.1074
     23 C         -10.0097  -18.9235   19.5702 C.3     1  UNL1        0.0413
     24 C         -11.1454  -17.9603   19.7510 C.3     1  UNL1        0.0672
     25 N         -10.8798  -16.4843   19.7787 N.3     1  UNL1       -0.3211
     26 H         -10.3274  -16.2538   20.6046 H       1  UNL1        0.1189
     27 H         -11.7658  -15.9800   19.8107 H       1  UNL1        0.1189
@<TRIPOS>BOND
     1    20    21    1
     2    21     1    1
     3     1     2   ar
     4     2     3   ar
     5     3     4   ar
     6     4     5   ar
     7     5     6   ar
     8     5     7   ar
     9     7     8   ar
    10     8     9    1
    11     8    10   ar
    12    10    11   ar
    13    11    12   ar
    14    12    13   ar
    15    13    14   ar
    16    14    15   ar
    17    15    16   ar
    18    16    17    1
    19    16    18   ar
    20    18    19   ar
    21    19    22    1
    22    22    23    1
    23    23    24    1
    24    24    25    1
    25     6     1   ar
    26    18     7   ar
    27    19     4   ar
    28    15    10   ar
    29    25    26    1
    30    25    27    1
@<TRIPOS>MOLECULE
*****
 27 30 0 0 0
SMALL
GASTEIGER

@<TRIPOS>ATOM
      1 C         -16.5400   -9.3201   18.3215 C.ar    1  UNL1        0.1388
      2 C         -15.1093   -9.5389   17.9275 C.ar    1  UNL1        0.0384
      3 C         -14.1470   -8.3883   17.9278 C.ar    1  UNL1        0.0203
      4 C         -14.6154   -7.0189   18.3221 C.ar    1  UNL1        0.0601
      5 C         -16.0461   -6.8001   18.7162 C.ar    1  UNL1        0.0199
      6 C         -17.0084   -7.9508   18.7158 C.ar    1  UNL1        0.0384
      7 C         -16.2170   -5.3488   19.0546 C.ar    1  UNL1        0.0131
      8 C         -17.4080   -4.5573   19.5072 C.ar    1  UNL1       -0.0189
      9 C         -18.7331   -5.2355   19.6921 C.3     1  UNL1        0.0311
     10 C         -17.2739   -3.0874   19.7750 C.ar    1  UNL1        0.0150
     11 C         -18.4649   -2.2959   20.2276 C.ar    1  UNL1        0.0985
     12 N         -18.3308   -0.8261   20.4954 N.ar    1  UNL1       -0.2423
     13 C         -17.0058   -0.1479   20.3106 C.ar    1  UNL1        0.0989
     14 C         -15.8148   -0.9395   19.8579 C.ar    1  UNL1        0.0204
     15 C         -15.9488   -2.4092   19.5902 C.ar    1  UNL1        0.0002
     16 C         -14.7578   -3.2009   19.1375 C.ar    1  UNL1       -0.0060
     17 C         -13.4327   -2.5226   18.9527 C.3     1  UNL1        0.0325
     18 C         -14.8919   -4.6706   18.8698 C.ar    1  UNL1        0.0555
     19 N         -13.9021   -5.7028   18.4171 N.ar    1  UNL1       -0.3274
     20 C         -18.8029  -10.3605   17.5819 C.3     1  UNL1        0.2525
     21 O         -17.5024  -10.4708   18.3212 O.3     1  UNL1       -0.4714
     22 C         -12.4533   -5.4612   18.1127 C.3     1  UNL1        0.1074
     23 C         -11.4238   -5.6184   19.1923 C.3     1  UNL1        0.0413
     24 C         -10.0186   -5.1461   18.9633 C.3     1  UNL1        0.0672
     25 N          -9.6495   -3.7215   19.2532 N.3     1  UNL1       -0.3211
     26 H         -10.1441   -3.1043   18.6091 H       1  UNL1        0.1189
     27 H          -8.6436   -3.6001   19.1355 H       1  UNL1        0.1189
@<TRIPOS>BOND
     1    20    21    1
     2    21     1    1
     3     1     2   ar
     4     2     3   ar
     5     3     4   ar
     6     4     5   ar
     7     5     6   ar
     8     5     7   ar
     9     7     8   ar
    10     8     9    1
    11     8    10   ar
    12    10    11   ar
    13    11    12   ar
    14    12    13   ar
    15    13    14   ar
    16    14    15   ar
    17    15    16   ar
    18    16    17    1
    19    16    18   ar
    20    18    19   ar
    21    19    22    1
    22    22    23    1
    23    23    24    1
    24    24    25    1
    25     6     1   ar
    26    18     7   ar
    27    19     4   ar
    28    15    10   ar
    29    25    26    1
    30    25    27    1
@<TRIPOS>MOLECULE
*****
 27 30 0 0 0
SMALL
GASTEIGER

@<TRIPOS>ATOM
      1 C         -10.9692   -5.6492   18.6154 C.ar    1  UNL1        0.1388
      2 C         -12.0440   -6.4121   19.3313 C.ar    1  UNL1        0.0384
      3 C         -13.3111   -5.7199   19.7379 C.ar    1  UNL1        0.0203
      4 C         -13.5034   -4.2648   19.4285 C.ar    1  UNL1        0.0601
      5 C         -12.4285   -3.5019   18.7125 C.ar    1  UNL1        0.0199
      6 C         -11.1614   -4.1941   18.3060 C.ar    1  UNL1        0.0384
      7 C         -12.8976   -2.0871   18.5446 C.ar    1  UNL1        0.0131
      8 C         -12.2584   -0.8859   17.9134 C.ar    1  UNL1       -0.0189
      9 C         -10.8935   -0.9974   17.3012 C.3     1  UNL1        0.0311
     10 C         -12.9839    0.4269   17.8943 C.ar    1  UNL1        0.0150
     11 C         -12.3447    1.6280   17.2631 C.ar    1  UNL1        0.0985
     12 N         -13.0703    2.9407   17.2440 N.ar    1  UNL1       -0.2423
     13 C         -14.4351    3.0522   17.8562 C.ar    1  UNL1        0.0989
     14 C         -15.0744    1.8510   18.4874 C.ar    1  UNL1        0.0204
     15 C         -14.3488    0.5384   18.5065 C.ar    1  UNL1        0.0002
     16 C         -14.9881   -0.6629   19.1377 C.ar    1  UNL1       -0.0060
     17 C         -16.3529   -0.5514   19.7499 C.3     1  UNL1        0.0325
     18 C         -14.2625   -1.9756   19.1568 C.ar    1  UNL1        0.0555
     19 N         -14.6368   -3.3215   19.7030 N.ar    1  UNL1       -0.3274
     20 C          -9.4635   -7.7665   18.6115 C.3     1  UNL1        0.2525
     21 O          -9.7020   -6.3414   18.2088 O.3     1  UNL1       -0.4714
     22 C         -15.9195   -3.6639   20.4012 C.3     1  UNL1        0.1074
     23 C         -17.0702   -4.2282   19.6219 C.3     1  UNL1        0.0413
     24 C         -18.4492   -3.6682   19.8087 C.3     1  UNL1        0.0672
     25 N         -18.7958   -2.9337   21.0698 N.3     1  UNL1       -0.3211
     26 H         -18.7656   -3.5796   21.8587 H       1  UNL1        0.1189
     27 H         -19.7336   -2.5410   20.9877 H       1  UNL1        0.1189
@<TRIPOS>BOND
     1    20    21    1
     2    21     1    1
     3     1     2   ar
     4     2     3   ar
     5     3     4   ar
     6     4     5   ar
     7     5     6   ar
     8     5     7   ar
     9     7     8   ar
    10     8     9    1
    11     8    10   ar
    12    10    11   ar
    13    11    12   ar
    14    12    13   ar
    15    13    14   ar
    16    14    15   ar
    17    15    16   ar
    18    16    17    1
    19    16    18   ar
    20    18    19   ar
    21    19    22    1
    22    22    23    1
    23    23    24    1
    24    24    25    1
    25     6     1   ar
    26    18     7   ar
    27    19     4   ar
    28    15    10   ar
    29    25    26    1
    30    25    27    1
@<TRIPOS>MOLECULE
*****
 27 30 0 0 0
SMALL
GASTEIGER

@<TRIPOS>ATOM
      1 C         -15.9415   -8.0577   18.7201 C.ar    1  UNL1        0.1388
      2 C         -14.7286   -8.8068   18.2536 C.ar    1  UNL1        0.0384
      3 C         -13.4840   -8.0589   17.8771 C.ar    1  UNL1        0.0203
      4 C         -13.4524   -6.5619   17.9671 C.ar    1  UNL1        0.0601
      5 C         -14.6654   -5.8128   18.4336 C.ar    1  UNL1        0.0199
      6 C         -15.9099   -6.5607   18.8101 C.ar    1  UNL1        0.0384
      7 C         -14.3395   -4.3487   18.4204 C.ar    1  UNL1        0.0131
      8 C         -15.1479   -3.1372   18.7793 C.ar    1  UNL1       -0.0189
      9 C         -16.5623   -3.2930   19.2539 C.3     1  UNL1        0.0311
     10 C         -14.5419   -1.7699   18.6635 C.ar    1  UNL1        0.0150
     11 C         -15.3503   -0.5585   19.0224 C.ar    1  UNL1        0.0985
     12 N         -14.7444    0.8088   18.9066 N.ar    1  UNL1       -0.2423
     13 C         -13.3300    0.9645   18.4320 C.ar    1  UNL1        0.0989
     14 C         -12.5216   -0.2469   18.0732 C.ar    1  UNL1        0.0204
     15 C         -13.1276   -1.6141   18.1889 C.ar    1  UNL1        0.0002
     16 C         -12.3191   -2.8257   17.8300 C.ar    1  UNL1       -0.0060
     17 C         -10.9048   -2.6699   17.3554 C.3     1  UNL1        0.0325
     18 C         -12.9251   -4.1929   17.9458 C.ar    1  UNL1        0.0555
     19 N         -12.3769   -5.5607   17.6656 N.ar    1  UNL1       -0.3274
     20 C         -17.1005  -10.2460   19.5060 C.3     1  UNL1        0.2525
     21 O         -17.1862   -8.8055   19.0966 O.3     1  UNL1       -0.4714
     22 C         -10.9956   -5.8726   17.1709 C.3     1  UNL1        0.1074
     23 C          -9.8949   -6.1570   18.1494 C.3     1  UNL1        0.0413
     24 C          -9.8106   -7.4988   18.8146 C.3     1  UNL1        0.0672
     25 N          -9.7834   -8.7474   17.9837 N.3     1  UNL1       -0.3211
     26 H         -10.6747   -8.8528   17.4991 H       1  UNL1        0.1189
     27 H          -9.6273   -9.5544   18.5877 H       1  UNL1        0.1189
@<TRIPOS>BOND
     1    20    21    1
     2    21     1    1
     3     1     2   ar
     4     2     3   ar
     5     3     4   ar
     6     4     5   ar
     7     5     6   ar
     8     5     7   ar
     9     7     8   ar
    10     8     9    1
    11     8    10   ar
    12    10    11   ar
    13    11    12   ar
    14    12    13   ar
    15    13    14   ar
    16    14    15   ar
    17    15    16   ar
    18    16    17    1
    19    16    18   ar
    20    18    19   ar
    21    19    22    1
    22    22    23    1
    23    23    24    1
    24    24    25    1
    25     6     1   ar
    26    18     7   ar
    27    19     4   ar
    28    15    10   ar
    29    25    26    1
    30    25    27    1
@<TRIPOS>MOLECULE
*****
 27 30 0 0 0
SMALL
GASTEIGER

@<TRIPOS>ATOM
      1 C           0.2881    1.4839   21.2350 C.ar    1  UNL1        0.1388
      2 C           0.3562    0.9341   19.8410 C.ar    1  UNL1        0.0384
      3 C           1.3151   -0.1731   19.5176 C.ar    1  UNL1        0.0203
      4 C           2.2059   -0.7305   20.5881 C.ar    1  UNL1        0.0601
      5 C           2.1378   -0.1807   21.9820 C.ar    1  UNL1        0.0199
      6 C           1.1789    0.9265   22.3055 C.ar    1  UNL1        0.0384
      7 C           3.1323   -0.9248   22.8230 C.ar    1  UNL1        0.0131
      8 C           3.5044   -0.8133   24.2718 C.ar    1  UNL1       -0.0189
      9 C           2.8216    0.1964   25.1460 C.3     1  UNL1        0.0311
     10 C           4.5594   -1.7116   24.8464 C.ar    1  UNL1        0.0150
     11 C           4.9314   -1.6002   26.2953 C.ar    1  UNL1        0.0985
     12 N           5.9863   -2.4985   26.8699 N.ar    1  UNL1       -0.2423
     13 C           6.6692   -3.5082   25.9957 C.ar    1  UNL1        0.0989
     14 C           6.2971   -3.6196   24.5468 C.ar    1  UNL1        0.0204
     15 C           5.2422   -2.7214   23.9722 C.ar    1  UNL1        0.0002
     16 C           4.8701   -2.8327   22.5234 C.ar    1  UNL1       -0.0060
     17 C           5.5529   -3.8425   21.6491 C.3     1  UNL1        0.0325
     18 C           3.8152   -1.9345   21.9488 C.ar    1  UNL1        0.0555
     19 N           3.2426   -1.8144   20.5675 N.ar    1  UNL1       -0.3274
     20 C          -1.5842    3.1265   20.4959 C.3     1  UNL1        0.2525
     21 O          -0.6708    2.5911   21.5585 O.3     1  UNL1       -0.4714
     22 C           3.6374   -2.6343   19.3751 C.3     1  UNL1        0.1074
     23 C           4.7361   -2.1612   18.4702 C.3     1  UNL1        0.0413
     24 C           4.4836   -1.0397   17.5065 C.3     1  UNL1        0.0672
     25 N           3.6952   -1.2894   16.2551 N.3     1  UNL1       -0.3211
     26 H           4.2140   -1.9232   15.6472 H       1  UNL1        0.1189
     27 H           3.5381   -0.4058   15.7703 H       1  UNL1        0.1189
@<TRIPOS>BOND
     1    20    21    1
     2    21     1    1
     3     1     2   ar
     4     2     3   ar
     5     3     4   ar
     6     4     5   ar
     7     5     6   ar
     8     5     7   ar
     9     7     8   ar
    10     8     9    1
    11     8    10   ar
    12    10    11   ar
    13    11    12   ar
    14    12    13   ar
    15    13    14   ar
    16    14    15   ar
    17    15    16   ar
    18    16    17    1
    19    16    18   ar
    20    18    19   ar
    21    19    22    1
    22    22    23    1
    23    23    24    1
    24    24    25    1
    25     6     1   ar
    26    18     7   ar
    27    19     4   ar
    28    15    10   ar
    29    25    26    1
    30    25    27    1
@<TRIPOS>MOLECULE
*****
 27 30 0 0 0
SMALL
GASTEIGER

@<TRIPOS>ATOM
      1 C         -10.9605   -5.8318   18.0696 C.ar    1  UNL1        0.1388
      2 C         -11.3605   -7.2581   17.8338 C.ar    1  UNL1        0.0384
      3 C         -12.7928   -7.6722   17.9979 C.ar    1  UNL1        0.0203
      4 C         -13.8251   -6.6601   18.3979 C.ar    1  UNL1        0.0601
      5 C         -13.4251   -5.2338   18.6337 C.ar    1  UNL1        0.0199
      6 C         -11.9928   -4.8196   18.4695 C.ar    1  UNL1        0.0384
      7 C         -14.6548   -4.4647   19.0163 C.ar    1  UNL1        0.0131
      8 C         -14.8681   -3.0213   19.3641 C.ar    1  UNL1       -0.0189
      9 C         -13.7081   -2.0703   19.3634 C.3     1  UNL1        0.0311
     10 C         -16.2415   -2.5288   19.7127 C.ar    1  UNL1        0.0150
     11 C         -16.4548   -1.0854   20.0605 C.ar    1  UNL1        0.0985
     12 N         -17.8281   -0.5930   20.4091 N.ar    1  UNL1       -0.2423
     13 C         -18.9881   -1.5440   20.4098 C.ar    1  UNL1        0.0989
     14 C         -18.7748   -2.9874   20.0619 C.ar    1  UNL1        0.0204
     15 C         -17.4015   -3.4798   19.7134 C.ar    1  UNL1        0.0002
     16 C         -17.1881   -4.9232   19.3655 C.ar    1  UNL1       -0.0060
     17 C         -18.3481   -5.8742   19.3662 C.3     1  UNL1        0.0325
     18 C         -15.8148   -5.4156   19.0169 C.ar    1  UNL1        0.0555
     19 N         -15.3020   -6.7725   18.6347 N.ar    1  UNL1       -0.3274
     20 C          -9.1531   -4.4158   16.8539 C.3     1  UNL1        0.2525
     21 O          -9.5282   -5.4175   17.9054 O.3     1  UNL1       -0.4714
     22 C         -16.1222   -8.0223   18.5112 C.3     1  UNL1        0.1074
     23 C         -16.2740   -8.9393   19.6885 C.3     1  UNL1        0.0413
     24 C         -17.3029  -10.0305   19.6616 C.3     1  UNL1        0.0672
     25 N         -16.9065  -11.4258   19.2795 N.3     1  UNL1       -0.3211
     26 H         -16.6160  -11.4410   18.3019 H       1  UNL1        0.1189
     27 H         -17.7012  -12.0522   19.4079 H       1  UNL1        0.1189
@<TRIPOS>BOND
     1    20    21    1
     2    21     1    1
     3     1     2   ar
     4     2     3   ar
     5     3     4   ar
     6     4     5   ar
     7     5     6   ar
     8     5     7   ar
     9     7     8   ar
    10     8     9    1
    11     8    10   ar
    12    10    11   ar
    13    11    12   ar
    14    12    13   ar
    15    13    14   ar
    16    14    15   ar
    17    15    16   ar
    18    16    17    1
    19    16    18   ar
    20    18    19   ar
    21    19    22    1
    22    22    23    1
    23    23    24    1
    24    24    25    1
    25     6     1   ar
    26    18     7   ar
    27    19     4   ar
    28    15    10   ar
    29    25    26    1
    30    25    27    1
@<TRIPOS>MOLECULE
*****
 27 30 0 0 0
SMALL
GASTEIGER

@<TRIPOS>ATOM
      1 C           5.7044   -3.7224   21.9666 C.ar    1  UNL1        0.1388
      2 C           5.4522   -3.7536   20.4883 C.ar    1  UNL1        0.0384
      3 C           4.4351   -2.8332   19.8814 C.ar    1  UNL1        0.0203
      4 C           3.6702   -1.8816   20.7528 C.ar    1  UNL1        0.0601
      5 C           3.9223   -1.8504   22.2311 C.ar    1  UNL1        0.0199
      6 C           4.9394   -2.7708   22.8380 C.ar    1  UNL1        0.0384
      7 C           3.0217   -0.8129   22.8332 C.ar    1  UNL1        0.0131
      8 C           2.8336   -0.3449   24.2458 C.ar    1  UNL1       -0.0189
      9 C           3.6424   -0.9549   25.3521 C.3     1  UNL1        0.0311
     10 C           1.8367    0.7333   24.5523 C.ar    1  UNL1        0.0150
     11 C           1.6486    1.2014   25.9649 C.ar    1  UNL1        0.0985
     12 N           0.6518    2.2795   26.2712 N.ar    1  UNL1       -0.2423
     13 C          -0.1570    2.8895   25.1650 C.ar    1  UNL1        0.0989
     14 C           0.0311    2.4215   23.7524 C.ar    1  UNL1        0.0204
     15 C           1.0280    1.3434   23.4460 C.ar    1  UNL1        0.0002
     16 C           1.2161    0.8753   22.0334 C.ar    1  UNL1       -0.0060
     17 C           0.4074    1.4853   20.9271 C.3     1  UNL1        0.0325
     18 C           2.2130   -0.2029   21.7270 C.ar    1  UNL1        0.0555
     19 N           2.6138   -0.8634   20.4412 N.ar    1  UNL1       -0.3274
     20 C           7.0258   -4.5616   24.0402 C.3     1  UNL1        0.2525
     21 O           6.7215   -4.6429   22.5736 O.3     1  UNL1       -0.4714
     22 C           2.0560   -0.5590   19.0825 C.3     1  UNL1        0.1074
     23 C           2.8269    0.3088   18.1324 C.3     1  UNL1        0.0413
     24 C           3.9902   -0.2584   17.3741 C.3     1  UNL1        0.0672
     25 N           3.7632   -1.3100   16.3288 N.3     1  UNL1       -0.3211
     26 H           3.4173   -2.1610   16.7722 H       1  UNL1        0.1189
     27 H           4.6417   -1.5089   15.8503 H       1  UNL1        0.1189
@<TRIPOS>BOND
     1    20    21    1
     2    21     1    1
     3     1     2   ar
     4     2     3   ar
     5     3     4   ar
     6     4     5   ar
     7     5     6   ar
     8     5     7   ar
     9     7     8   ar
    10     8     9    1
    11     8    10   ar
    12    10    11   ar
    13    11    12   ar
    14    12    13   ar
    15    13    14   ar
    16    14    15   ar
    17    15    16   ar
    18    16    17    1
    19    16    18   ar
    20    18    19   ar
    21    19    22    1
    22    22    23    1
    23    23    24    1
    24    24    25    1
    25     6     1   ar
    26    18     7   ar
    27    19     4   ar
    28    15    10   ar
    29    25    26    1
    30    25    27    1
@<TRIPOS>MOLECULE
*****
 27 30 0 0 0
SMALL
GASTEIGER

@<TRIPOS>ATOM
      1 C           6.0819   -3.3985   24.2958 C.ar    1  UNL1        0.1388
      2 C           6.3041   -4.1178   22.9984 C.ar    1  UNL1        0.0384
      3 C           5.5022   -3.7444   21.7870 C.ar    1  UNL1        0.0203
      4 C           4.4782   -2.6517   21.8730 C.ar    1  UNL1        0.0601
      5 C           4.2560   -1.9324   23.1704 C.ar    1  UNL1        0.0199
      6 C           5.0579   -2.3058   24.3818 C.ar    1  UNL1        0.0384
      7 C           3.1848   -0.9051   22.9533 C.ar    1  UNL1        0.0131
      8 C           2.5531    0.0963   23.8743 C.ar    1  UNL1       -0.0189
      9 C           2.9930    0.1807   25.3058 C.3     1  UNL1        0.0311
     10 C           1.4814    1.0133   23.3637 C.ar    1  UNL1        0.0150
     11 C           0.8497    2.0147   24.2847 C.ar    1  UNL1        0.0985
     12 N          -0.2219    2.9317   23.7741 N.ar    1  UNL1       -0.2423
     13 C          -0.6618    2.8473   22.3425 C.ar    1  UNL1        0.0989
     14 C          -0.0302    1.8459   21.4216 C.ar    1  UNL1        0.0204
     15 C           1.0415    0.9289   21.9322 C.ar    1  UNL1        0.0002
     16 C           1.6732   -0.0725   21.0112 C.ar    1  UNL1       -0.0060
     17 C           1.2333   -0.1569   19.5796 C.3     1  UNL1        0.0325
     18 C           2.7448   -0.9895   21.5218 C.ar    1  UNL1        0.0555
     19 N           3.5442   -2.0689   20.8541 N.ar    1  UNL1       -0.3274
     20 C           6.7797   -5.1549   26.0785 C.3     1  UNL1        0.2525
     21 O           6.8839   -3.7718   25.5073 O.3     1  UNL1       -0.4714
     22 C           3.4296   -2.4914   19.4194 C.3     1  UNL1        0.1074
     23 C           4.4216   -1.9947   18.4098 C.3     1  UNL1        0.0413
     24 C           5.7031   -2.7418   18.1868 C.3     1  UNL1        0.0672
     25 N           6.8082   -2.1141   17.3902 N.3     1  UNL1       -0.3211
     26 H           6.5070   -1.9993   16.4225 H       1  UNL1        0.1189
     27 H           7.6325   -2.7142   17.4208 H       1  UNL1        0.1189
@<TRIPOS>BOND
     1    20    21    1
     2    21     1    1
     3     1     2   ar
     4     2     3   ar
     5     3     4   ar
     6     4     5   ar
     7     5     6   ar
     8     5     7   ar
     9     7     8   ar
    10     8     9    1
    11     8    10   ar
    12    10    11   ar
    13    11    12   ar
    14    12    13   ar
    15    13    14   ar
    16    14    15   ar
    17    15    16   ar
    18    16    17    1
    19    16    18   ar
    20    18    19   ar
    21    19    22    1
    22    22    23    1
    23    23    24    1
    24    24    25    1
    25     6     1   ar
    26    18     7   ar
    27    19     4   ar
    28    15    10   ar
    29    25    26    1
    30    25    27    1
