@<TRIPOS>MOLECULE
*****
 33 36 0 0 0
SMALL
GASTEIGER

@<TRIPOS>ATOM
      1 N           6.9150   -4.3112   26.4513 N.am    1  UNL1       -0.2555
      2 C           6.9732   -3.0818   27.3088 C.3     1  UNL1        0.1197
      3 C           6.9593   -3.2085   28.8034 C.3     1  UNL1        0.1160
      4 N           6.8873   -4.5646   29.4405 N.am    1  UNL1       -0.2659
      5 C           6.8735   -4.6913   30.9350 C.2     1  UNL1        0.2516
      6 O           6.8014   -6.0473   31.5721 O.2     1  UNL1       -0.2698
      7 C           6.8291   -5.7939   28.5830 C.3     1  UNL1        0.1799
      8 C           6.8429   -5.6672   27.0884 C.2     1  UNL1        0.2497
      9 O           6.7847   -6.8966   26.2309 O.2     1  UNL1       -0.2727
     10 C           6.9317   -3.4619   31.7925 C.ar    1  UNL1        0.0811
     11 C           5.6629   -2.7956   32.2353 C.ar    1  UNL1        0.0091
     12 C           5.7211   -1.5662   33.0928 C.ar    1  UNL1        0.0299
     13 C           7.0482   -1.0032   33.5074 C.ar    1  UNL1        0.1424
     14 F           7.1064    0.2262   34.3649 F       1  UNL1       -0.2041
     15 C           8.3170   -1.6695   33.0646 C.ar    1  UNL1        0.0594
     16 C           8.2588   -2.8988   32.2071 C.ar    1  UNL1        0.1467
     17 F           9.5276   -3.5652   31.7643 F       1  UNL1       -0.2039
     18 C           6.9564   -3.9311   21.9676 C.ar    1  UNL1        0.1386
     19 C           5.7998   -3.3909   22.7554 C.ar    1  UNL1        0.0382
     20 C           5.7861   -3.5176   24.2499 C.ar    1  UNL1        0.0180
     21 C           6.9288   -4.1845   24.9567 C.ar    1  UNL1        0.0541
     22 C           8.0853   -4.7247   24.1689 C.ar    1  UNL1        0.0180
     23 C           8.0991   -4.5980   22.6744 C.ar    1  UNL1        0.0382
     24 O           6.9702   -3.8044   20.4730 O.3     1  UNL1       -0.4754
     25 C           7.3882   -2.5136   19.8335 C.3     1  UNL1        0.2068
     26 C           7.1225   -2.2780   18.3761 C.3     1  UNL1        0.0646
     27 C           5.7233   -2.0206   17.9009 C.3     1  UNL1        0.0759
     28 C           3.5163   -3.9532   19.3303 C.3     1  UNL1        0.0173
     29 C           3.6544   -2.4732   19.5316 C.3     1  UNL1        0.0576
     30 C           2.8021   -1.6217   20.4252 C.3     1  UNL1        0.0174
     31 C           3.2899   -0.2071   20.3205 C.3     1  UNL1        0.0187
     32 C           4.4435   -0.1843   19.3621 C.3     1  UNL1        0.0721
     33 N           4.6688   -1.5849   18.8745 N.3     1  UNL1       -0.2738
@<TRIPOS>BOND
     1    29    28    1
     2    29    30    1
     3    30    31    1
     4    31    32    1
     5    32    33    1
     6    33    27    1
     7    27    26    1
     8    26    25    1
     9    25    24    1
    10    24    18    1
    11    18    19   ar
    12    19    20   ar
    13    20    21   ar
    14    21     1    1
    15     1     2    1
    16     2     3    1
    17     3     4    1
    18     4     5   am
    19     5     6    2
    20     5    10    1
    21    10    11   ar
    22    11    12   ar
    23    12    13   ar
    24    13    14    1
    25    13    15   ar
    26    15    16   ar
    27    16    17    1
    28     4     7    1
    29     7     8    1
    30     8     9    2
    31    21    22   ar
    32    22    23   ar
    33    33    29    1
    34    23    18   ar
    35     8     1   am
    36    16    10   ar
@<TRIPOS>MOLECULE
*****
 33 36 0 0 0
SMALL
GASTEIGER

@<TRIPOS>ATOM
      1 N           6.7083   -3.8981   23.5412 N.am    1  UNL1       -0.2555
      2 C           6.3284   -3.0761   24.7370 C.3     1  UNL1        0.1197
      3 C           6.8965   -3.4066   26.0854 C.3     1  UNL1        0.1160
      4 N           7.8445   -4.5590   26.2379 N.am    1  UNL1       -0.2659
      5 C           8.4126   -4.8895   27.5863 C.2     1  UNL1        0.2516
      6 O           9.3605   -6.0419   27.7388 O.2     1  UNL1       -0.2698
      7 C           8.2244   -5.3810   25.0420 C.3     1  UNL1        0.1799
      8 C           7.6563   -5.0505   23.6937 C.2     1  UNL1        0.2497
      9 O           8.0362   -5.8725   22.4978 O.2     1  UNL1       -0.2727
     10 C           8.0327   -4.0676   28.7821 C.ar    1  UNL1        0.0811
     11 C           8.7692   -2.7959   29.0828 C.ar    1  UNL1        0.0091
     12 C           8.3893   -1.9739   30.2787 C.ar    1  UNL1        0.0299
     13 C           7.2729   -2.4236   31.1738 C.ar    1  UNL1        0.1424
     14 F           6.8930   -1.6017   32.3696 F       1  UNL1       -0.2041
     15 C           6.5363   -3.6953   30.8731 C.ar    1  UNL1        0.0594
     16 C           6.9162   -4.5172   29.6773 C.ar    1  UNL1        0.1467
     17 F           6.1796   -5.7889   29.3766 F       1  UNL1       -0.2039
     18 C           5.0042   -2.9067   19.4961 C.ar    1  UNL1        0.1386
     19 C           6.4283   -2.5603   19.8153 C.ar    1  UNL1        0.0382
     20 C           6.9963   -2.8908   21.1637 C.ar    1  UNL1        0.0180
     21 C           6.1403   -3.5676   22.1928 C.ar    1  UNL1        0.0541
     22 C           4.7162   -3.9140   21.8735 C.ar    1  UNL1        0.0180
     23 C           4.1482   -3.5836   20.5252 C.ar    1  UNL1        0.0382
     24 O           4.4362   -2.5763   18.1476 O.3     1  UNL1       -0.4754
     25 C           4.6447   -1.2122   17.5598 C.3     1  UNL1        0.2068
     26 C           3.5663   -0.1753   17.6694 C.3     1  UNL1        0.0646
     27 C           3.5818    0.8058   18.8040 C.3     1  UNL1        0.0759
     28 C           1.0191   -0.5386   20.3120 C.3     1  UNL1        0.0173
     29 C           2.3727   -0.3035   20.9140 C.3     1  UNL1        0.0576
     30 C           2.7860   -0.6451   22.3149 C.3     1  UNL1        0.0174
     31 C           4.2195   -0.2382   22.4875 C.3     1  UNL1        0.0187
     32 C           4.6920    0.3548   21.1933 C.3     1  UNL1        0.0721
     33 N           3.5506    0.3145   20.2208 N.3     1  UNL1       -0.2738
@<TRIPOS>BOND
     1    29    28    1
     2    29    30    1
     3    30    31    1
     4    31    32    1
     5    32    33    1
     6    33    27    1
     7    27    26    1
     8    26    25    1
     9    25    24    1
    10    24    18    1
    11    18    19   ar
    12    19    20   ar
    13    20    21   ar
    14    21     1    1
    15     1     2    1
    16     2     3    1
    17     3     4    1
    18     4     5   am
    19     5     6    2
    20     5    10    1
    21    10    11   ar
    22    11    12   ar
    23    12    13   ar
    24    13    14    1
    25    13    15   ar
    26    15    16   ar
    27    16    17    1
    28     4     7    1
    29     7     8    1
    30     8     9    2
    31    21    22   ar
    32    22    23   ar
    33    33    29    1
    34    23    18   ar
    35     8     1   am
    36    16    10   ar
@<TRIPOS>MOLECULE
*****
 33 36 0 0 0
SMALL
GASTEIGER

@<TRIPOS>ATOM
      1 N         -14.7529   -1.4753   19.1091 N.am    1  UNL1       -0.2555
      2 C         -15.9483   -0.9893   19.8739 C.3     1  UNL1        0.1197
      3 C         -16.2248    0.4813   19.9783 C.3     1  UNL1        0.1160
      4 N         -15.3059    1.4659   19.3178 N.am    1  UNL1       -0.2659
      5 C         -15.5824    2.9365   19.4222 C.2     1  UNL1        0.2516
      6 O         -14.6635    3.9211   18.7617 O.2     1  UNL1       -0.2698
      7 C         -14.1105    0.9799   18.5530 C.3     1  UNL1        0.1799
      8 C         -13.8340   -0.4907   18.4487 C.2     1  UNL1        0.2497
      9 O         -12.6386   -0.9767   17.6839 O.2     1  UNL1       -0.2727
     10 C         -16.7777    3.4225   20.1869 C.ar    1  UNL1        0.0811
     11 C         -18.1393    3.3762   19.5592 C.ar    1  UNL1        0.0091
     12 C         -19.3347    3.8622   20.3240 C.ar    1  UNL1        0.0299
     13 C         -19.1685    4.3944   21.7165 C.ar    1  UNL1        0.1424
     14 F         -20.3639    4.8804   22.4813 F       1  UNL1       -0.2041
     15 C         -17.8069    4.4407   22.3443 C.ar    1  UNL1        0.0594
     16 C         -16.6116    3.9547   21.5795 C.ar    1  UNL1        0.1467
     17 F         -15.2500    4.0009   22.2072 F       1  UNL1       -0.2039
     18 C         -13.9234   -5.8871   18.7960 C.ar    1  UNL1        0.1386
     19 C         -14.6591   -5.1823   17.6951 C.ar    1  UNL1        0.0382
     20 C         -14.9356   -3.7117   17.7995 C.ar    1  UNL1        0.0180
     21 C         -14.4764   -2.9459   19.0048 C.ar    1  UNL1        0.0541
     22 C         -13.7407   -3.6507   20.1056 C.ar    1  UNL1        0.0180
     23 C         -13.4642   -5.1213   20.0012 C.ar    1  UNL1        0.0382
     24 O         -13.6469   -7.3577   18.6916 O.3     1  UNL1       -0.4754
     25 C         -13.4555   -7.9912   17.3455 C.3     1  UNL1        0.2068
     26 C         -12.0921   -8.0287   16.7211 C.3     1  UNL1        0.0646
     27 C         -11.4479   -6.7588   16.2498 C.3     1  UNL1        0.0759
     28 C          -9.6051   -7.5230   18.8323 C.3     1  UNL1        0.0173
     29 C         -10.0338   -6.1423   18.4328 C.3     1  UNL1        0.0576
     30 C          -9.6908   -4.8704   19.1501 C.3     1  UNL1        0.0174
     31 C         -10.3259   -3.7330   18.4064 C.3     1  UNL1        0.0187
     32 C         -11.0614   -4.3020   17.2294 C.3     1  UNL1        0.0721
     33 N         -10.8809   -5.7910   17.2457 N.3     1  UNL1       -0.2738
@<TRIPOS>BOND
     1    29    28    1
     2    29    30    1
     3    30    31    1
     4    31    32    1
     5    32    33    1
     6    33    27    1
     7    27    26    1
     8    26    25    1
     9    25    24    1
    10    24    18    1
    11    18    19   ar
    12    19    20   ar
    13    20    21   ar
    14    21     1    1
    15     1     2    1
    16     2     3    1
    17     3     4    1
    18     4     5   am
    19     5     6    2
    20     5    10    1
    21    10    11   ar
    22    11    12   ar
    23    12    13   ar
    24    13    14    1
    25    13    15   ar
    26    15    16   ar
    27    16    17    1
    28     4     7    1
    29     7     8    1
    30     8     9    2
    31    21    22   ar
    32    22    23   ar
    33    33    29    1
    34    23    18   ar
    35     8     1   am
    36    16    10   ar
@<TRIPOS>MOLECULE
*****
 33 36 0 0 0
SMALL
GASTEIGER

@<TRIPOS>ATOM
      1 N         -15.8914   -2.8323   19.3616 N.am    1  UNL1       -0.2555
      2 C         -15.2792   -1.5055   19.7005 C.3     1  UNL1        0.1197
      3 C         -16.1531   -0.3634   20.1271 C.3     1  UNL1        0.1160
      4 N         -17.6391   -0.5481   20.2149 N.am    1  UNL1       -0.2659
      5 C         -18.5130    0.5939   20.6415 C.2     1  UNL1        0.2516
      6 O         -19.9990    0.4092   20.7292 O.2     1  UNL1       -0.2698
      7 C         -18.2512   -1.8750   19.8760 C.3     1  UNL1        0.1799
      8 C         -17.3774   -3.0171   19.4494 C.2     1  UNL1        0.2497
      9 O         -17.9895   -4.3440   19.1105 O.2     1  UNL1       -0.2727
     10 C         -17.9009    1.9207   20.9803 C.ar    1  UNL1        0.0811
     11 C         -17.4213    2.1910   22.3757 C.ar    1  UNL1        0.0091
     12 C         -16.8091    3.5179   22.7145 C.ar    1  UNL1        0.0299
     13 C         -16.6766    4.5744   21.6580 C.ar    1  UNL1        0.1424
     14 F         -16.0644    5.9012   21.9969 F       1  UNL1       -0.2041
     15 C         -17.1562    4.3041   20.2627 C.ar    1  UNL1        0.0594
     16 C         -17.7683    2.9773   19.9239 C.ar    1  UNL1        0.1467
     17 F         -18.2479    2.7070   18.5285 F       1  UNL1       -0.2039
     18 C         -13.2699   -6.2586   18.0817 C.ar    1  UNL1        0.1386
     19 C         -13.7324   -5.2503   17.0721 C.ar    1  UNL1        0.0382
     20 C         -14.6062   -4.1082   17.4987 C.ar    1  UNL1        0.0180
     21 C         -15.0175   -3.9745   18.9350 C.ar    1  UNL1        0.0541
     22 C         -14.5550   -4.9828   19.9446 C.ar    1  UNL1        0.0180
     23 C         -13.6812   -6.1248   19.5180 C.ar    1  UNL1        0.0382
     24 O         -12.3960   -7.4007   17.6551 O.3     1  UNL1       -0.4754
     25 C         -10.9184   -7.1964   17.4976 C.3     1  UNL1        0.2068
     26 C         -10.0628   -6.9473   18.7043 C.3     1  UNL1        0.0646
     27 C          -9.6119   -5.5541   19.0293 C.3     1  UNL1        0.0759
     28 C         -11.5662   -2.9428   19.1358 C.3     1  UNL1        0.0173
     29 C         -10.5982   -3.2755   18.0394 C.3     1  UNL1        0.0576
     30 C         -10.3586   -2.4663   16.7993 C.3     1  UNL1        0.0174
     31 C          -9.3121   -3.1665   15.9839 C.3     1  UNL1        0.0187
     32 C          -8.9051   -4.4084   16.7201 C.3     1  UNL1        0.0721
     33 N          -9.6999   -4.4758   17.9904 N.3     1  UNL1       -0.2738
@<TRIPOS>BOND
     1    29    28    1
     2    29    30    1
     3    30    31    1
     4    31    32    1
     5    32    33    1
     6    33    27    1
     7    27    26    1
     8    26    25    1
     9    25    24    1
    10    24    18    1
    11    18    19   ar
    12    19    20   ar
    13    20    21   ar
    14    21     1    1
    15     1     2    1
    16     2     3    1
    17     3     4    1
    18     4     5   am
    19     5     6    2
    20     5    10    1
    21    10    11   ar
    22    11    12   ar
    23    12    13   ar
    24    13    14    1
    25    13    15   ar
    26    15    16   ar
    27    16    17    1
    28     4     7    1
    29     7     8    1
    30     8     9    2
    31    21    22   ar
    32    22    23   ar
    33    33    29    1
    34    23    18   ar
    35     8     1   am
    36    16    10   ar
@<TRIPOS>MOLECULE
*****
 33 36 0 0 0
SMALL
GASTEIGER

@<TRIPOS>ATOM
      1 N           2.0446    2.2997   18.9847 N.am    1  UNL1       -0.2555
      2 C           1.0460    1.7809   19.9764 C.3     1  UNL1        0.1197
      3 C          -0.0905    2.6526   20.4224 C.3     1  UNL1        0.1160
      4 N          -0.2282    4.0430   19.8767 N.am    1  UNL1       -0.2659
      5 C          -1.3645    4.9146   20.3227 C.2     1  UNL1        0.2516
      6 O          -1.5022    6.3050   19.7770 O.2     1  UNL1       -0.2698
      7 C           0.7705    4.5617   18.8849 C.3     1  UNL1        0.1799
      8 C           1.9069    3.6901   18.4390 C.2     1  UNL1        0.2497
      9 O           2.9056    4.2089   17.4472 O.2     1  UNL1       -0.2727
     10 C          -2.3632    4.3958   21.3144 C.ar    1  UNL1        0.0811
     11 C          -2.1671    4.6507   22.7795 C.ar    1  UNL1        0.0091
     12 C          -3.1659    4.1318   23.7713 C.ar    1  UNL1        0.0299
     13 C          -4.3605    3.3581   23.2978 C.ar    1  UNL1        0.1424
     14 F          -5.3591    2.8393   24.2895 F       1  UNL1       -0.2041
     15 C          -4.5565    3.1032   21.8327 C.ar    1  UNL1        0.0594
     16 C          -3.5579    3.6220   20.8410 C.ar    1  UNL1        0.1467
     17 F          -3.7539    3.3671   19.3759 F       1  UNL1       -0.2039
     18 C           5.4539   -0.3150   17.6467 C.ar    1  UNL1        0.1386
     19 C           5.7267    0.9147   18.4612 C.ar    1  UNL1        0.0382
     20 C           4.5903    1.7862   18.9072 C.ar    1  UNL1        0.0180
     21 C           3.1811    1.4281   18.5387 C.ar    1  UNL1        0.0541
     22 C           2.9082    0.1985   17.7241 C.ar    1  UNL1        0.0180
     23 C           4.0446   -0.6731   17.2782 C.ar    1  UNL1        0.0382
     24 O           6.5903   -1.1866   17.2007 O.3     1  UNL1       -0.4754
     25 C           7.0136   -2.3551   18.0404 C.3     1  UNL1        0.2068
     26 C           7.4867   -2.1358   19.4469 C.3     1  UNL1        0.0646
     27 C           6.6558   -2.6132   20.6008 C.3     1  UNL1        0.0759
     28 C           3.7012   -3.5437   19.5743 C.3     1  UNL1        0.0173
     29 C           3.9989   -2.3624   20.4493 C.3     1  UNL1        0.0576
     30 C           2.9908   -1.4013   21.0061 C.3     1  UNL1        0.0174
     31 C           3.7259   -0.3795   21.8221 C.3     1  UNL1        0.0187
     32 C           5.1882   -0.7092   21.7696 C.3     1  UNL1        0.0721
     33 N           5.3570   -1.9346   20.9212 N.3     1  UNL1       -0.2738
@<TRIPOS>BOND
     1    29    28    1
     2    29    30    1
     3    30    31    1
     4    31    32    1
     5    32    33    1
     6    33    27    1
     7    27    26    1
     8    26    25    1
     9    25    24    1
    10    24    18    1
    11    18    19   ar
    12    19    20   ar
    13    20    21   ar
    14    21     1    1
    15     1     2    1
    16     2     3    1
    17     3     4    1
    18     4     5   am
    19     5     6    2
    20     5    10    1
    21    10    11   ar
    22    11    12   ar
    23    12    13   ar
    24    13    14    1
    25    13    15   ar
    26    15    16   ar
    27    16    17    1
    28     4     7    1
    29     7     8    1
    30     8     9    2
    31    21    22   ar
    32    22    23   ar
    33    33    29    1
    34    23    18   ar
    35     8     1   am
    36    16    10   ar
@<TRIPOS>MOLECULE
*****
 33 36 0 0 0
SMALL
GASTEIGER

@<TRIPOS>ATOM
      1 N           7.7825   -3.3228   22.9473 N.am    1  UNL1       -0.2555
      2 C           7.8071   -2.7722   24.3423 C.3     1  UNL1        0.1197
      3 C           7.9102   -3.7028   25.5143 C.3     1  UNL1        0.1160
      4 N           7.9886   -5.1840   25.2911 N.am    1  UNL1       -0.2659
      5 C           8.0917   -6.1146   26.4630 C.2     1  UNL1        0.2516
      6 O           8.1701   -7.5959   26.2398 O.2     1  UNL1       -0.2698
      7 C           7.9640   -5.7346   23.8960 C.3     1  UNL1        0.1799
      8 C           7.8610   -4.8040   22.7241 C.2     1  UNL1        0.2497
      9 O           7.8364   -5.3547   21.3290 O.2     1  UNL1       -0.2727
     10 C           8.1163   -5.5640   27.8580 C.ar    1  UNL1        0.0811
     11 C           9.4264   -5.2473   28.5163 C.ar    1  UNL1        0.0091
     12 C           9.4509   -4.6966   29.9114 C.ar    1  UNL1        0.0299
     13 C           8.1654   -4.4627   30.6481 C.ar    1  UNL1        0.1424
     14 F           8.1900   -3.9121   32.0432 F       1  UNL1       -0.2041
     15 C           6.8553   -4.7794   29.9898 C.ar    1  UNL1        0.0594
     16 C           6.8307   -5.3300   28.5948 C.ar    1  UNL1        0.1467
     17 F           5.5207   -5.6467   27.9364 F       1  UNL1       -0.2039
     18 C           7.4735   -0.5311   19.4315 C.ar    1  UNL1        0.1386
     19 C           8.5083   -1.6169   19.4383 C.ar    1  UNL1        0.0382
     20 C           8.6113   -2.5475   20.6102 C.ar    1  UNL1        0.0180
     21 C           7.6795   -2.3922   21.7753 C.ar    1  UNL1        0.0541
     22 C           6.6446   -1.3064   21.7685 C.ar    1  UNL1        0.0180
     23 C           6.5416   -0.3759   20.5966 C.ar    1  UNL1        0.0382
     24 O           7.3704    0.3995   18.2595 O.3     1  UNL1       -0.4754
     25 C           6.4480    0.0742   17.1223 C.3     1  UNL1        0.2068
     26 C           4.9628    0.1669   17.3113 C.3     1  UNL1        0.0646
     27 C           4.1239   -1.0762   17.2813 C.3     1  UNL1        0.0759
     28 C           2.4602   -1.3389   20.0764 C.3     1  UNL1        0.0173
     29 C           3.5512   -2.2567   19.6101 C.3     1  UNL1        0.0576
     30 C           4.0690   -3.4563   20.3468 C.3     1  UNL1        0.0174
     31 C           5.1538   -4.0770   19.5173 C.3     1  UNL1        0.0187
     32 C           5.3064   -3.2610   18.2680 C.3     1  UNL1        0.0721
     33 N           4.3159   -2.1359   18.3254 N.3     1  UNL1       -0.2738
@<TRIPOS>BOND
     1    29    28    1
     2    29    30    1
     3    30    31    1
     4    31    32    1
     5    32    33    1
     6    33    27    1
     7    27    26    1
     8    26    25    1
     9    25    24    1
    10    24    18    1
    11    18    19   ar
    12    19    20   ar
    13    20    21   ar
    14    21     1    1
    15     1     2    1
    16     2     3    1
    17     3     4    1
    18     4     5   am
    19     5     6    2
    20     5    10    1
    21    10    11   ar
    22    11    12   ar
    23    12    13   ar
    24    13    14    1
    25    13    15   ar
    26    15    16   ar
    27    16    17    1
    28     4     7    1
    29     7     8    1
    30     8     9    2
    31    21    22   ar
    32    22    23   ar
    33    33    29    1
    34    23    18   ar
    35     8     1   am
    36    16    10   ar
@<TRIPOS>MOLECULE
*****
 33 36 0 0 0
SMALL
GASTEIGER

@<TRIPOS>ATOM
      1 N           1.8241    0.6725   22.1049 N.am    1  UNL1       -0.2555
      2 C           2.2436    0.4183   23.5224 C.3     1  UNL1        0.1197
      3 C           1.4364    0.9789   24.6556 C.3     1  UNL1        0.1160
      4 N           0.2096    1.7939   24.3712 N.am    1  UNL1       -0.2659
      5 C          -0.5977    2.3546   25.5043 C.2     1  UNL1        0.2516
      6 O          -1.8244    3.1696   25.2199 O.2     1  UNL1       -0.2698
      7 C          -0.2099    2.0482   22.9536 C.3     1  UNL1        0.1799
      8 C           0.5974    1.4875   21.8205 C.2     1  UNL1        0.2497
      9 O           0.1779    1.7418   20.4030 O.2     1  UNL1       -0.2727
     10 C          -0.1782    2.1003   26.9218 C.ar    1  UNL1        0.0811
     11 C          -0.6004    0.8384   27.6140 C.ar    1  UNL1        0.0091
     12 C          -0.1809    0.5841   29.0316 C.ar    1  UNL1        0.0299
     13 C           0.6609    1.5918   29.7568 C.ar    1  UNL1        0.1424
     14 F           1.0804    1.3375   31.1743 F       1  UNL1       -0.2041
     15 C           1.0831    2.8537   29.0646 C.ar    1  UNL1        0.0594
     16 C           0.6636    3.1080   27.6471 C.ar    1  UNL1        0.1467
     17 F           1.0859    4.3699   26.9548 F       1  UNL1       -0.2039
     18 C           4.2459   -1.0094   18.7056 C.ar    1  UNL1        0.1386
     19 C           4.4995    0.3882   19.1874 C.ar    1  UNL1        0.0382
     20 C           3.6922    0.9489   20.3205 C.ar    1  UNL1        0.0180
     21 C           2.6314    0.1118   20.9718 C.ar    1  UNL1        0.0541
     22 C           2.3779   -1.2858   20.4899 C.ar    1  UNL1        0.0180
     23 C           3.1852   -1.8464   19.3568 C.ar    1  UNL1        0.0382
     24 O           5.0532   -1.5701   17.5724 O.3     1  UNL1       -0.4754
     25 C           6.2600   -2.4143   17.8570 C.3     1  UNL1        0.2068
     26 C           7.3379   -1.9000   18.7646 C.3     1  UNL1        0.0646
     27 C           7.5947   -2.5728   20.0804 C.3     1  UNL1        0.0759
     28 C           6.6949   -0.2445   22.1824 C.3     1  UNL1        0.0173
     29 C           6.0822   -1.6083   22.0619 C.3     1  UNL1        0.0576
     30 C           4.9482   -2.1413   22.8865 C.3     1  UNL1        0.0174
     31 C           4.6609   -3.5410   22.4300 C.3     1  UNL1        0.0187
     32 C           5.6174   -3.8730   21.3232 C.3     1  UNL1        0.0721
     33 N           6.4957   -2.6785   21.0957 N.3     1  UNL1       -0.2738
@<TRIPOS>BOND
     1    29    28    1
     2    29    30    1
     3    30    31    1
     4    31    32    1
     5    32    33    1
     6    33    27    1
     7    27    26    1
     8    26    25    1
     9    25    24    1
    10    24    18    1
    11    18    19   ar
    12    19    20   ar
    13    20    21   ar
    14    21     1    1
    15     1     2    1
    16     2     3    1
    17     3     4    1
    18     4     5   am
    19     5     6    2
    20     5    10    1
    21    10    11   ar
    22    11    12   ar
    23    12    13   ar
    24    13    14    1
    25    13    15   ar
    26    15    16   ar
    27    16    17    1
    28     4     7    1
    29     7     8    1
    30     8     9    2
    31    21    22   ar
    32    22    23   ar
    33    33    29    1
    34    23    18   ar
    35     8     1   am
    36    16    10   ar
@<TRIPOS>MOLECULE
*****
 33 36 0 0 0
SMALL
GASTEIGER

@<TRIPOS>ATOM
      1 N           1.5563    1.1939   22.8020 N.am    1  UNL1       -0.2555
      2 C           2.0758    0.9087   24.1800 C.3     1  UNL1        0.1197
      3 C           1.3576    1.4522   25.3796 C.3     1  UNL1        0.1160
      4 N           0.1201    2.2808   25.2012 N.am    1  UNL1       -0.2659
      5 C          -0.5981    2.8242   26.4007 C.2     1  UNL1        0.2516
      6 O          -1.8356    3.6528   26.2223 O.2     1  UNL1       -0.2698
      7 C          -0.3994    2.5659   23.8231 C.3     1  UNL1        0.1799
      8 C           0.3187    2.0225   22.6236 C.2     1  UNL1        0.2497
      9 O          -0.2007    2.3076   21.2455 O.2     1  UNL1       -0.2727
     10 C          -0.0786    2.5391   27.7787 C.ar    1  UNL1        0.0811
     11 C           0.7106    3.5818   28.5134 C.ar    1  UNL1        0.0091
     12 C           1.2301    3.2966   29.8914 C.ar    1  UNL1        0.0299
     13 C           0.9603    1.9687   30.5346 C.ar    1  UNL1        0.1424
     14 F           1.4798    1.6836   31.9126 F       1  UNL1       -0.2041
     15 C           0.1711    0.9259   29.7999 C.ar    1  UNL1        0.0594
     16 C          -0.3483    1.2111   28.4220 C.ar    1  UNL1        0.1467
     17 F          -1.1375    0.1683   27.6873 F       1  UNL1       -0.2039
     18 C           3.7105   -0.4365   19.2033 C.ar    1  UNL1        0.1386
     19 C           2.5018   -1.1453   19.7386 C.ar    1  UNL1        0.0382
     20 C           1.7838   -0.6018   20.9381 C.ar    1  UNL1        0.0180
     21 C           2.2744    0.6504   21.6024 C.ar    1  UNL1        0.0541
     22 C           3.4832    1.3591   21.0671 C.ar    1  UNL1        0.0180
     23 C           4.2012    0.8157   19.8675 C.ar    1  UNL1        0.0382
     24 O           4.4287   -0.9800   18.0036 O.3     1  UNL1       -0.4754
     25 C           5.9233   -0.8866   17.9183 C.3     1  UNL1        0.2068
     26 C           6.7596   -2.1272   18.0261 C.3     1  UNL1        0.0646
     27 C           7.1071   -2.6825   19.3755 C.3     1  UNL1        0.0759
     28 C           4.7024   -4.8365   18.8990 C.3     1  UNL1        0.0173
     29 C           4.9132   -4.0088   20.1321 C.3     1  UNL1        0.0576
     30 C           4.0556   -4.0259   21.3626 C.3     1  UNL1        0.0174
     31 C           4.6309   -3.0464   22.3422 C.3     1  UNL1        0.0187
     32 C           5.8441   -2.4239   21.7171 C.3     1  UNL1        0.0721
     33 N           6.0185   -3.0187   20.3511 N.3     1  UNL1       -0.2738
@<TRIPOS>BOND
     1    29    28    1
     2    29    30    1
     3    30    31    1
     4    31    32    1
     5    32    33    1
     6    33    27    1
     7    27    26    1
     8    26    25    1
     9    25    24    1
    10    24    18    1
    11    18    19   ar
    12    19    20   ar
    13    20    21   ar
    14    21     1    1
    15     1     2    1
    16     2     3    1
    17     3     4    1
    18     4     5   am
    19     5     6    2
    20     5    10    1
    21    10    11   ar
    22    11    12   ar
    23    12    13   ar
    24    13    14    1
    25    13    15   ar
    26    15    16   ar
    27    16    17    1
    28     4     7    1
    29     7     8    1
    30     8     9    2
    31    21    22   ar
    32    22    23   ar
    33    33    29    1
    34    23    18   ar
    35     8     1   am
    36    16    10   ar
@<TRIPOS>MOLECULE
*****
 33 36 0 0 0
SMALL
GASTEIGER

@<TRIPOS>ATOM
      1 N           6.5629   -3.0804   20.5974 N.am    1  UNL1       -0.2555
      2 C           7.0863   -1.6848   20.4291 C.3     1  UNL1        0.1197
      3 C           6.5730   -0.8204   19.3158 C.3     1  UNL1        0.1160
      4 N           5.5364   -1.3517   18.3707 N.am    1  UNL1       -0.2659
      5 C           5.0232   -0.4873   17.2574 C.2     1  UNL1        0.2516
      6 O           3.9865   -1.0186   16.3123 O.2     1  UNL1       -0.2698
      7 C           5.0130   -2.7473   18.5390 C.3     1  UNL1        0.1799
      8 C           5.5262   -3.6117   19.6523 C.2     1  UNL1        0.2497
      9 O           5.0028   -5.0073   19.8206 O.2     1  UNL1       -0.2727
     10 C           5.5466    0.9082   17.0892 C.ar    1  UNL1        0.0811
     11 C           6.6858    1.1739   16.1503 C.ar    1  UNL1        0.0091
     12 C           7.2092    2.5696   15.9820 C.ar    1  UNL1        0.0299
     13 C           6.5934    3.6995   16.7528 C.ar    1  UNL1        0.1424
     14 F           7.1168    5.0951   16.5845 F       1  UNL1       -0.2041
     15 C           5.4541    3.4338   17.6917 C.ar    1  UNL1        0.0594
     16 C           4.9307    2.0382   17.8599 C.ar    1  UNL1        0.1467
     17 F           3.7915    1.7726   18.7988 F       1  UNL1       -0.2039
     18 C           8.1024   -5.6735   23.9373 C.ar    1  UNL1        0.1386
     19 C           6.9407   -4.7550   24.1755 C.ar    1  UNL1        0.0382
     20 C           6.4275   -3.8907   23.0622 C.ar    1  UNL1        0.0180
     21 C           7.0761   -3.9448   21.7107 C.ar    1  UNL1        0.0541
     22 C           8.2378   -4.8633   21.4726 C.ar    1  UNL1        0.0180
     23 C           8.7510   -5.7276   22.5859 C.ar    1  UNL1        0.0382
     24 O           8.6156   -6.5379   25.0507 O.3     1  UNL1       -0.4754
     25 C           9.1017   -5.9111   26.3238 C.3     1  UNL1        0.2068
     26 C           8.4845   -6.3000   27.6346 C.3     1  UNL1        0.0646
     27 C           7.1380   -5.7620   28.0185 C.3     1  UNL1        0.0759
     28 C           6.3005   -2.6367   28.4429 C.3     1  UNL1        0.0173
     29 C           6.5701   -3.6329   29.5314 C.3     1  UNL1        0.0576
     30 C           6.5020   -3.3674   31.0062 C.3     1  UNL1        0.0174
     31 C           6.8449   -4.6399   31.7226 C.3     1  UNL1        0.0187
     32 C           7.1249   -5.6918   30.6905 C.3     1  UNL1        0.0721
     33 N           6.9550   -5.0695   29.3363 N.3     1  UNL1       -0.2738
@<TRIPOS>BOND
     1    29    28    1
     2    29    30    1
     3    30    31    1
     4    31    32    1
     5    32    33    1
     6    33    27    1
     7    27    26    1
     8    26    25    1
     9    25    24    1
    10    24    18    1
    11    18    19   ar
    12    19    20   ar
    13    20    21   ar
    14    21     1    1
    15     1     2    1
    16     2     3    1
    17     3     4    1
    18     4     5   am
    19     5     6    2
    20     5    10    1
    21    10    11   ar
    22    11    12   ar
    23    12    13   ar
    24    13    14    1
    25    13    15   ar
    26    15    16   ar
    27    16    17    1
    28     4     7    1
    29     7     8    1
    30     8     9    2
    31    21    22   ar
    32    22    23   ar
    33    33    29    1
    34    23    18   ar
    35     8     1   am
    36    16    10   ar
