@<TRIPOS>MOLECULE
*****
 31 36 0 0 0
SMALL
GASTEIGER

@<TRIPOS>ATOM
      1 C           6.8531    0.0404   34.6168 C.ar    1  UNL1        0.1383
      2 C           5.5652   -0.4736   34.0450 C.ar    1  UNL1        0.0400
      3 C           5.5828   -1.5808   33.0332 C.ar    1  UNL1        0.0397
      4 C           6.8884   -2.1741   32.5933 C.ar    1  UNL1        0.1344
      5 C           8.1763   -1.6601   33.1651 C.ar    1  UNL1        0.0149
      6 C           8.1586   -0.5528   34.1769 C.ar    1  UNL1        0.0356
      7 C           9.4819   -2.2533   32.7252 C.3     1  UNL1        0.0331
      8 C           9.4995   -3.3606   31.7134 C.3     1  UNL1        0.0449
      9 C           8.2116   -3.8746   31.1416 C.3     1  UNL1        0.1361
     10 C           9.5171   -4.4678   30.7017 C.3     1  UNL1        0.0574
     11 C           9.5348   -5.5751   29.6899 C.3     1  UNL1        0.0756
     12 N           8.2468   -6.0891   29.1181 N.3     1  UNL1       -0.2737
     13 C           6.9413   -5.4958   29.5580 C.3     1  UNL1        0.0756
     14 C           6.9236   -4.3886   30.5697 C.3     1  UNL1        0.0574
     15 O           6.9060   -3.2813   31.5815 O.3     1  UNL1       -0.4828
     16 C           8.2645   -7.1963   28.1063 C.3     1  UNL1        0.0575
     17 C           7.6924   -7.3874   26.7328 C.3     1  UNL1        0.0160
     18 C           8.2895   -8.7623   26.6754 C.3     1  UNL1        0.0028
     19 C           8.8615   -8.5712   28.0489 C.3     1  UNL1        0.0160
     20 O           6.8355    1.1477   35.6286 O.3     1  UNL1       -0.4791
     21 O           0.9005    4.0488   37.5284 O.2     1  UNL1       -0.2749
     22 C           1.6458    2.8764   38.0941 C.2     1  UNL1        0.2251
     23 N           2.9432    2.4442   37.4777 N.am    1  UNL1       -0.2793
     24 C           3.4953    3.1844   36.2956 C.3     1  UNL1        0.0971
     25 C           4.7927    2.7522   35.6793 C.3     1  UNL1        0.0650
     26 C           5.5380    1.5799   36.2450 C.3     1  UNL1        0.1693
     27 C           4.9859    0.8397   37.4270 C.3     1  UNL1        0.0650
     28 C           3.6885    1.2718   38.0434 C.3     1  UNL1        0.0971
     29 C           1.0936    2.1362   39.2761 C.3     1  UNL1        0.0767
     30 C           0.4866    2.1470   40.6477 C.3     1  UNL1        0.0096
     31 C           0.7444    0.8434   39.9519 C.3     1  UNL1        0.0096
@<TRIPOS>BOND
     1    21    22    2
     2    22    29    1
     3    29    30    1
     4    30    31    1
     5    22    23   am
     6    23    24    1
     7    24    25    1
     8    25    26    1
     9    26    20    1
    10    20     1    1
    11     1     2   ar
    12     2     3   ar
    13     3     4   ar
    14     4     5   ar
    15     5     6   ar
    16     5     7    1
    17     7     8    1
    18     8     9    1
    19     9    10    1
    20    10    11    1
    21    11    12    1
    22    12    16    1
    23    16    17    1
    24    17    18    1
    25    18    19    1
    26    12    13    1
    27    13    14    1
    28     9    15    1
    29    26    27    1
    30    27    28    1
    31    31    29    1
    32    28    23    1
    33     6     1   ar
    34    14     9    1
    35    15     4    1
    36    19    16    1
@<TRIPOS>MOLECULE
*****
 31 36 0 0 0
SMALL
GASTEIGER

@<TRIPOS>ATOM
      1 C           5.3271    1.5726   32.1739 C.ar    1  UNL1        0.1383
      2 C           5.5186    1.7472   30.6965 C.ar    1  UNL1        0.0400
      3 C           5.9019    0.5728   29.8459 C.ar    1  UNL1        0.0397
      4 C           6.0939   -0.7765   30.4727 C.ar    1  UNL1        0.1344
      5 C           5.9025   -0.9511   31.9502 C.ar    1  UNL1        0.0149
      6 C           5.5191    0.2235   32.8008 C.ar    1  UNL1        0.0356
      7 C           6.0944   -2.3002   32.5770 C.3     1  UNL1        0.0331
      8 C           6.4778   -3.4748   31.7264 C.3     1  UNL1        0.0449
      9 C           6.6692   -3.3002   30.2490 C.3     1  UNL1        0.1361
     10 C           6.8612   -4.6493   30.8758 C.3     1  UNL1        0.0574
     11 C           7.2445   -5.8238   30.0252 C.3     1  UNL1        0.0756
     12 N           7.4360   -5.6491   28.5478 N.3     1  UNL1       -0.2737
     13 C           7.2440   -4.3000   27.9209 C.3     1  UNL1        0.0756
     14 C           6.8607   -3.1255   28.7715 C.3     1  UNL1        0.0574
     15 O           6.4773   -1.9509   29.6221 O.3     1  UNL1       -0.4828
     16 C           7.8194   -6.8237   27.6972 C.3     1  UNL1        0.0575
     17 C           7.4904   -7.2783   26.3061 C.3     1  UNL1        0.0160
     18 C           8.3616   -8.4848   26.4943 C.3     1  UNL1        0.0028
     19 C           8.6905   -8.0302   27.8854 C.3     1  UNL1        0.0160
     20 O           4.9437    2.7471   33.0245 O.3     1  UNL1       -0.4791
     21 O           4.5050    2.1014   39.8539 O.2     1  UNL1       -0.2749
     22 C           3.4697    1.9272   38.7826 C.2     1  UNL1        0.2251
     23 N           3.8382    2.1322   37.3430 N.am    1  UNL1       -0.2793
     24 C           5.2420    2.5113   36.9749 C.3     1  UNL1        0.0971
     25 C           5.6105    2.7163   35.5354 C.3     1  UNL1        0.0650
     26 C           4.5752    2.5421   34.4641 C.3     1  UNL1        0.1693
     27 C           3.1714    2.1630   34.8322 C.3     1  UNL1        0.0650
     28 C           2.8029    1.9580   36.2717 C.3     1  UNL1        0.0971
     29 C           2.0659    1.5481   39.1507 C.3     1  UNL1        0.0767
     30 C           1.0308    0.4942   39.4111 C.3     1  UNL1        0.0096
     31 C           0.6695    1.9454   39.5280 C.3     1  UNL1        0.0096
@<TRIPOS>BOND
     1    21    22    2
     2    22    29    1
     3    29    30    1
     4    30    31    1
     5    22    23   am
     6    23    24    1
     7    24    25    1
     8    25    26    1
     9    26    20    1
    10    20     1    1
    11     1     2   ar
    12     2     3   ar
    13     3     4   ar
    14     4     5   ar
    15     5     6   ar
    16     5     7    1
    17     7     8    1
    18     8     9    1
    19     9    10    1
    20    10    11    1
    21    11    12    1
    22    12    16    1
    23    16    17    1
    24    17    18    1
    25    18    19    1
    26    12    13    1
    27    13    14    1
    28     9    15    1
    29    26    27    1
    30    27    28    1
    31    31    29    1
    32    28    23    1
    33     6     1   ar
    34    14     9    1
    35    15     4    1
    36    19    16    1
@<TRIPOS>MOLECULE
*****
 31 36 0 0 0
SMALL
GASTEIGER

@<TRIPOS>ATOM
      1 C           1.8826    1.9977   23.1266 C.ar    1  UNL1        0.1383
      2 C           1.1864    2.4599   21.8810 C.ar    1  UNL1        0.0400
      3 C          -0.2021    3.0213   21.9622 C.ar    1  UNL1        0.0397
      4 C          -0.8945    3.1206   23.2892 C.ar    1  UNL1        0.1344
      5 C          -0.1983    2.6585   24.5349 C.ar    1  UNL1        0.0149
      6 C           1.1903    2.0970   24.4536 C.ar    1  UNL1        0.0356
      7 C          -0.8906    2.7578   25.8618 C.3     1  UNL1        0.0331
      8 C          -2.2792    3.3193   25.9431 C.3     1  UNL1        0.0449
      9 C          -2.9755    3.7814   24.6975 C.3     1  UNL1        0.1361
     10 C          -3.6678    3.8808   26.0244 C.3     1  UNL1        0.0574
     11 C          -5.0563    4.4422   26.1057 C.3     1  UNL1        0.0756
     12 N          -5.7526    4.9044   24.8600 N.3     1  UNL1       -0.2737
     13 C          -5.0603    4.8050   23.5331 C.3     1  UNL1        0.0756
     14 C          -3.6717    4.2436   23.4518 C.3     1  UNL1        0.0574
     15 O          -2.2831    3.6821   23.3705 O.3     1  UNL1       -0.4828
     16 C          -7.1412    5.4658   24.9413 C.3     1  UNL1        0.0575
     17 C          -8.4097    5.2751   24.1638 C.3     1  UNL1        0.0160
     18 C          -9.1049    6.2599   25.0564 C.3     1  UNL1        0.0028
     19 C          -7.8364    6.4507   25.8339 C.3     1  UNL1        0.0160
     20 O           3.2712    1.4362   23.0454 O.3     1  UNL1       -0.4791
     21 O           5.3178   -2.0563   17.4899 O.2     1  UNL1       -0.2749
     22 C           4.6605   -2.5217   18.7553 C.2     1  UNL1        0.2251
     23 N           4.3131   -1.5322   19.8278 N.am    1  UNL1       -0.2793
     24 C           4.6232   -0.0773   19.6349 C.3     1  UNL1        0.0971
     25 C           4.2759    0.9121   20.7074 C.3     1  UNL1        0.0650
     26 C           3.6185    0.4467   21.9728 C.3     1  UNL1        0.1693
     27 C           3.3085   -1.0081   22.1657 C.3     1  UNL1        0.0650
     28 C           3.6558   -1.9976   21.0932 C.3     1  UNL1        0.0971
     29 C           4.3504   -3.9766   18.9482 C.3     1  UNL1        0.0767
     30 C           4.6507   -5.4179   18.6613 C.3     1  UNL1        0.0096
     31 C           3.5131   -5.0551   19.5692 C.3     1  UNL1        0.0096
@<TRIPOS>BOND
     1    21    22    2
     2    22    29    1
     3    29    30    1
     4    30    31    1
     5    22    23   am
     6    23    24    1
     7    24    25    1
     8    25    26    1
     9    26    20    1
    10    20     1    1
    11     1     2   ar
    12     2     3   ar
    13     3     4   ar
    14     4     5   ar
    15     5     6   ar
    16     5     7    1
    17     7     8    1
    18     8     9    1
    19     9    10    1
    20    10    11    1
    21    11    12    1
    22    12    16    1
    23    16    17    1
    24    17    18    1
    25    18    19    1
    26    12    13    1
    27    13    14    1
    28     9    15    1
    29    26    27    1
    30    27    28    1
    31    31    29    1
    32    28    23    1
    33     6     1   ar
    34    14     9    1
    35    15     4    1
    36    19    16    1
@<TRIPOS>MOLECULE
*****
 31 36 0 0 0
SMALL
GASTEIGER

@<TRIPOS>ATOM
      1 C           6.4993   -4.0411   24.5736 C.ar    1  UNL1        0.1383
      2 C           6.0647   -2.6102   24.6899 C.ar    1  UNL1        0.0400
      3 C           5.9042   -1.9828   26.0429 C.ar    1  UNL1        0.0397
      4 C           6.1782   -2.7863   27.2796 C.ar    1  UNL1        0.1344
      5 C           6.6128   -4.2172   27.1633 C.ar    1  UNL1        0.0149
      6 C           6.7733   -4.8446   25.8102 C.ar    1  UNL1        0.0356
      7 C           6.8868   -5.0207   28.3999 C.3     1  UNL1        0.0331
      8 C           6.7262   -4.3933   29.7529 C.3     1  UNL1        0.0449
      9 C           6.2917   -2.9623   29.8692 C.3     1  UNL1        0.1361
     10 C           6.5657   -3.7658   31.1058 C.3     1  UNL1        0.0574
     11 C           6.4051   -3.1384   32.4588 C.3     1  UNL1        0.0756
     12 N           5.9705   -1.7075   32.5751 N.3     1  UNL1       -0.2737
     13 C           5.6965   -0.9040   31.3385 C.3     1  UNL1        0.0756
     14 C           5.8571   -1.5314   29.9856 C.3     1  UNL1        0.0574
     15 O           6.0176   -2.1588   28.6325 O.3     1  UNL1       -0.4828
     16 C           5.8100   -1.0800   33.9281 C.3     1  UNL1        0.0575
     17 C           6.7209   -0.3617   34.8791 C.3     1  UNL1        0.0160
     18 C           5.5828   -0.1927   35.8416 C.3     1  UNL1        0.0028
     19 C           4.6719   -0.9110   34.8906 C.3     1  UNL1        0.0160
     20 O           6.6599   -4.6686   23.2207 O.3     1  UNL1       -0.4791
     21 O           7.2298   -0.8604   17.5265 O.2     1  UNL1       -0.2749
     22 C           6.0185   -1.3357   18.2728 C.2     1  UNL1        0.2251
     23 N           6.1789   -2.1690   19.5098 N.am    1  UNL1       -0.2793
     24 C           7.5504   -2.5269   20.0005 C.3     1  UNL1        0.0971
     25 C           7.7108   -3.3600   21.2374 C.3     1  UNL1        0.0650
     26 C           6.4996   -3.8353   21.9837 C.3     1  UNL1        0.1693
     27 C           5.1280   -3.4775   21.4931 C.3     1  UNL1        0.0650
     28 C           4.9676   -2.6443   20.2561 C.3     1  UNL1        0.0971
     29 C           4.6470   -0.9778   17.7822 C.3     1  UNL1        0.0767
     30 C           3.6326   -0.9345   16.6781 C.3     1  UNL1        0.0096
     31 C           3.2858   -0.4013   18.0365 C.3     1  UNL1        0.0096
@<TRIPOS>BOND
     1    21    22    2
     2    22    29    1
     3    29    30    1
     4    30    31    1
     5    22    23   am
     6    23    24    1
     7    24    25    1
     8    25    26    1
     9    26    20    1
    10    20     1    1
    11     1     2   ar
    12     2     3   ar
    13     3     4   ar
    14     4     5   ar
    15     5     6   ar
    16     5     7    1
    17     7     8    1
    18     8     9    1
    19     9    10    1
    20    10    11    1
    21    11    12    1
    22    12    16    1
    23    16    17    1
    24    17    18    1
    25    18    19    1
    26    12    13    1
    27    13    14    1
    28     9    15    1
    29    26    27    1
    30    27    28    1
    31    31    29    1
    32    28    23    1
    33     6     1   ar
    34    14     9    1
    35    15     4    1
    36    19    16    1
@<TRIPOS>MOLECULE
*****
 31 36 0 0 0
SMALL
GASTEIGER

@<TRIPOS>ATOM
      1 C           6.9341   -4.3015   22.6970 C.ar    1  UNL1        0.1383
      2 C           7.7455   -5.0632   23.7027 C.ar    1  UNL1        0.0400
      3 C           7.6193   -4.7460   25.1633 C.ar    1  UNL1        0.0397
      4 C           6.6817   -3.6671   25.6183 C.ar    1  UNL1        0.1344
      5 C           5.8703   -2.9054   24.6126 C.ar    1  UNL1        0.0149
      6 C           5.9965   -3.2226   23.1519 C.ar    1  UNL1        0.0356
      7 C           4.9327   -1.8265   25.0674 C.3     1  UNL1        0.0331
      8 C           4.8065   -1.5093   26.5281 C.3     1  UNL1        0.0449
      9 C           5.6179   -2.2710   27.5339 C.3     1  UNL1        0.1361
     10 C           4.6803   -1.1921   27.9887 C.3     1  UNL1        0.0574
     11 C           4.5541   -0.8749   29.4493 C.3     1  UNL1        0.0756
     12 N           5.3655   -1.6366   30.4551 N.3     1  UNL1       -0.2737
     13 C           6.3031   -2.7155   30.0002 C.3     1  UNL1        0.0756
     14 C           6.4292   -3.0327   28.5396 C.3     1  UNL1        0.0574
     15 O           6.5555   -3.3499   27.0789 O.3     1  UNL1       -0.4828
     16 C           5.2393   -1.3194   31.9158 C.3     1  UNL1        0.0575
     17 C           5.4181   -0.0877   32.7530 C.3     1  UNL1        0.0160
     18 C           5.0607   -0.8709   33.9814 C.3     1  UNL1        0.0028
     19 C           4.8819   -2.1026   33.1442 C.3     1  UNL1        0.0160
     20 O           7.0603   -4.6187   21.2364 O.3     1  UNL1       -0.4791
     21 O           3.8845   -0.9489   16.3684 O.2     1  UNL1       -0.2749
     22 C           5.1455   -0.6802   17.1348 C.2     1  UNL1        0.2251
     23 N           5.6243   -1.6648   18.1603 N.am    1  UNL1       -0.2793
     24 C           4.8419   -2.9181   18.4192 C.3     1  UNL1        0.0971
     25 C           5.3205   -3.9028   19.4445 C.3     1  UNL1        0.0650
     26 C           6.5816   -3.6340   20.2110 C.3     1  UNL1        0.1693
     27 C           7.3640   -2.3807   19.9521 C.3     1  UNL1        0.0650
     28 C           6.8853   -1.3961   18.9267 C.3     1  UNL1        0.0971
     29 C           5.9279    0.5732   16.8760 C.3     1  UNL1        0.0767
     30 C           6.2891    1.9798   17.2511 C.3     1  UNL1        0.0096
     31 C           6.9218    1.3373   16.0524 C.3     1  UNL1        0.0096
@<TRIPOS>BOND
     1    21    22    2
     2    22    29    1
     3    29    30    1
     4    30    31    1
     5    22    23   am
     6    23    24    1
     7    24    25    1
     8    25    26    1
     9    26    20    1
    10    20     1    1
    11     1     2   ar
    12     2     3   ar
    13     3     4   ar
    14     4     5   ar
    15     5     6   ar
    16     5     7    1
    17     7     8    1
    18     8     9    1
    19     9    10    1
    20    10    11    1
    21    11    12    1
    22    12    16    1
    23    16    17    1
    24    17    18    1
    25    18    19    1
    26    12    13    1
    27    13    14    1
    28     9    15    1
    29    26    27    1
    30    27    28    1
    31    31    29    1
    32    28    23    1
    33     6     1   ar
    34    14     9    1
    35    15     4    1
    36    19    16    1
@<TRIPOS>MOLECULE
*****
 31 36 0 0 0
SMALL
GASTEIGER

@<TRIPOS>ATOM
      1 C           6.0535   -3.7408   23.2387 C.ar    1  UNL1        0.1383
      2 C           5.1419   -2.5794   23.5032 C.ar    1  UNL1        0.0400
      3 C           4.9608   -2.0718   24.9030 C.ar    1  UNL1        0.0397
      4 C           5.6914   -2.7255   26.0383 C.ar    1  UNL1        0.1344
      5 C           6.6031   -3.8870   25.7738 C.ar    1  UNL1        0.0149
      6 C           6.7841   -4.3946   24.3739 C.ar    1  UNL1        0.0356
      7 C           7.3337   -4.5407   26.9090 C.3     1  UNL1        0.0331
      8 C           7.1527   -4.0331   28.3089 C.3     1  UNL1        0.0449
      9 C           6.2410   -2.8717   28.5734 C.3     1  UNL1        0.1361
     10 C           6.9716   -3.5254   29.7087 C.3     1  UNL1        0.0574
     11 C           6.7906   -3.0178   31.1084 C.3     1  UNL1        0.0756
     12 N           5.8789   -1.8564   31.3730 N.3     1  UNL1       -0.2737
     13 C           5.1483   -1.2026   30.2378 C.3     1  UNL1        0.0756
     14 C           5.3294   -1.7102   28.8380 C.3     1  UNL1        0.0574
     15 O           5.5104   -2.2179   27.4381 O.3     1  UNL1       -0.4828
     16 C           5.6979   -1.3487   32.7729 C.3     1  UNL1        0.0575
     17 C           4.5594   -1.3118   33.7489 C.3     1  UNL1        0.0160
     18 C           5.4419   -0.6308   34.7526 C.3     1  UNL1        0.0028
     19 C           6.5804   -0.6677   33.7766 C.3     1  UNL1        0.0160
     20 O           6.2346   -4.2485   21.8389 O.3     1  UNL1       -0.4791
     21 O           3.8157   -1.0070   16.2808 O.2     1  UNL1       -0.2749
     22 C           4.9803   -0.6920   17.1721 C.2     1  UNL1        0.2251
     23 N           5.2939   -1.5811   18.3388 N.am    1  UNL1       -0.2793
     24 C           4.4428   -2.7853   18.6142 C.3     1  UNL1        0.0971
     25 C           4.7564   -3.6744   19.7808 C.3     1  UNL1        0.0650
     26 C           5.9210   -3.3594   20.6721 C.3     1  UNL1        0.1693
     27 C           6.7720   -2.1552   20.3968 C.3     1  UNL1        0.0650
     28 C           6.4585   -1.2661   19.2301 C.3     1  UNL1        0.0971
     29 C           5.8313    0.5121   16.8968 C.3     1  UNL1        0.0767
     30 C           6.1915    1.9404   17.1798 C.3     1  UNL1        0.0096
     31 C           6.9450    1.1694   16.1368 C.3     1  UNL1        0.0096
@<TRIPOS>BOND
     1    21    22    2
     2    22    29    1
     3    29    30    1
     4    30    31    1
     5    22    23   am
     6    23    24    1
     7    24    25    1
     8    25    26    1
     9    26    20    1
    10    20     1    1
    11     1     2   ar
    12     2     3   ar
    13     3     4   ar
    14     4     5   ar
    15     5     6   ar
    16     5     7    1
    17     7     8    1
    18     8     9    1
    19     9    10    1
    20    10    11    1
    21    11    12    1
    22    12    16    1
    23    16    17    1
    24    17    18    1
    25    18    19    1
    26    12    13    1
    27    13    14    1
    28     9    15    1
    29    26    27    1
    30    27    28    1
    31    31    29    1
    32    28    23    1
    33     6     1   ar
    34    14     9    1
    35    15     4    1
    36    19    16    1
@<TRIPOS>MOLECULE
*****
 31 36 0 0 0
SMALL
GASTEIGER

@<TRIPOS>ATOM
      1 C           0.4947    3.8794   17.9126 C.ar    1  UNL1        0.1383
      2 C           1.9259    4.3245   17.8538 C.ar    1  UNL1        0.0400
      3 C           3.0188    3.3957   18.2928 C.ar    1  UNL1        0.0397
      4 C           2.6806    2.0217   18.7908 C.ar    1  UNL1        0.1344
      5 C           1.2493    1.5766   18.8496 C.ar    1  UNL1        0.0149
      6 C           0.1564    2.5055   18.4105 C.ar    1  UNL1        0.0356
      7 C           0.9110    0.2027   19.3475 C.3     1  UNL1        0.0331
      8 C           2.0039   -0.7261   19.7866 C.3     1  UNL1        0.0449
      9 C           3.4352   -0.2811   19.7277 C.3     1  UNL1        0.1361
     10 C           3.0969   -1.6550   20.2256 C.3     1  UNL1        0.0574
     11 C           4.1898   -2.5838   20.6646 C.3     1  UNL1        0.0756
     12 N           5.6210   -2.1387   20.6058 N.3     1  UNL1       -0.2737
     13 C           5.9593   -0.7648   20.1079 C.3     1  UNL1        0.0756
     14 C           4.8664    0.1640   19.6689 C.3     1  UNL1        0.0574
     15 O           3.7735    1.0929   19.2298 O.3     1  UNL1       -0.4828
     16 C           6.7140   -3.0676   21.0449 C.3     1  UNL1        0.0575
     17 C           6.9337   -3.9625   22.2284 C.3     1  UNL1        0.0160
     18 C           8.2596   -4.3812   21.6657 C.3     1  UNL1        0.0028
     19 C           8.0399   -3.4862   20.4821 C.3     1  UNL1        0.0160
     20 O          -0.5982    4.8082   17.4736 O.3     1  UNL1       -0.4791
     21 O          -7.2666    3.5846   18.6077 O.2     1  UNL1       -0.2749
     22 C          -6.1833    4.0545   19.5326 C.2     1  UNL1        0.2251
     23 N          -4.7870    4.2429   19.0179 N.am    1  UNL1       -0.2793
     24 C          -4.4740    3.9614   17.5781 C.3     1  UNL1        0.0971
     25 C          -3.0778    4.1498   17.0634 C.3     1  UNL1        0.0650
     26 C          -1.9945    4.6198   17.9883 C.3     1  UNL1        0.1693
     27 C          -2.3075    4.9013   19.4281 C.3     1  UNL1        0.0650
     28 C          -3.7037    4.7128   19.9429 C.3     1  UNL1        0.0971
     29 C          -6.4962    4.3360   20.9724 C.3     1  UNL1        0.0767
     30 C          -6.3666    3.9796   22.4236 C.3     1  UNL1        0.0096
     31 C          -7.1678    5.1800   22.0148 C.3     1  UNL1        0.0096
@<TRIPOS>BOND
     1    21    22    2
     2    22    29    1
     3    29    30    1
     4    30    31    1
     5    22    23   am
     6    23    24    1
     7    24    25    1
     8    25    26    1
     9    26    20    1
    10    20     1    1
    11     1     2   ar
    12     2     3   ar
    13     3     4   ar
    14     4     5   ar
    15     5     6   ar
    16     5     7    1
    17     7     8    1
    18     8     9    1
    19     9    10    1
    20    10    11    1
    21    11    12    1
    22    12    16    1
    23    16    17    1
    24    17    18    1
    25    18    19    1
    26    12    13    1
    27    13    14    1
    28     9    15    1
    29    26    27    1
    30    27    28    1
    31    31    29    1
    32    28    23    1
    33     6     1   ar
    34    14     9    1
    35    15     4    1
    36    19    16    1
@<TRIPOS>MOLECULE
*****
 31 36 0 0 0
SMALL
GASTEIGER

@<TRIPOS>ATOM
      1 C           1.1521    2.2718   22.9790 C.ar    1  UNL1        0.1383
      2 C           2.4285    2.9234   23.4223 C.ar    1  UNL1        0.0400
      3 C           2.7258    3.0726   24.8849 C.ar    1  UNL1        0.0397
      4 C           1.7467    2.5703   25.9044 C.ar    1  UNL1        0.1344
      5 C           0.4704    1.9187   25.4611 C.ar    1  UNL1        0.0149
      6 C           0.1731    1.7695   23.9984 C.ar    1  UNL1        0.0356
      7 C          -0.5087    1.4164   26.4804 C.3     1  UNL1        0.0331
      8 C          -0.2114    1.5656   27.9432 C.3     1  UNL1        0.0449
      9 C           1.0650    2.2172   28.3864 C.3     1  UNL1        0.1361
     10 C           0.0859    1.7148   29.4058 C.3     1  UNL1        0.0574
     11 C           0.3832    1.8641   30.8684 C.3     1  UNL1        0.0756
     12 N           1.6595    2.5156   31.3117 N.3     1  UNL1       -0.2737
     13 C           2.6386    3.0179   30.2923 C.3     1  UNL1        0.0756
     14 C           2.3413    2.8687   28.8297 C.3     1  UNL1        0.0574
     15 O           2.0440    2.7195   27.3670 O.3     1  UNL1       -0.4828
     16 C           1.9568    2.6648   32.7744 C.3     1  UNL1        0.0575
     17 C           1.6094    3.6723   33.8300 C.3     1  UNL1        0.0160
     18 C           2.3773    2.8757   34.8429 C.3     1  UNL1        0.0028
     19 C           2.7246    1.8682   33.7873 C.3     1  UNL1        0.0160
     20 O           0.8549    2.1226   21.5164 O.3     1  UNL1       -0.4791
     21 O           4.4485   -1.4000   16.8338 O.2     1  UNL1       -0.2749
     22 C           3.9767   -1.7868   18.2041 C.2     1  UNL1        0.2251
     23 N           3.1962   -0.8094   19.0322 N.am    1  UNL1       -0.2793
     24 C           2.8876    0.5547   18.4900 C.3     1  UNL1        0.0971
     25 C           2.1072    1.5320   19.3180 C.3     1  UNL1        0.0650
     26 C           1.6353    1.1453   20.6883 C.3     1  UNL1        0.1693
     27 C           1.9439   -0.2188   21.2305 C.3     1  UNL1        0.0650
     28 C           2.7243   -1.1962   20.4025 C.3     1  UNL1        0.0971
     29 C           4.2852   -3.1509   18.7463 C.3     1  UNL1        0.0767
     30 C           3.8752   -4.5712   18.9999 C.3     1  UNL1        0.0096
     31 C           5.2297   -4.0931   19.4319 C.3     1  UNL1        0.0096
@<TRIPOS>BOND
     1    21    22    2
     2    22    29    1
     3    29    30    1
     4    30    31    1
     5    22    23   am
     6    23    24    1
     7    24    25    1
     8    25    26    1
     9    26    20    1
    10    20     1    1
    11     1     2   ar
    12     2     3   ar
    13     3     4   ar
    14     4     5   ar
    15     5     6   ar
    16     5     7    1
    17     7     8    1
    18     8     9    1
    19     9    10    1
    20    10    11    1
    21    11    12    1
    22    12    16    1
    23    16    17    1
    24    17    18    1
    25    18    19    1
    26    12    13    1
    27    13    14    1
    28     9    15    1
    29    26    27    1
    30    27    28    1
    31    31    29    1
    32    28    23    1
    33     6     1   ar
    34    14     9    1
    35    15     4    1
    36    19    16    1
@<TRIPOS>MOLECULE
*****
 31 36 0 0 0
SMALL
GASTEIGER

@<TRIPOS>ATOM
      1 C           7.7557   -3.7562   20.9116 C.ar    1  UNL1        0.1383
      2 C           8.3984   -2.4435   20.5745 C.ar    1  UNL1        0.0400
      3 C           7.5517   -1.2824   20.1445 C.ar    1  UNL1        0.0397
      4 C           6.0622   -1.4341   20.0514 C.ar    1  UNL1        0.1344
      5 C           5.4195   -2.7469   20.3885 C.ar    1  UNL1        0.0149
      6 C           6.2664   -3.9080   20.8186 C.ar    1  UNL1        0.0356
      7 C           3.9302   -2.8986   20.2954 C.3     1  UNL1        0.0331
      8 C           3.0834   -1.7376   19.8653 C.3     1  UNL1        0.0449
      9 C           3.7260   -0.4248   19.5283 C.3     1  UNL1        0.1361
     10 C           2.2367   -0.5765   19.4353 C.3     1  UNL1        0.0574
     11 C           1.3899    0.5845   19.0052 C.3     1  UNL1        0.0756
     12 N           2.0326    1.8973   18.6681 N.3     1  UNL1       -0.2737
     13 C           3.5220    2.0490   18.7612 C.3     1  UNL1        0.0756
     14 C           4.3687    0.8880   19.1913 C.3     1  UNL1        0.0574
     15 O           5.2155   -0.2731   19.6213 O.3     1  UNL1       -0.4828
     16 C           1.1858    3.0584   18.2381 C.3     1  UNL1        0.0575
     17 C           1.4355    4.5143   17.9774 C.3     1  UNL1        0.0160
     18 C          -0.0118    4.7003   17.6298 C.3     1  UNL1        0.0028
     19 C          -0.2615    3.2443   17.8905 C.3     1  UNL1        0.0160
     20 O           8.6024   -4.9173   21.3417 O.3     1  UNL1       -0.4791
     21 O           8.2744   -8.6759   27.0875 O.2     1  UNL1       -0.2749
     22 C           7.9499   -7.2328   26.8383 C.2     1  UNL1        0.2251
     23 N           8.1130   -6.6539   25.4641 N.am    1  UNL1       -0.2793
     24 C           8.6007   -7.5181   24.3392 C.3     1  UNL1        0.0971
     25 C           8.7639   -6.9393   22.9651 C.3     1  UNL1        0.0650
     26 C           8.4393   -5.4962   22.7158 C.3     1  UNL1        0.1693
     27 C           7.9516   -4.6320   23.8407 C.3     1  UNL1        0.0650
     28 C           7.7885   -5.2109   25.2148 C.3     1  UNL1        0.0971
     29 C           7.4622   -6.3686   27.9631 C.3     1  UNL1        0.0767
     30 C           6.4752   -5.3786   28.5068 C.3     1  UNL1        0.0096
     31 C           7.6045   -5.8618   29.3677 C.3     1  UNL1        0.0096
@<TRIPOS>BOND
     1    21    22    2
     2    22    29    1
     3    29    30    1
     4    30    31    1
     5    22    23   am
     6    23    24    1
     7    24    25    1
     8    25    26    1
     9    26    20    1
    10    20     1    1
    11     1     2   ar
    12     2     3   ar
    13     3     4   ar
    14     4     5   ar
    15     5     6   ar
    16     5     7    1
    17     7     8    1
    18     8     9    1
    19     9    10    1
    20    10    11    1
    21    11    12    1
    22    12    16    1
    23    16    17    1
    24    17    18    1
    25    18    19    1
    26    12    13    1
    27    13    14    1
    28     9    15    1
    29    26    27    1
    30    27    28    1
    31    31    29    1
    32    28    23    1
    33     6     1   ar
    34    14     9    1
    35    15     4    1
    36    19    16    1
