@<TRIPOS>MOLECULE
*****
 43 47 0 0 0
SMALL
GASTEIGER

@<TRIPOS>ATOM
      1 N           2.1965   -0.1665   27.1282 N.am    1  UNL1       -0.2705
      2 C           2.3128    1.2258   26.5822 C.2     1  UNL1        0.2846
      3 O           3.0153    2.2867   27.3766 O.2     1  UNL1       -0.2665
      4 H           1.7355   -0.8628   26.6068 H       1  UNL1        0.1555
      5 C           4.2314   -0.8697   28.5825 C.ar    1  UNL1        0.2459
      6 N           4.8175   -1.2010   29.9229 N.ar    1  UNL1       -0.1777
      7 C           3.9549   -1.1605   31.1494 C.ar    1  UNL1        0.2220
      8 N           2.5062   -0.7886   31.0356 N.ar    1  UNL1       -0.1777
      9 C           1.9201   -0.4573   29.6952 C.ar    1  UNL1        0.2459
     10 C           2.7827   -0.4978   28.4686 C.ar    1  UNL1        0.1585
     11 C           6.0101    0.2361   27.0452 C.3     1  UNL1        0.2543
     12 O           5.0940   -0.9102   27.3560 O.3     1  UNL1       -0.4551
     13 N           4.5410   -1.4918   32.4898 N.pl3   1  UNL1       -0.3028
     14 H           4.3129   -0.9445   33.2757 H       1  UNL1        0.1496
     15 C           5.4748   -2.6570   32.6326 C.3     1  UNL1        0.0910
     16 C           6.9546   -2.4536   32.4949 C.3     1  UNL1        0.0386
     17 C           7.7843   -3.4600   31.7541 C.3     1  UNL1        0.0740
     18 N           7.5017   -3.7473   30.3093 N.3     1  UNL1       -0.2684
     19 C           7.9908   -2.8070   29.2480 C.3     1  UNL1        0.1046
     20 C           7.7082   -3.0943   27.8032 C.3     1  UNL1        0.1595
     21 O           6.9365   -4.3220   27.4197 O.3     1  UNL1       -0.3508
     22 C           6.4474   -5.2625   28.4810 C.3     1  UNL1        0.1595
     23 C           6.7300   -4.9751   29.9257 C.3     1  UNL1        0.1046
     24 O           0.4713   -0.0854   29.5812 O.3     1  UNL1       -0.4551
     25 C           0.0600    1.3558   29.6428 C.3     1  UNL1        0.2543
     26 C           1.7267    1.5571   25.2419 C.ar    1  UNL1        0.2021
     27 C           1.5049    2.9353   24.6928 C.ar    1  UNL1        0.0489
     28 C           0.9005    2.7983   23.3268 C.ar    1  UNL1        0.0816
     29 C           0.7488    1.3355   23.0315 C.ar    1  UNL1        0.3014
     30 O           1.2594    0.5684   24.2152 O.2     1  UNL1       -0.4188
     31 O           0.1855    0.7437   21.7737 O.3     1  UNL1       -0.4238
     32 C           1.0806    0.4928   20.5964 C.ar    1  UNL1        0.1443
     33 C           2.0198   -0.6767   20.6042 C.ar    1  UNL1        0.0327
     34 C           2.9149   -0.9276   19.4270 C.ar    1  UNL1       -0.0237
     35 C           2.8708   -0.0090   18.2420 C.ar    1  UNL1       -0.0263
     36 C           1.9315    1.1605   18.2342 C.ar    1  UNL1       -0.0058
     37 C           1.0364    1.4114   19.4115 C.ar    1  UNL1        0.0125
     38 C           0.0971    2.5809   19.4037 C.3     1  UNL1        0.0342
     39 C           3.8643   -0.5050   17.2336 C.3     1  UNL1        0.0264
     40 C           4.5226   -1.7302   17.7955 C.3     1  UNL1        0.0087
     41 C           3.9358   -1.9914   19.1510 C.3     1  UNL1        0.0190
     42 C           4.8750   -3.1608   19.1588 C.3     1  UNL1        0.0044
     43 C           3.5454   -2.4970   20.5082 C.3     1  UNL1        0.0044
@<TRIPOS>BOND
     1    11    12    1
     2    12     5    1
     3     5     6   ar
     4     6     7   ar
     5     7    13    1
     6    13    15    1
     7    15    16    1
     8    16    17    1
     9    17    18    1
    10    18    19    1
    11    19    20    1
    12    20    21    1
    13    21    22    1
    14    22    23    1
    15     7     8   ar
    16     8     9   ar
    17     9    24    1
    18    24    25    1
    19     9    10   ar
    20    10     1    1
    21     1     2   am
    22     2     3    2
    23     2    26    1
    24    26    27   ar
    25    27    28   ar
    26    28    29   ar
    27    29    31    1
    28    31    32    1
    29    32    33   ar
    30    33    34   ar
    31    34    35   ar
    32    35    36   ar
    33    36    37   ar
    34    37    38    1
    35    35    39    1
    36    39    40    1
    37    40    41    1
    38    41    42    1
    39    41    43    1
    40    29    30   ar
    41    10     5   ar
    42    30    26   ar
    43    23    18    1
    44    37    32   ar
    45    41    34    1
    46    13    14    1
    47     1     4    1
@<TRIPOS>MOLECULE
*****
 43 47 0 0 0
SMALL
GASTEIGER

@<TRIPOS>ATOM
      1 N           2.3636   -0.1530   27.1789 N.am    1  UNL1       -0.2705
      2 C           2.2962    1.2634   26.6898 C.2     1  UNL1        0.2846
      3 O           2.7312    2.3869   27.5833 O.2     1  UNL1       -0.2665
      4 H           2.0781   -0.8904   26.5925 H       1  UNL1        0.1555
      5 C           1.9083   -0.4811   29.7157 C.ar    1  UNL1        0.2459
      6 N           2.4107   -0.7740   31.0984 N.ar    1  UNL1       -0.1777
      7 C           3.8706   -1.0315   31.3271 C.ar    1  UNL1        0.2220
      8 N           4.8282   -0.9962   30.1731 N.ar    1  UNL1       -0.1777
      9 C           4.3258   -0.7034   28.7904 C.ar    1  UNL1        0.2459
     10 C           2.8659   -0.4458   28.5617 C.ar    1  UNL1        0.1585
     11 C          -0.0888    1.1744   29.5714 C.3     1  UNL1        0.2543
     12 O           0.4484   -0.2236   29.4870 O.3     1  UNL1       -0.4551
     13 N           4.3729   -1.3243   32.7098 N.pl3   1  UNL1       -0.3028
     14 H           4.8263   -2.1776   32.8984 H       1  UNL1        0.1496
     15 C           4.1843   -0.3170   33.8052 C.3     1  UNL1        0.0910
     16 C           4.7744   -0.5650   35.1618 C.3     1  UNL1        0.0386
     17 C           5.0443    0.5867   36.0842 C.3     1  UNL1        0.0740
     18 N           3.9024    1.3770   36.6513 N.3     1  UNL1       -0.2684
     19 C           3.2560    0.9458   37.9343 C.3     1  UNL1        0.1046
     20 C           2.1141    1.7360   38.5014 C.3     1  UNL1        0.1595
     21 O           1.6187    2.9575   37.7854 O.3     1  UNL1       -0.3508
     22 C           2.2652    3.3887   36.5024 C.3     1  UNL1        0.1595
     23 C           3.4070    2.5984   35.9354 C.3     1  UNL1        0.1046
     24 O           5.2834   -0.6681   27.6363 O.3     1  UNL1       -0.4551
     25 C           5.9776    0.6121   27.2767 C.3     1  UNL1        0.2543
     26 C           1.7940    1.5562   25.3071 C.ar    1  UNL1        0.2021
     27 C           1.7522    2.9046   24.6513 C.ar    1  UNL1        0.0489
     28 C           1.1776    2.7338   23.2763 C.ar    1  UNL1        0.0816
     29 C           0.8643    1.2797   23.0822 C.ar    1  UNL1        0.3014
     30 O           1.2452    0.5520   24.3374 O.2     1  UNL1       -0.4188
     31 O           0.2738    0.6619   21.8496 O.3     1  UNL1       -0.4238
     32 C           1.1349    0.4208   20.6452 C.ar    1  UNL1        0.1443
     33 C           2.0841   -0.7403   20.6223 C.ar    1  UNL1        0.0327
     34 C           2.9452   -0.9815   19.4179 C.ar    1  UNL1       -0.0237
     35 C           2.8570   -0.0614   18.2365 C.ar    1  UNL1       -0.0263
     36 C           1.9078    1.0998   18.2594 C.ar    1  UNL1       -0.0058
     37 C           1.0467    1.3409   19.4638 C.ar    1  UNL1        0.0125
     38 C           0.0974    2.5021   19.4868 C.3     1  UNL1        0.0342
     39 C           3.8238   -0.5471   17.1976 C.3     1  UNL1        0.0264
     40 C           4.5095   -1.7673   17.7369 C.3     1  UNL1        0.0087
     41 C           3.9665   -2.0358   19.1091 C.3     1  UNL1        0.0190
     42 C           4.9157   -3.1970   19.0862 C.3     1  UNL1        0.0044
     43 C           3.6219   -2.5470   20.4766 C.3     1  UNL1        0.0044
@<TRIPOS>BOND
     1    11    12    1
     2    12     5    1
     3     5     6   ar
     4     6     7   ar
     5     7    13    1
     6    13    15    1
     7    15    16    1
     8    16    17    1
     9    17    18    1
    10    18    19    1
    11    19    20    1
    12    20    21    1
    13    21    22    1
    14    22    23    1
    15     7     8   ar
    16     8     9   ar
    17     9    24    1
    18    24    25    1
    19     9    10   ar
    20    10     1    1
    21     1     2   am
    22     2     3    2
    23     2    26    1
    24    26    27   ar
    25    27    28   ar
    26    28    29   ar
    27    29    31    1
    28    31    32    1
    29    32    33   ar
    30    33    34   ar
    31    34    35   ar
    32    35    36   ar
    33    36    37   ar
    34    37    38    1
    35    35    39    1
    36    39    40    1
    37    40    41    1
    38    41    42    1
    39    41    43    1
    40    29    30   ar
    41    10     5   ar
    42    30    26   ar
    43    23    18    1
    44    37    32   ar
    45    41    34    1
    46    13    14    1
    47     1     4    1
@<TRIPOS>MOLECULE
*****
 43 47 0 0 0
SMALL
GASTEIGER

@<TRIPOS>ATOM
      1 N           2.7633   -0.7818   27.7069 N.am    1  UNL1       -0.2705
      2 C           3.9968   -0.3028   27.0004 C.2     1  UNL1        0.2846
      3 O           4.6215    1.0054   27.3857 O.2     1  UNL1       -0.2665
      4 H           2.3533   -1.6404   27.4540 H       1  UNL1        0.1555
      5 C           2.6437   -0.0947   30.2096 C.ar    1  UNL1        0.2459
      6 N           2.0349    0.7344   31.3014 N.ar    1  UNL1       -0.1777
      7 C           0.9371    1.7055   30.9823 C.ar    1  UNL1        0.2220
      8 N           0.4480    1.8475   29.5714 N.ar    1  UNL1       -0.1777
      9 C           1.0568    1.0184   28.4796 C.ar    1  UNL1        0.2459
     10 C           2.1546    0.0473   28.7987 C.ar    1  UNL1        0.1585
     11 C           5.1439   -0.5728   30.7297 C.3     1  UNL1        0.2543
     12 O           3.7415   -1.0657   30.5287 O.3     1  UNL1       -0.4551
     13 N           0.3284    2.5346   32.0741 N.pl3   1  UNL1       -0.3028
     14 H          -0.6421    2.4997   32.2357 H       1  UNL1        0.1496
     15 C           1.1984    3.4167   32.9196 C.3     1  UNL1        0.0910
     16 C           1.9670    2.8332   34.0681 C.3     1  UNL1        0.0386
     17 C           2.1064    3.6053   35.3466 C.3     1  UNL1        0.0740
     18 N           2.3376    2.8803   36.6392 N.3     1  UNL1       -0.2684
     19 C           1.5638    3.2667   37.8647 C.3     1  UNL1        0.1046
     20 C           1.7951    2.5417   39.1573 C.3     1  UNL1        0.1595
     21 O           2.8001    1.4302   39.2244 O.3     1  UNL1       -0.3508
     22 C           3.5739    1.0437   37.9988 C.3     1  UNL1        0.1595
     23 C           3.3426    1.7688   36.7063 C.3     1  UNL1        0.1046
     24 O           0.5677    1.1603   27.0687 O.3     1  UNL1       -0.4551
     25 C           1.2261    2.1385   26.1416 C.3     1  UNL1        0.2543
     26 C           4.6055   -1.1318   25.9086 C.ar    1  UNL1        0.2021
     27 C           6.0670   -1.4177   25.7291 C.ar    1  UNL1        0.0489
     28 C           6.2243   -2.2832   24.5142 C.ar    1  UNL1        0.0816
     29 C           4.8599   -2.5323   23.9427 C.ar    1  UNL1        0.3014
     30 O           3.8595   -1.8207   24.8046 O.2     1  UNL1       -0.4188
     31 O           4.5504   -3.3494   22.7236 O.3     1  UNL1       -0.4238
     32 C           4.4078   -2.6804   21.3885 C.ar    1  UNL1        0.1443
     33 C           3.2648   -1.7419   21.1383 C.ar    1  UNL1        0.0327
     34 C           3.1221   -1.0729   19.8034 C.ar    1  UNL1       -0.0237
     35 C           4.1224   -1.3424   18.7187 C.ar    1  UNL1       -0.0263
     36 C           5.2654   -2.2810   18.9688 C.ar    1  UNL1       -0.0058
     37 C           5.4081   -2.9500   20.3039 C.ar    1  UNL1        0.0125
     38 C           6.5511   -3.8886   20.5541 C.3     1  UNL1        0.0342
     39 C           3.7256   -0.5430   17.5130 C.3     1  UNL1        0.0264
     40 C           2.4800    0.2206   17.8527 C.3     1  UNL1        0.0087
     41 C           2.1070   -0.1069   19.2682 C.3     1  UNL1        0.0190
     42 C           0.9640    0.8317   19.0180 C.3     1  UNL1        0.0044
     43 C           1.4951   -0.2381   20.6314 C.3     1  UNL1        0.0044
@<TRIPOS>BOND
     1    11    12    1
     2    12     5    1
     3     5     6   ar
     4     6     7   ar
     5     7    13    1
     6    13    15    1
     7    15    16    1
     8    16    17    1
     9    17    18    1
    10    18    19    1
    11    19    20    1
    12    20    21    1
    13    21    22    1
    14    22    23    1
    15     7     8   ar
    16     8     9   ar
    17     9    24    1
    18    24    25    1
    19     9    10   ar
    20    10     1    1
    21     1     2   am
    22     2     3    2
    23     2    26    1
    24    26    27   ar
    25    27    28   ar
    26    28    29   ar
    27    29    31    1
    28    31    32    1
    29    32    33   ar
    30    33    34   ar
    31    34    35   ar
    32    35    36   ar
    33    36    37   ar
    34    37    38    1
    35    35    39    1
    36    39    40    1
    37    40    41    1
    38    41    42    1
    39    41    43    1
    40    29    30   ar
    41    10     5   ar
    42    30    26   ar
    43    23    18    1
    44    37    32   ar
    45    41    34    1
    46    13    14    1
    47     1     4    1
@<TRIPOS>MOLECULE
*****
 43 47 0 0 0
SMALL
GASTEIGER

@<TRIPOS>ATOM
      1 N           1.7177    0.2436   26.6296 N.am    1  UNL1       -0.2705
      2 C           1.6799    1.6106   26.0132 C.2     1  UNL1        0.2846
      3 O           2.0824    2.8089   26.8207 O.2     1  UNL1       -0.2665
      4 H           1.4535   -0.5429   26.0996 H       1  UNL1        0.1555
      5 C           1.1636    0.2154   29.1678 C.ar    1  UNL1        0.2459
      6 N           1.6040    0.0468   30.5918 N.ar    1  UNL1       -0.1777
      7 C           3.0388   -0.2624   30.9015 C.ar    1  UNL1        0.2220
      8 N           4.0332   -0.4029   29.7873 N.ar    1  UNL1       -0.1777
      9 C           3.5928   -0.2342   28.3634 C.ar    1  UNL1        0.2459
     10 C           2.1580    0.0749   28.0536 C.ar    1  UNL1        0.1585
     11 C          -1.2950   -0.5715   28.8748 C.3     1  UNL1        0.2543
     12 O          -0.2711    0.5246   28.8581 O.3     1  UNL1       -0.4551
     13 N           3.4791   -0.4310   32.3254 N.pl3   1  UNL1       -0.3028
     14 H           2.8264   -0.6917   33.0149 H       1  UNL1        0.1496
     15 C           4.9138   -0.2025   32.6989 C.3     1  UNL1        0.0910
     16 C           5.8545   -1.3657   32.8090 C.3     1  UNL1        0.0386
     17 C           6.7853   -1.6873   31.6775 C.3     1  UNL1        0.0740
     18 N           6.7874   -3.0611   31.0755 N.3     1  UNL1       -0.2684
     19 C           6.9425   -4.2656   31.9558 C.3     1  UNL1        0.1046
     20 C           6.9446   -5.6394   31.3538 C.3     1  UNL1        0.1595
     21 O           6.7917   -5.8088   29.8713 O.3     1  UNL1       -0.3508
     22 C           6.6366   -4.6043   28.9908 C.3     1  UNL1        0.1595
     23 C           6.6345   -3.2305   29.5929 C.3     1  UNL1        0.1046
     24 O           4.5872   -0.3747   27.2491 O.3     1  UNL1       -0.4551
     25 C           4.9616   -1.7371   26.7454 C.3     1  UNL1        0.2543
     26 C           1.2396    1.7792   24.5893 C.ar    1  UNL1        0.2021
     27 C           0.9576    3.0823   23.9019 C.ar    1  UNL1        0.0489
     28 C           0.5477    2.7828   22.4905 C.ar    1  UNL1        0.0816
     29 C           0.5762    1.2945   22.3054 C.ar    1  UNL1        0.3014
     30 O           1.0038    0.6743   23.6026 O.2     1  UNL1       -0.4188
     31 O           0.2368    0.5561   21.0447 O.3     1  UNL1       -0.4238
     32 C           1.3303    0.1030   20.1233 C.ar    1  UNL1        0.1443
     33 C           2.2346   -1.0229   20.5292 C.ar    1  UNL1        0.0327
     34 C           3.3281   -1.4760   19.6078 C.ar    1  UNL1       -0.0237
     35 C           3.5173   -0.8033   18.2806 C.ar    1  UNL1       -0.0263
     36 C           2.6131    0.3226   17.8747 C.ar    1  UNL1       -0.0058
     37 C           1.5196    0.7757   18.7961 C.ar    1  UNL1        0.0125
     38 C           0.6153    1.9017   18.3902 C.3     1  UNL1        0.0342
     39 C           4.6728   -1.4624   17.5874 C.3     1  UNL1        0.0264
     40 C           5.1976   -2.5425   18.4862 C.3     1  UNL1        0.0087
     41 C           4.3665   -2.5509   19.7349 C.3     1  UNL1        0.0190
     42 C           5.2707   -3.6768   20.1408 C.3     1  UNL1        0.0044
     43 C           3.7245   -2.7947   21.0685 C.3     1  UNL1        0.0044
@<TRIPOS>BOND
     1    11    12    1
     2    12     5    1
     3     5     6   ar
     4     6     7   ar
     5     7    13    1
     6    13    15    1
     7    15    16    1
     8    16    17    1
     9    17    18    1
    10    18    19    1
    11    19    20    1
    12    20    21    1
    13    21    22    1
    14    22    23    1
    15     7     8   ar
    16     8     9   ar
    17     9    24    1
    18    24    25    1
    19     9    10   ar
    20    10     1    1
    21     1     2   am
    22     2     3    2
    23     2    26    1
    24    26    27   ar
    25    27    28   ar
    26    28    29   ar
    27    29    31    1
    28    31    32    1
    29    32    33   ar
    30    33    34   ar
    31    34    35   ar
    32    35    36   ar
    33    36    37   ar
    34    37    38    1
    35    35    39    1
    36    39    40    1
    37    40    41    1
    38    41    42    1
    39    41    43    1
    40    29    30   ar
    41    10     5   ar
    42    30    26   ar
    43    23    18    1
    44    37    32   ar
    45    41    34    1
    46    13    14    1
    47     1     4    1
@<TRIPOS>MOLECULE
*****
 43 47 0 0 0
SMALL
GASTEIGER

@<TRIPOS>ATOM
      1 N           6.6712   -4.5096   25.8031 N.am    1  UNL1       -0.2705
      2 C           7.9801   -4.4874   25.0709 C.2     1  UNL1        0.2846
      3 O           9.2671   -4.4089   25.8375 O.2     1  UNL1       -0.2665
      4 H           5.8265   -4.5611   25.3000 H       1  UNL1        0.1555
      5 C           6.9635   -5.6817   28.1033 C.ar    1  UNL1        0.2459
      6 N           6.9414   -5.6253   29.6021 N.ar    1  UNL1       -0.1777
      7 C           6.6051   -4.3406   30.2995 C.ar    1  UNL1        0.2220
      8 N           6.2907   -3.1122   29.4981 N.ar    1  UNL1       -0.1777
      9 C           6.3128   -3.1686   27.9993 C.ar    1  UNL1        0.2459
     10 C           6.6491   -4.4533   27.3019 C.ar    1  UNL1        0.1585
     11 C           8.5324   -7.7290   27.7921 C.3     1  UNL1        0.2543
     12 O           7.2998   -6.9664   27.4059 O.3     1  UNL1       -0.4551
     13 N           6.5830   -4.2843   31.7982 N.pl3   1  UNL1       -0.3028
     14 H           6.7834   -5.0921   32.3241 H       1  UNL1        0.1496
     15 C           6.2558   -2.9973   32.4956 C.3     1  UNL1        0.0910
     16 C           4.8703   -2.7592   33.0192 C.3     1  UNL1        0.0386
     17 C           4.4612   -1.3852   33.4606 C.3     1  UNL1        0.0740
     18 N           3.5894   -0.5423   32.5778 N.3     1  UNL1       -0.2684
     19 C           3.2332   -1.0183   31.2007 C.3     1  UNL1        0.1046
     20 C           2.3614   -0.1754   30.3179 C.3     1  UNL1        0.1595
     21 O           1.8458    1.1436   30.8122 O.3     1  UNL1       -0.3508
     22 C           2.2021    1.6197   32.1894 C.3     1  UNL1        0.1595
     23 C           3.0738    0.7767   33.0721 C.3     1  UNL1        0.1046
     24 O           5.9984   -1.9401   27.1979 O.3     1  UNL1       -0.4551
     25 C           4.5750   -1.6092   26.8598 C.3     1  UNL1        0.2543
     26 C           8.0021   -4.5437   23.5722 C.ar    1  UNL1        0.2021
     27 C           8.8014   -5.4999   22.7374 C.ar    1  UNL1        0.0489
     28 C           8.5219   -5.2008   21.2943 C.ar    1  UNL1        0.0816
     29 C           7.5499   -4.0597   21.2372 C.ar    1  UNL1        0.3014
     30 O           7.2287   -3.6536   22.6450 O.2     1  UNL1       -0.4188
     31 O           6.9965   -3.4345   19.9912 O.3     1  UNL1       -0.4238
     32 C           5.6146   -2.8510   19.9949 C.ar    1  UNL1        0.1443
     33 C           5.3726   -1.5000   20.6001 C.ar    1  UNL1        0.0327
     34 C           3.9908   -0.9165   20.6039 C.ar    1  UNL1       -0.0237
     35 C           2.8509   -1.6839   20.0023 C.ar    1  UNL1       -0.0263
     36 C           3.0929   -3.0348   19.3971 C.ar    1  UNL1       -0.0058
     37 C           4.4748   -3.6184   19.3934 C.ar    1  UNL1        0.0125
     38 C           4.7168   -4.9694   18.7881 C.3     1  UNL1        0.0342
     39 C           1.6071   -0.8588   20.1508 C.3     1  UNL1        0.0264
     40 C           1.9782    0.4185   20.8441 C.3     1  UNL1        0.0087
     41 C           3.4514    0.3829   21.1241 C.3     1  UNL1        0.0190
     42 C           3.2095    1.7339   21.7294 C.3     1  UNL1        0.0044
     43 C           4.8741    0.6297   21.5307 C.3     1  UNL1        0.0044
@<TRIPOS>BOND
     1    11    12    1
     2    12     5    1
     3     5     6   ar
     4     6     7   ar
     5     7    13    1
     6    13    15    1
     7    15    16    1
     8    16    17    1
     9    17    18    1
    10    18    19    1
    11    19    20    1
    12    20    21    1
    13    21    22    1
    14    22    23    1
    15     7     8   ar
    16     8     9   ar
    17     9    24    1
    18    24    25    1
    19     9    10   ar
    20    10     1    1
    21     1     2   am
    22     2     3    2
    23     2    26    1
    24    26    27   ar
    25    27    28   ar
    26    28    29   ar
    27    29    31    1
    28    31    32    1
    29    32    33   ar
    30    33    34   ar
    31    34    35   ar
    32    35    36   ar
    33    36    37   ar
    34    37    38    1
    35    35    39    1
    36    39    40    1
    37    40    41    1
    38    41    42    1
    39    41    43    1
    40    29    30   ar
    41    10     5   ar
    42    30    26   ar
    43    23    18    1
    44    37    32   ar
    45    41    34    1
    46    13    14    1
    47     1     4    1
@<TRIPOS>MOLECULE
*****
 43 47 0 0 0
SMALL
GASTEIGER

@<TRIPOS>ATOM
      1 N           6.1898   -3.3232   27.4029 N.am    1  UNL1       -0.2705
      2 C           7.4116   -3.1726   26.5458 C.2     1  UNL1        0.2846
      3 O           8.6903   -2.6670   27.1450 O.2     1  UNL1       -0.2665
      4 H           5.3504   -3.6551   27.0096 H       1  UNL1        0.1555
      5 C           6.4483   -4.0430   29.8859 C.ar    1  UNL1        0.2459
      6 N           6.5053   -3.6880   31.3421 N.ar    1  UNL1       -0.1777
      7 C           6.3608   -2.2581   31.7717 C.ar    1  UNL1        0.2220
      8 N           6.1593   -1.1832   30.7450 N.ar    1  UNL1       -0.1777
      9 C           6.1023   -1.5383   29.2888 C.ar    1  UNL1        0.2459
     10 C           6.2468   -2.9682   28.8592 C.ar    1  UNL1        0.1585
     11 C           7.9565   -6.0866   29.3389 C.3     1  UNL1        0.2543
     12 O           6.5928   -5.4729   29.4563 O.3     1  UNL1       -0.4551
     13 N           6.4178   -1.9031   33.2279 N.pl3   1  UNL1       -0.3028
     14 H           7.1682   -2.2176   33.7822 H       1  UNL1        0.1496
     15 C           5.3315   -1.0690   33.8396 C.3     1  UNL1        0.0910
     16 C           3.9917   -0.9752   33.1715 C.3     1  UNL1        0.0386
     17 C           3.4174    0.3672   32.8277 C.3     1  UNL1        0.0740
     18 N           2.4963    0.5102   31.6525 N.3     1  UNL1       -0.2684
     19 C           1.5175    1.6455   31.6006 C.3     1  UNL1        0.1046
     20 C           0.5964    1.7886   30.4254 C.3     1  UNL1        0.1595
     21 O           0.6541    0.7962   29.3021 O.3     1  UNL1       -0.3508
     22 C           1.6330   -0.3392   29.3540 C.3     1  UNL1        0.1595
     23 C           2.5541   -0.4822   30.5292 C.3     1  UNL1        0.1046
     24 O           5.9007   -0.4634   28.2620 O.3     1  UNL1       -0.4551
     25 C           7.0352    0.4478   27.8977 C.3     1  UNL1        0.2543
     26 C           7.3545   -3.5276   25.0896 C.ar    1  UNL1        0.2021
     27 C           8.5288   -3.6423   24.1633 C.ar    1  UNL1        0.0489
     28 C           8.0132   -4.0158   22.8052 C.ar    1  UNL1        0.0816
     29 C           6.5201   -4.1320   22.8920 C.ar    1  UNL1        0.3014
     30 O           6.1131   -3.8302   24.3039 O.2     1  UNL1       -0.4188
     31 O           5.5964   -4.4874   21.7650 O.3     1  UNL1       -0.4238
     32 C           4.6069   -3.4795   21.2598 C.ar    1  UNL1        0.1443
     33 C           4.1086   -2.3964   22.1701 C.ar    1  UNL1        0.0327
     34 C           3.1192   -1.3885   21.6650 C.ar    1  UNL1       -0.0237
     35 C           2.6280   -1.4638   20.2496 C.ar    1  UNL1       -0.0263
     36 C           3.1263   -2.5469   19.3394 C.ar    1  UNL1       -0.0058
     37 C           4.1158   -3.5548   19.8446 C.ar    1  UNL1        0.0125
     38 C           4.6142   -4.6380   18.9343 C.3     1  UNL1        0.0342
     39 C           1.6593   -0.3389   20.0347 C.3     1  UNL1        0.0264
     40 C           1.5518    0.4316   21.3172 C.3     1  UNL1        0.0087
     41 C           2.4540   -0.2171   22.3248 C.3     1  UNL1        0.0190
     42 C           1.9557    0.8660   23.2350 C.3     1  UNL1        0.0044
     43 C           3.2521   -0.6394   23.5226 C.3     1  UNL1        0.0044
@<TRIPOS>BOND
     1    11    12    1
     2    12     5    1
     3     5     6   ar
     4     6     7   ar
     5     7    13    1
     6    13    15    1
     7    15    16    1
     8    16    17    1
     9    17    18    1
    10    18    19    1
    11    19    20    1
    12    20    21    1
    13    21    22    1
    14    22    23    1
    15     7     8   ar
    16     8     9   ar
    17     9    24    1
    18    24    25    1
    19     9    10   ar
    20    10     1    1
    21     1     2   am
    22     2     3    2
    23     2    26    1
    24    26    27   ar
    25    27    28   ar
    26    28    29   ar
    27    29    31    1
    28    31    32    1
    29    32    33   ar
    30    33    34   ar
    31    34    35   ar
    32    35    36   ar
    33    36    37   ar
    34    37    38    1
    35    35    39    1
    36    39    40    1
    37    40    41    1
    38    41    42    1
    39    41    43    1
    40    29    30   ar
    41    10     5   ar
    42    30    26   ar
    43    23    18    1
    44    37    32   ar
    45    41    34    1
    46    13    14    1
    47     1     4    1
@<TRIPOS>MOLECULE
*****
 43 47 0 0 0
SMALL
GASTEIGER

@<TRIPOS>ATOM
      1 N           6.2593   -3.6492   27.0494 N.am    1  UNL1       -0.2705
      2 C           7.4707   -3.3346   26.2226 C.2     1  UNL1        0.2846
      3 O           8.6496   -2.6509   26.8494 O.2     1  UNL1       -0.2665
      4 H           5.4855   -4.0979   26.6380 H       1  UNL1        0.1555
      5 C           5.8559   -1.8863   28.9147 C.ar    1  UNL1        0.2459
      6 N           5.8234   -1.5173   30.3683 N.ar    1  UNL1       -0.1777
      7 C           6.1617   -2.5421   31.4100 C.ar    1  UNL1        0.2220
      8 N           6.5325   -3.9360   30.9983 N.ar    1  UNL1       -0.1777
      9 C           6.5650   -4.3050   29.5447 C.ar    1  UNL1        0.2459
     10 C           6.2267   -3.2801   28.5030 C.ar    1  UNL1        0.1585
     11 C           4.1277   -0.7913   27.3134 C.3     1  UNL1        0.2543
     12 O           5.5176   -0.8614   27.8730 O.3     1  UNL1       -0.4551
     13 N           6.1292   -2.1731   32.8635 N.pl3   1  UNL1       -0.3028
     14 H           6.9455   -1.8472   33.3070 H       1  UNL1        0.1496
     15 C           4.8528   -2.3005   33.6412 C.3     1  UNL1        0.0910
     16 C           4.0716   -1.0731   34.0067 C.3     1  UNL1        0.0386
     17 C           4.1434    0.1478   33.1383 C.3     1  UNL1        0.0740
     18 N           3.0227    0.4624   32.1923 N.3     1  UNL1       -0.2684
     19 C           2.1362    1.6452   32.4466 C.3     1  UNL1        0.1046
     20 C           1.0154    1.9597   31.5006 C.3     1  UNL1        0.1595
     21 O           0.7812    1.0913   30.3002 O.3     1  UNL1       -0.3508
     22 C           1.6678   -0.0916   30.0459 C.3     1  UNL1        0.1595
     23 C           2.7885   -0.4061   30.9919 C.3     1  UNL1        0.1046
     24 O           6.9359   -5.6989   29.1329 O.3     1  UNL1       -0.4551
     25 C           8.3700   -6.0437   28.8597 C.3     1  UNL1        0.2543
     26 C           7.5032   -3.7036   24.7692 C.ar    1  UNL1        0.2021
     27 C           8.7341   -3.9720   23.9549 C.ar    1  UNL1        0.0489
     28 C           8.3021   -4.3034   22.5572 C.ar    1  UNL1        0.0816
     29 C           6.8042   -4.2398   22.5076 C.ar    1  UNL1        0.3014
     30 O           6.3105   -3.8691   23.8747 O.2     1  UNL1       -0.4188
     31 O           5.9501   -4.5009   21.3026 O.3     1  UNL1       -0.4238
     32 C           4.8590   -3.5398   20.9339 C.ar    1  UNL1        0.1443
     33 C           4.4134   -2.4982   21.9170 C.ar    1  UNL1        0.0327
     34 C           3.3224   -1.5371   21.5485 C.ar    1  UNL1       -0.0237
     35 C           2.6770   -1.6174   20.1968 C.ar    1  UNL1       -0.0263
     36 C           3.1227   -2.6590   19.2137 C.ar    1  UNL1       -0.0058
     37 C           4.2138   -3.6202   19.5823 C.ar    1  UNL1        0.0125
     38 C           4.6595   -4.6618   18.5991 C.3     1  UNL1        0.0342
     39 C           1.6338   -0.5426   20.1165 C.3     1  UNL1        0.0264
     40 C           1.6344    0.2020   21.4186 C.3     1  UNL1        0.0087
     41 C           2.6780   -0.4125   22.3036 C.3     1  UNL1        0.0190
     42 C           2.2323    0.6290   23.2867 C.3     1  UNL1        0.0044
     43 C           3.6284   -0.8094   23.3942 C.3     1  UNL1        0.0044
@<TRIPOS>BOND
     1    11    12    1
     2    12     5    1
     3     5     6   ar
     4     6     7   ar
     5     7    13    1
     6    13    15    1
     7    15    16    1
     8    16    17    1
     9    17    18    1
    10    18    19    1
    11    19    20    1
    12    20    21    1
    13    21    22    1
    14    22    23    1
    15     7     8   ar
    16     8     9   ar
    17     9    24    1
    18    24    25    1
    19     9    10   ar
    20    10     1    1
    21     1     2   am
    22     2     3    2
    23     2    26    1
    24    26    27   ar
    25    27    28   ar
    26    28    29   ar
    27    29    31    1
    28    31    32    1
    29    32    33   ar
    30    33    34   ar
    31    34    35   ar
    32    35    36   ar
    33    36    37   ar
    34    37    38    1
    35    35    39    1
    36    39    40    1
    37    40    41    1
    38    41    42    1
    39    41    43    1
    40    29    30   ar
    41    10     5   ar
    42    30    26   ar
    43    23    18    1
    44    37    32   ar
    45    41    34    1
    46    13    14    1
    47     1     4    1
@<TRIPOS>MOLECULE
*****
 43 47 0 0 0
SMALL
GASTEIGER

@<TRIPOS>ATOM
      1 N           2.4083   -0.1417   27.1829 N.am    1  UNL1       -0.2705
      2 C           2.2944    1.2858   26.7367 C.2     1  UNL1        0.2846
      3 O           2.6642    2.3966   27.6744 O.2     1  UNL1       -0.2665
      4 H           2.1656   -0.8708   26.5674 H       1  UNL1        0.1555
      5 C           4.3457   -0.7394   28.8076 C.ar    1  UNL1        0.2459
      6 N           4.8294   -1.0561   30.1917 N.ar    1  UNL1       -0.1777
      7 C           3.8594   -1.0920   31.3353 C.ar    1  UNL1        0.2220
      8 N           2.4057   -0.8112   31.0948 N.ar    1  UNL1       -0.1777
      9 C           1.9220   -0.4944   29.7107 C.ar    1  UNL1        0.2459
     10 C           2.8921   -0.4585   28.5671 C.ar    1  UNL1        0.1585
     11 C           6.7857   -0.5703   27.9312 C.3     1  UNL1        0.2543
     12 O           5.3158   -0.7035   27.6640 O.3     1  UNL1       -0.4551
     13 N           4.3431   -1.4088   32.7193 N.pl3   1  UNL1       -0.3028
     14 H           3.7442   -1.8566   33.3596 H       1  UNL1        0.1496
     15 C           5.7394   -1.0432   33.1277 C.3     1  UNL1        0.0910
     16 C           5.9674   -0.1966   34.3449 C.3     1  UNL1        0.0386
     17 C           5.6155    1.2613   34.3211 C.3     1  UNL1        0.0740
     18 N           4.4858    1.7463   33.4617 N.3     1  UNL1       -0.2684
     19 C           4.7674    2.3098   32.1005 C.3     1  UNL1        0.1046
     20 C           3.6377    2.7947   31.2411 C.3     1  UNL1        0.1595
     21 O           2.2264    2.7162   31.7431 O.3     1  UNL1       -0.3508
     22 C           1.9448    2.1528   33.1045 C.3     1  UNL1        0.1595
     23 C           3.0745    1.6678   33.9637 C.3     1  UNL1        0.1046
     24 O           0.4683   -0.2135   29.4701 O.3     1  UNL1       -0.4551
     25 C          -0.0655    1.1775   29.6438 C.3     1  UNL1        0.2543
     26 C           1.8107    1.6026   25.3526 C.ar    1  UNL1        0.2021
     27 C           1.8473    2.9489   24.6924 C.ar    1  UNL1        0.0489
     28 C           1.2647    2.8070   23.3175 C.ar    1  UNL1        0.0816
     29 C           0.8679    1.3728   23.1279 C.ar    1  UNL1        0.3014
     30 O           1.2054    0.6285   24.3858 O.2     1  UNL1       -0.4188
     31 O           0.2434    0.7861   21.8969 O.3     1  UNL1       -0.4238
     32 C           1.0833    0.5232   20.6822 C.ar    1  UNL1        0.1443
     33 C           2.0301   -0.6400   20.6626 C.ar    1  UNL1        0.0327
     34 C           2.8701   -0.9030   19.4480 C.ar    1  UNL1       -0.0237
     35 C           2.7632   -0.0027   18.2529 C.ar    1  UNL1       -0.0263
     36 C           1.8164    1.1605   18.2725 C.ar    1  UNL1       -0.0058
     37 C           0.9765    1.4235   19.4873 C.ar    1  UNL1        0.0125
     38 C           0.0296    2.5868   19.5069 C.3     1  UNL1        0.0342
     39 C           3.7113   -0.5076   17.2059 C.3     1  UNL1        0.0264
     40 C           4.4041   -1.7199   17.7539 C.3     1  UNL1        0.0087
     41 C           3.8842   -1.9643   19.1395 C.3     1  UNL1        0.0190
     42 C           4.8310   -3.1276   19.1199 C.3     1  UNL1        0.0044
     43 C           3.5622   -2.4519   20.5211 C.3     1  UNL1        0.0044
@<TRIPOS>BOND
     1    11    12    1
     2    12     5    1
     3     5     6   ar
     4     6     7   ar
     5     7    13    1
     6    13    15    1
     7    15    16    1
     8    16    17    1
     9    17    18    1
    10    18    19    1
    11    19    20    1
    12    20    21    1
    13    21    22    1
    14    22    23    1
    15     7     8   ar
    16     8     9   ar
    17     9    24    1
    18    24    25    1
    19     9    10   ar
    20    10     1    1
    21     1     2   am
    22     2     3    2
    23     2    26    1
    24    26    27   ar
    25    27    28   ar
    26    28    29   ar
    27    29    31    1
    28    31    32    1
    29    32    33   ar
    30    33    34   ar
    31    34    35   ar
    32    35    36   ar
    33    36    37   ar
    34    37    38    1
    35    35    39    1
    36    39    40    1
    37    40    41    1
    38    41    42    1
    39    41    43    1
    40    29    30   ar
    41    10     5   ar
    42    30    26   ar
    43    23    18    1
    44    37    32   ar
    45    41    34    1
    46    13    14    1
    47     1     4    1
@<TRIPOS>MOLECULE
*****
 43 47 0 0 0
SMALL
GASTEIGER

@<TRIPOS>ATOM
      1 N           1.5229    1.8804   26.8462 N.am    1  UNL1       -0.2705
      2 C           0.5535    2.5087   25.8892 C.2     1  UNL1        0.2846
      3 O          -0.5694    3.3570   26.4081 O.2     1  UNL1       -0.2665
      4 H           2.2599    1.3236   26.5056 H       1  UNL1        0.1555
      5 C           0.6282    1.0984   29.1567 C.ar    1  UNL1        0.2459
      6 N           0.4746    1.3186   30.6324 N.ar    1  UNL1       -0.1777
      7 C           1.0619    2.5409   31.2736 C.ar    1  UNL1        0.2220
      8 N           1.8029    3.5431   30.4389 N.ar    1  UNL1       -0.1777
      9 C           1.9565    3.3229   28.9631 C.ar    1  UNL1        0.2459
     10 C           1.3692    2.1006   28.3220 C.ar    1  UNL1        0.1585
     11 C          -1.3718   -0.5254   28.8205 C.3     1  UNL1        0.2543
     12 O           0.0409   -0.1239   28.5155 O.3     1  UNL1       -0.4551
     13 N           0.9082    2.7610   32.7493 N.pl3   1  UNL1       -0.3028
     14 H           0.1025    3.2053   33.0994 H       1  UNL1        0.1496
     15 C           1.9822    2.3042   33.6915 C.3     1  UNL1        0.0910
     16 C           2.6610    3.2938   34.5916 C.3     1  UNL1        0.0386
     17 C           1.9917    3.7374   35.8586 C.3     1  UNL1        0.0740
     18 N           2.1057    2.9021   37.0992 N.3     1  UNL1       -0.2684
     19 C           1.1293    3.0902   38.2223 C.3     1  UNL1        0.1046
     20 C           1.2433    2.2549   39.4629 C.3     1  UNL1        0.1595
     21 O           2.3337    1.2315   39.5805 O.3     1  UNL1       -0.3508
     22 C           3.3101    1.0435   38.4574 C.3     1  UNL1        0.1595
     23 C           3.1960    1.8788   37.2168 C.3     1  UNL1        0.1046
     24 O           2.6976    4.3250   28.1284 O.3     1  UNL1       -0.4551
     25 C           2.0192    5.5926   27.7004 C.3     1  UNL1        0.2543
     26 C           0.7072    2.2885   24.4135 C.ar    1  UNL1        0.2021
     27 C           1.3498    3.2347   23.4431 C.ar    1  UNL1        0.0489
     28 C           1.2850    2.6145   22.0789 C.ar    1  UNL1        0.0816
     29 C           0.6024    1.2848   22.2061 C.ar    1  UNL1        0.3014
     30 O           0.2453    1.0834   23.6491 O.2     1  UNL1       -0.4188
     31 O           0.3255    0.3252   21.0871 O.3     1  UNL1       -0.4238
     32 C           1.4303   -0.0823   20.1578 C.ar    1  UNL1        0.1443
     33 C           2.3739   -1.1801   20.5506 C.ar    1  UNL1        0.0327
     34 C           3.4787   -1.5877   19.6214 C.ar    1  UNL1       -0.0237
     35 C           3.6398   -0.8974   18.2994 C.ar    1  UNL1       -0.0263
     36 C           2.6961    0.2004   17.9067 C.ar    1  UNL1       -0.0058
     37 C           1.5913    0.6080   18.8359 C.ar    1  UNL1        0.0125
     38 C           0.6476    1.7058   18.4432 C.3     1  UNL1        0.0342
     39 C           4.8143   -1.5106   17.5963 C.3     1  UNL1        0.0264
     40 C           5.3791   -2.5799   18.4838 C.3     1  UNL1        0.0087
     41 C           4.5537   -2.6276   19.7353 C.3     1  UNL1        0.0190
     42 C           5.4973   -3.7254   20.1281 C.3     1  UNL1        0.0044
     43 C           3.9255   -2.9047   21.0690 C.3     1  UNL1        0.0044
@<TRIPOS>BOND
     1    11    12    1
     2    12     5    1
     3     5     6   ar
     4     6     7   ar
     5     7    13    1
     6    13    15    1
     7    15    16    1
     8    16    17    1
     9    17    18    1
    10    18    19    1
    11    19    20    1
    12    20    21    1
    13    21    22    1
    14    22    23    1
    15     7     8   ar
    16     8     9   ar
    17     9    24    1
    18    24    25    1
    19     9    10   ar
    20    10     1    1
    21     1     2   am
    22     2     3    2
    23     2    26    1
    24    26    27   ar
    25    27    28   ar
    26    28    29   ar
    27    29    31    1
    28    31    32    1
    29    32    33   ar
    30    33    34   ar
    31    34    35   ar
    32    35    36   ar
    33    36    37   ar
    34    37    38    1
    35    35    39    1
    36    39    40    1
    37    40    41    1
    38    41    42    1
    39    41    43    1
    40    29    30   ar
    41    10     5   ar
    42    30    26   ar
    43    23    18    1
    44    37    32   ar
    45    41    34    1
    46    13    14    1
    47     1     4    1
