@<TRIPOS>MOLECULE
*****
 31 35 0 0 0
SMALL
GASTEIGER

@<TRIPOS>ATOM
      1 N          -8.1969  -17.8565   22.9298 N.3     1  UNL1       -0.2679
      2 C          -9.6802  -17.9658   23.1243 C.3     1  UNL1        0.0978
      3 C         -10.2289  -18.6973   24.3133 C.3     1  UNL1        0.0224
      4 C         -11.7123  -18.8066   24.5077 C.3     1  UNL1        0.0065
      5 C         -12.6469  -18.1843   23.5131 C.3     1  UNL1        0.0277
      6 C         -12.0982  -17.4527   22.3241 C.ar    1  UNL1       -0.0073
      7 C         -13.0328  -16.8304   21.3295 C.ar    1  UNL1       -0.0015
      8 C         -12.4841  -16.0989   20.1405 C.ar    1  UNL1        0.0203
      9 C         -11.0008  -15.9896   19.9461 C.ar    1  UNL1        0.0985
     10 N         -10.0662  -16.6119   20.9407 N.ar    1  UNL1       -0.2471
     11 C         -10.6149  -17.3435   22.1297 C.ar    1  UNL1        0.0695
     12 C          -7.3937  -19.0759   22.5861 C.3     1  UNL1        0.0886
     13 C          -1.1444  -18.3777   19.8095 C.ar    1  UNL1       -0.0003
     14 C          -1.0283  -18.3103   21.3035 C.ar    1  UNL1       -0.0003
     15 C          -2.2549  -18.4365   22.1576 C.ar    1  UNL1       -0.0045
     16 C          -3.5977  -18.6300   21.5177 C.ar    1  UNL1       -0.0234
     17 C          -3.7138  -18.6974   20.0238 C.ar    1  UNL1       -0.0103
     18 C          -2.4872  -18.5713   19.1697 C.ar    1  UNL1       -0.0032
     19 C          -5.0567  -18.8910   19.3839 C.3     1  UNL1        0.0953
     20 N          -6.2833  -19.0172   20.2380 N.3     1  UNL1       -0.2934
     21 C          -6.1671  -18.9497   21.7320 C.3     1  UNL1        0.0748
     22 C          -4.8243  -18.7562   22.3719 C.3     1  UNL1        0.0432
     23 H          -6.7053  -19.9188   20.0159 H       1  UNL1        0.1236
     24 C          -7.5168  -16.5279   23.0791 C.3     1  UNL1        0.0725
     25 C          -7.1967  -15.9985   24.4456 C.3     1  UNL1        0.0187
     26 C          -5.7836  -15.6408   24.7994 C.3     1  UNL1        0.0185
     27 C          -5.4636  -15.1115   26.1658 C.3     1  UNL1        0.0686
     28 N          -6.5567  -14.9398   27.1786 N.3     1  UNL1       -0.2975
     29 C          -7.9697  -15.2975   26.8249 C.3     1  UNL1        0.0686
     30 C          -8.2898  -15.8269   25.4584 C.3     1  UNL1        0.0185
     31 H          -6.5599  -13.9551   27.4443 H       1  UNL1        0.1232
@<TRIPOS>BOND
     1    13    14   ar
     2    14    15   ar
     3    15    16   ar
     4    16    17   ar
     5    17    18   ar
     6    17    19    1
     7    19    20    1
     8    20    21    1
     9    21    12    1
    10    12     1    1
    11     1    24    1
    12    24    25    1
    13    25    26    1
    14    26    27    1
    15    27    28    1
    16    28    29    1
    17    29    30    1
    18     2     1    1
    19     2     3    1
    20     3     4    1
    21     4     5    1
    22     5     6    1
    23     6     7   ar
    24     7     8   ar
    25     8     9   ar
    26     9    10   ar
    27    10    11   ar
    28    21    22    1
    29    18    13   ar
    30    30    25    1
    31    11     2    1
    32    22    16    1
    33    11     6   ar
    34    20    23    1
    35    28    31    1
@<TRIPOS>MOLECULE
*****
 31 35 0 0 0
SMALL
GASTEIGER

@<TRIPOS>ATOM
      1 N          -8.3776  -19.4636   21.3675 N.3     1  UNL1       -0.2679
      2 C          -8.8267  -19.0890   22.7488 C.3     1  UNL1        0.0978
      3 C          -9.5685  -20.0836   23.5918 C.3     1  UNL1        0.0224
      4 C         -10.0176  -19.7090   24.9731 C.3     1  UNL1        0.0065
      5 C          -9.7249  -18.3398   25.5114 C.3     1  UNL1        0.0277
      6 C          -8.9831  -17.3453   24.6684 C.ar    1  UNL1       -0.0073
      7 C          -8.6904  -15.9762   25.2067 C.ar    1  UNL1       -0.0015
      8 C          -7.9486  -14.9816   24.3638 C.ar    1  UNL1        0.0203
      9 C          -7.4995  -15.3562   22.9825 C.ar    1  UNL1        0.0985
     10 N          -7.7922  -16.7253   22.4442 N.ar    1  UNL1       -0.2471
     11 C          -8.5340  -17.7198   23.2872 C.ar    1  UNL1        0.0695
     12 C          -7.0914  -20.2108   21.1738 C.3     1  UNL1        0.0886
     13 C          -0.9464  -17.2357   20.3762 C.ar    1  UNL1       -0.0003
     14 C          -1.3516  -17.8795   19.0835 C.ar    1  UNL1       -0.0003
     15 C          -2.6617  -18.6033   18.9845 C.ar    1  UNL1       -0.0045
     16 C          -3.5665  -18.6833   20.1782 C.ar    1  UNL1       -0.0234
     17 C          -3.1612  -18.0394   21.4709 C.ar    1  UNL1       -0.0103
     18 C          -1.8511  -17.3156   21.5699 C.ar    1  UNL1       -0.0032
     19 C          -4.0660  -18.1193   22.6647 C.3     1  UNL1        0.0953
     20 N          -5.3761  -18.8431   22.5656 N.3     1  UNL1       -0.2934
     21 C          -5.7814  -19.4870   21.2728 C.3     1  UNL1        0.0748
     22 C          -4.8766  -19.4071   20.0792 C.3     1  UNL1        0.0432
     23 H          -6.1040  -18.1678   22.7991 H       1  UNL1        0.1236
     24 C          -9.2147  -19.0909   20.1799 C.3     1  UNL1        0.0725
     25 C         -10.4292  -18.2290   20.3590 C.3     1  UNL1        0.0187
     26 C         -11.5751  -18.7127   21.1974 C.3     1  UNL1        0.0185
     27 C         -12.7896  -17.8508   21.3765 C.3     1  UNL1        0.0686
     28 N         -12.8581  -16.5052   20.7173 N.3     1  UNL1       -0.2975
     29 C         -11.7122  -16.0214   19.8790 C.3     1  UNL1        0.0686
     30 C         -10.4978  -16.8834   19.6998 C.3     1  UNL1        0.0185
     31 H         -12.9891  -15.8194   21.4609 H       1  UNL1        0.1232
@<TRIPOS>BOND
     1    13    14   ar
     2    14    15   ar
     3    15    16   ar
     4    16    17   ar
     5    17    18   ar
     6    17    19    1
     7    19    20    1
     8    20    21    1
     9    21    12    1
    10    12     1    1
    11     1    24    1
    12    24    25    1
    13    25    26    1
    14    26    27    1
    15    27    28    1
    16    28    29    1
    17    29    30    1
    18     2     1    1
    19     2     3    1
    20     3     4    1
    21     4     5    1
    22     5     6    1
    23     6     7   ar
    24     7     8   ar
    25     8     9   ar
    26     9    10   ar
    27    10    11   ar
    28    21    22    1
    29    18    13   ar
    30    30    25    1
    31    11     2    1
    32    22    16    1
    33    11     6   ar
    34    20    23    1
    35    28    31    1
@<TRIPOS>MOLECULE
*****
 31 35 0 0 0
SMALL
GASTEIGER

@<TRIPOS>ATOM
      1 N          -7.5489  -18.5580   21.5708 N.3     1  UNL1       -0.2679
      2 C          -8.8358  -18.9674   22.2237 C.3     1  UNL1        0.0978
      3 C          -8.8408  -20.0592   23.2522 C.3     1  UNL1        0.0224
      4 C         -10.1278  -20.4686   23.9051 C.3     1  UNL1        0.0065
      5 C         -11.4096  -19.7862   23.5294 C.3     1  UNL1        0.0277
      6 C         -11.4046  -18.6944   22.5009 C.ar    1  UNL1       -0.0073
      7 C         -12.6864  -18.0119   22.1253 C.ar    1  UNL1       -0.0015
      8 C         -12.6814  -16.9201   21.0968 C.ar    1  UNL1        0.0203
      9 C         -11.3945  -16.5106   20.4439 C.ar    1  UNL1        0.0985
     10 N         -10.1127  -17.1931   20.8195 N.ar    1  UNL1       -0.2471
     11 C         -10.1177  -18.2849   21.8480 C.ar    1  UNL1        0.0695
     12 C          -7.0605  -17.1452   21.6963 C.3     1  UNL1        0.0886
     13 C          -7.1033  -14.5972   28.0803 C.ar    1  UNL1       -0.0003
     14 C          -8.5048  -14.9587   27.6865 C.ar    1  UNL1       -0.0003
     15 C          -8.7765  -15.5406   26.3310 C.ar    1  UNL1       -0.0045
     16 C          -7.6467  -15.7610   25.3692 C.ar    1  UNL1       -0.0234
     17 C          -6.2453  -15.3995   25.7630 C.ar    1  UNL1       -0.0103
     18 C          -5.9736  -14.8175   27.1185 C.ar    1  UNL1       -0.0032
     19 C          -5.1154  -15.6198   24.8012 C.3     1  UNL1        0.0953
     20 N          -5.3872  -16.2017   23.4456 N.3     1  UNL1       -0.2934
     21 C          -6.7887  -16.5633   23.0519 C.3     1  UNL1        0.0748
     22 C          -7.9185  -16.3429   24.0136 C.3     1  UNL1        0.0432
     23 H          -4.8321  -17.0545   23.3746 H       1  UNL1        0.1236
     24 C          -6.7505  -19.5612   20.7923 C.3     1  UNL1        0.0725
     25 C          -5.2548  -19.4564   20.7462 C.3     1  UNL1        0.0187
     26 C          -4.4477  -19.6929   21.9882 C.3     1  UNL1        0.0185
     27 C          -2.9521  -19.5881   21.9420 C.3     1  UNL1        0.0686
     28 N          -2.2636  -19.2467   20.6538 N.3     1  UNL1       -0.2975
     29 C          -3.0707  -19.0101   19.4118 C.3     1  UNL1        0.0686
     30 C          -4.5663  -19.1150   19.4580 C.3     1  UNL1        0.0185
     31 H          -1.6255  -20.0154   20.4483 H       1  UNL1        0.1232
@<TRIPOS>BOND
     1    13    14   ar
     2    14    15   ar
     3    15    16   ar
     4    16    17   ar
     5    17    18   ar
     6    17    19    1
     7    19    20    1
     8    20    21    1
     9    21    12    1
    10    12     1    1
    11     1    24    1
    12    24    25    1
    13    25    26    1
    14    26    27    1
    15    27    28    1
    16    28    29    1
    17    29    30    1
    18     2     1    1
    19     2     3    1
    20     3     4    1
    21     4     5    1
    22     5     6    1
    23     6     7   ar
    24     7     8   ar
    25     8     9   ar
    26     9    10   ar
    27    10    11   ar
    28    21    22    1
    29    18    13   ar
    30    30    25    1
    31    11     2    1
    32    22    16    1
    33    11     6   ar
    34    20    23    1
    35    28    31    1
@<TRIPOS>MOLECULE
*****
 31 35 0 0 0
SMALL
GASTEIGER

@<TRIPOS>ATOM
      1 N          -8.5913  -18.7114   21.9150 N.3     1  UNL1       -0.2679
      2 C          -9.9523  -18.1908   21.5592 C.3     1  UNL1        0.0978
      3 C         -10.1951  -17.5884   20.2071 C.3     1  UNL1        0.0224
      4 C         -11.5562  -17.0679   19.8514 C.3     1  UNL1        0.0065
      5 C         -12.6744  -17.1497   20.8477 C.3     1  UNL1        0.0277
      6 C         -12.4317  -17.7521   22.1998 C.ar    1  UNL1       -0.0073
      7 C         -13.5499  -17.8339   23.1962 C.ar    1  UNL1       -0.0015
      8 C         -13.3071  -18.4363   24.5483 C.ar    1  UNL1        0.0203
      9 C         -11.9461  -18.9568   24.9041 C.ar    1  UNL1        0.0985
     10 N         -10.8279  -18.8750   23.9077 N.ar    1  UNL1       -0.2471
     11 C         -11.0706  -18.2726   22.5556 C.ar    1  UNL1        0.0695
     12 C          -7.7671  -19.4229   20.8831 C.3     1  UNL1        0.0886
     13 C          -1.0146  -18.5150   19.9723 C.ar    1  UNL1       -0.0003
     14 C          -1.7482  -17.9694   18.7831 C.ar    1  UNL1       -0.0003
     15 C          -3.2454  -18.0419   18.7274 C.ar    1  UNL1       -0.0045
     16 C          -4.0090  -18.6599   19.8610 C.ar    1  UNL1       -0.0234
     17 C          -3.2754  -19.2054   21.0501 C.ar    1  UNL1       -0.0103
     18 C          -1.7782  -19.1330   21.1058 C.ar    1  UNL1       -0.0032
     19 C          -4.0391  -19.8235   22.1837 C.3     1  UNL1        0.0953
     20 N          -5.5363  -19.8960   22.1281 N.3     1  UNL1       -0.2934
     21 C          -6.2699  -19.3504   20.9388 C.3     1  UNL1        0.0748
     22 C          -5.5062  -18.7324   19.8053 C.3     1  UNL1        0.0432
     23 H          -5.8859  -19.3950   22.9449 H       1  UNL1        0.1236
     24 C          -8.0544  -18.5205   23.3025 C.3     1  UNL1        0.0725
     25 C          -7.6397  -17.1551   23.7650 C.3     1  UNL1        0.0187
     26 C          -6.2620  -16.6462   23.4602 C.3     1  UNL1        0.0185
     27 C          -5.8474  -15.2809   23.9226 C.3     1  UNL1        0.0686
     28 N          -6.8106  -14.4244   24.6900 N.3     1  UNL1       -0.2975
     29 C          -8.1883  -14.9332   24.9948 C.3     1  UNL1        0.0686
     30 C          -8.6028  -16.2986   24.5323 C.3     1  UNL1        0.0185
     31 H          -6.9263  -13.5620   24.1577 H       1  UNL1        0.1232
@<TRIPOS>BOND
     1    13    14   ar
     2    14    15   ar
     3    15    16   ar
     4    16    17   ar
     5    17    18   ar
     6    17    19    1
     7    19    20    1
     8    20    21    1
     9    21    12    1
    10    12     1    1
    11     1    24    1
    12    24    25    1
    13    25    26    1
    14    26    27    1
    15    27    28    1
    16    28    29    1
    17    29    30    1
    18     2     1    1
    19     2     3    1
    20     3     4    1
    21     4     5    1
    22     5     6    1
    23     6     7   ar
    24     7     8   ar
    25     8     9   ar
    26     9    10   ar
    27    10    11   ar
    28    21    22    1
    29    18    13   ar
    30    30    25    1
    31    11     2    1
    32    22    16    1
    33    11     6   ar
    34    20    23    1
    35    28    31    1
@<TRIPOS>MOLECULE
*****
 31 35 0 0 0
SMALL
GASTEIGER

@<TRIPOS>ATOM
      1 N         -10.1188  -17.3673   20.8318 N.3     1  UNL1       -0.2679
      2 C          -9.3699  -18.5181   20.2278 C.3     1  UNL1        0.0978
      3 C          -9.9588  -19.2727   19.0728 C.3     1  UNL1        0.0224
      4 C          -9.2098  -20.4235   18.4688 C.3     1  UNL1        0.0065
      5 C          -7.8721  -20.8196   19.0196 C.3     1  UNL1        0.0277
      6 C          -7.2833  -20.0650   20.1746 C.ar    1  UNL1       -0.0073
      7 C          -5.9455  -20.4612   20.7254 C.ar    1  UNL1       -0.0015
      8 C          -5.3567  -19.7066   21.8803 C.ar    1  UNL1        0.0203
      9 C          -6.1056  -18.5559   22.4844 C.ar    1  UNL1        0.0985
     10 N          -7.4433  -18.1597   21.9335 N.ar    1  UNL1       -0.2471
     11 C          -8.0321  -18.9143   20.7786 C.ar    1  UNL1        0.0695
     12 C          -9.4162  -16.0671   21.0883 C.3     1  UNL1        0.0886
     13 C          -6.8814  -15.7558   27.4701 C.ar    1  UNL1       -0.0003
     14 C          -8.2239  -16.4238   27.5071 C.ar    1  UNL1       -0.0003
     15 C          -8.9993  -16.6197   26.2381 C.ar    1  UNL1       -0.0045
     16 C          -8.4323  -16.1475   24.9322 C.ar    1  UNL1       -0.0234
     17 C          -7.0898  -15.4795   24.8952 C.ar    1  UNL1       -0.0103
     18 C          -6.3143  -15.2837   26.1642 C.ar    1  UNL1       -0.0032
     19 C          -6.5227  -15.0073   23.5893 C.3     1  UNL1        0.0953
     20 N          -7.2981  -15.2032   22.3203 N.3     1  UNL1       -0.2934
     21 C          -8.6407  -15.8712   22.3573 C.3     1  UNL1        0.0748
     22 C          -9.2078  -16.3434   23.6632 C.3     1  UNL1        0.0432
     23 H          -6.7101  -15.7582   21.6985 H       1  UNL1        0.1236
     24 C         -11.5703  -17.5168   21.1794 C.3     1  UNL1        0.0725
     25 C         -11.9695  -17.9885   22.5463 C.3     1  UNL1        0.0187
     26 C         -11.0229  -18.8222   23.3580 C.3     1  UNL1        0.0185
     27 C         -11.4221  -19.2940   24.7248 C.3     1  UNL1        0.0686
     28 N         -12.7678  -18.9320   25.2798 N.3     1  UNL1       -0.2975
     29 C         -13.7144  -18.0983   24.4680 C.3     1  UNL1        0.0686
     30 C         -13.3152  -17.6266   23.1013 C.3     1  UNL1        0.0185
     31 H         -12.6012  -18.4257   26.1495 H       1  UNL1        0.1232
@<TRIPOS>BOND
     1    13    14   ar
     2    14    15   ar
     3    15    16   ar
     4    16    17   ar
     5    17    18   ar
     6    17    19    1
     7    19    20    1
     8    20    21    1
     9    21    12    1
    10    12     1    1
    11     1    24    1
    12    24    25    1
    13    25    26    1
    14    26    27    1
    15    27    28    1
    16    28    29    1
    17    29    30    1
    18     2     1    1
    19     2     3    1
    20     3     4    1
    21     4     5    1
    22     5     6    1
    23     6     7   ar
    24     7     8   ar
    25     8     9   ar
    26     9    10   ar
    27    10    11   ar
    28    21    22    1
    29    18    13   ar
    30    30    25    1
    31    11     2    1
    32    22    16    1
    33    11     6   ar
    34    20    23    1
    35    28    31    1
@<TRIPOS>MOLECULE
*****
 31 35 0 0 0
SMALL
GASTEIGER

@<TRIPOS>ATOM
      1 N          -6.4819  -17.5560   22.7157 N.3     1  UNL1       -0.2679
      2 C          -5.0144  -17.8352   22.5798 C.3     1  UNL1        0.0978
      3 C          -4.0248  -17.0624   23.4003 C.3     1  UNL1        0.0224
      4 C          -2.5572  -17.3416   23.2643 C.3     1  UNL1        0.0065
      5 C          -2.0794  -18.3937   22.3078 C.3     1  UNL1        0.0277
      6 C          -3.0691  -19.1665   21.4873 C.ar    1  UNL1       -0.0073
      7 C          -2.5913  -20.2185   20.5308 C.ar    1  UNL1       -0.0015
      8 C          -3.5810  -20.9914   19.7103 C.ar    1  UNL1        0.0203
      9 C          -5.0485  -20.7122   19.8463 C.ar    1  UNL1        0.0985
     10 N          -5.5263  -19.6601   20.8028 N.ar    1  UNL1       -0.2471
     11 C          -4.5366  -18.8873   21.6233 C.ar    1  UNL1        0.0695
     12 C          -7.4792  -18.6500   22.4731 C.3     1  UNL1        0.0886
     13 C         -14.1668  -17.8816   23.8643 C.ar    1  UNL1       -0.0003
     14 C         -13.5097  -18.6099   24.9991 C.ar    1  UNL1       -0.0003
     15 C         -12.0408  -18.9092   24.9478 C.ar    1  UNL1       -0.0045
     16 C         -11.2289  -18.4803   23.7617 C.ar    1  UNL1       -0.0234
     17 C         -11.8860  -17.7520   22.6270 C.ar    1  UNL1       -0.0103
     18 C         -13.3549  -17.4526   22.6782 C.ar    1  UNL1       -0.0032
     19 C         -11.0741  -17.3229   21.4408 C.3     1  UNL1        0.0953
     20 N          -9.6052  -17.6223   21.3895 N.3     1  UNL1       -0.2934
     21 C          -8.9481  -18.3506   22.5244 C.3     1  UNL1        0.0748
     22 C          -9.7600  -18.7796   23.7105 C.3     1  UNL1        0.0432
     23 H          -9.1253  -16.7270   21.2971 H       1  UNL1        0.1236
     24 C          -6.9522  -16.1829   23.0943 C.3     1  UNL1        0.0725
     25 C          -7.0670  -15.8017   24.5406 C.3     1  UNL1        0.0187
     26 C          -8.4013  -15.8465   25.2244 C.3     1  UNL1        0.0185
     27 C          -8.5160  -15.4653   26.6706 C.3     1  UNL1        0.0686
     28 N          -7.2965  -15.0392   27.4329 N.3     1  UNL1       -0.2975
     29 C          -5.9622  -14.9944   26.7491 C.3     1  UNL1        0.0686
     30 C          -5.8475  -15.3757   25.3030 C.3     1  UNL1        0.0185
     31 H          -7.2024  -15.6808   28.2203 H       1  UNL1        0.1232
@<TRIPOS>BOND
     1    13    14   ar
     2    14    15   ar
     3    15    16   ar
     4    16    17   ar
     5    17    18   ar
     6    17    19    1
     7    19    20    1
     8    20    21    1
     9    21    12    1
    10    12     1    1
    11     1    24    1
    12    24    25    1
    13    25    26    1
    14    26    27    1
    15    27    28    1
    16    28    29    1
    17    29    30    1
    18     2     1    1
    19     2     3    1
    20     3     4    1
    21     4     5    1
    22     5     6    1
    23     6     7   ar
    24     7     8   ar
    25     8     9   ar
    26     9    10   ar
    27    10    11   ar
    28    21    22    1
    29    18    13   ar
    30    30    25    1
    31    11     2    1
    32    22    16    1
    33    11     6   ar
    34    20    23    1
    35    28    31    1
@<TRIPOS>MOLECULE
*****
 31 35 0 0 0
SMALL
GASTEIGER

@<TRIPOS>ATOM
      1 N          -8.3810  -18.9861   20.6173 N.3     1  UNL1       -0.2679
      2 C          -8.3410  -18.0969   21.8247 C.3     1  UNL1        0.0978
      3 C          -7.6616  -16.7616   21.7506 C.3     1  UNL1        0.0224
      4 C          -7.6217  -15.8724   22.9580 C.3     1  UNL1        0.0065
      5 C          -8.2611  -16.3185   24.2394 C.3     1  UNL1        0.0277
      6 C          -8.9405  -17.6538   24.3135 C.ar    1  UNL1       -0.0073
      7 C          -9.5799  -18.0999   25.5949 C.ar    1  UNL1       -0.0015
      8 C         -10.2592  -19.4352   25.6690 C.ar    1  UNL1        0.0203
      9 C         -10.2992  -20.3243   24.4617 C.ar    1  UNL1        0.0985
     10 N          -9.6598  -19.8782   23.1803 N.ar    1  UNL1       -0.2471
     11 C          -8.9804  -18.5430   23.1062 C.ar    1  UNL1        0.0695
     12 C          -7.2486  -19.9312   20.3441 C.3     1  UNL1        0.0886
     13 C          -0.6997  -17.8599   20.6125 C.ar    1  UNL1       -0.0003
     14 C          -1.1836  -17.7757   19.1952 C.ar    1  UNL1       -0.0003
     15 C          -2.5902  -18.1731   18.8581 C.ar    1  UNL1       -0.0045
     16 C          -3.5128  -18.6547   19.9382 C.ar    1  UNL1       -0.0234
     17 C          -3.0289  -18.7389   21.3555 C.ar    1  UNL1       -0.0103
     18 C          -1.6224  -18.3415   21.6926 C.ar    1  UNL1       -0.0032
     19 C          -3.9516  -19.2205   22.4357 C.3     1  UNL1        0.0953
     20 N          -5.3581  -19.6180   22.0986 N.3     1  UNL1       -0.2934
     21 C          -5.8420  -19.5338   20.6812 C.3     1  UNL1        0.0748
     22 C          -4.9194  -19.0521   19.6011 C.3     1  UNL1        0.0432
     23 H          -5.9733  -19.0247   22.6555 H       1  UNL1        0.1236
     24 C          -9.5532  -18.9302   19.6832 C.3     1  UNL1        0.0725
     25 C         -10.7310  -18.0602   20.0089 C.3     1  UNL1        0.0187
     26 C         -10.8751  -16.7176   19.3557 C.3     1  UNL1        0.0185
     27 C         -12.0528  -15.8477   19.6815 C.3     1  UNL1        0.0686
     28 N         -13.0864  -16.3203   20.6604 N.3     1  UNL1       -0.2975
     29 C         -12.9423  -17.6628   21.3135 C.3     1  UNL1        0.0686
     30 C         -11.7646  -18.5328   20.9878 C.3     1  UNL1        0.0185
     31 H         -13.9786  -16.3276   20.1660 H       1  UNL1        0.1232
@<TRIPOS>BOND
     1    13    14   ar
     2    14    15   ar
     3    15    16   ar
     4    16    17   ar
     5    17    18   ar
     6    17    19    1
     7    19    20    1
     8    20    21    1
     9    21    12    1
    10    12     1    1
    11     1    24    1
    12    24    25    1
    13    25    26    1
    14    26    27    1
    15    27    28    1
    16    28    29    1
    17    29    30    1
    18     2     1    1
    19     2     3    1
    20     3     4    1
    21     4     5    1
    22     5     6    1
    23     6     7   ar
    24     7     8   ar
    25     8     9   ar
    26     9    10   ar
    27    10    11   ar
    28    21    22    1
    29    18    13   ar
    30    30    25    1
    31    11     2    1
    32    22    16    1
    33    11     6   ar
    34    20    23    1
    35    28    31    1
@<TRIPOS>MOLECULE
*****
 31 35 0 0 0
SMALL
GASTEIGER

@<TRIPOS>ATOM
      1 N          -5.8300  -18.1515   22.3687 N.3     1  UNL1       -0.2679
      2 C          -4.8964  -18.8214   21.4046 C.3     1  UNL1        0.0978
      3 C          -5.3023  -20.0996   20.7328 C.3     1  UNL1        0.0224
      4 C          -4.3686  -20.7695   19.7686 C.3     1  UNL1        0.0065
      5 C          -3.0291  -20.1610   19.4762 C.3     1  UNL1        0.0277
      6 C          -2.6232  -18.8828   20.1479 C.ar    1  UNL1       -0.0073
      7 C          -1.2838  -18.2743   19.8555 C.ar    1  UNL1       -0.0015
      8 C          -0.8779  -16.9960   20.5273 C.ar    1  UNL1        0.0203
      9 C          -1.8115  -16.3262   21.4914 C.ar    1  UNL1        0.0985
     10 N          -3.1510  -16.9346   21.7838 N.ar    1  UNL1       -0.2471
     11 C          -3.5568  -18.2129   21.1121 C.ar    1  UNL1        0.0695
     12 C          -6.9426  -18.9336   23.0016 C.3     1  UNL1        0.0886
     13 C         -13.7150  -17.8042   22.6722 C.ar    1  UNL1       -0.0003
     14 C         -13.3561  -18.2348   24.0635 C.ar    1  UNL1       -0.0003
     15 C         -11.9299  -18.5468   24.4076 C.ar    1  UNL1       -0.0045
     16 C         -10.8625  -18.4282   23.3605 C.ar    1  UNL1       -0.0234
     17 C         -11.2214  -17.9976   21.9692 C.ar    1  UNL1       -0.0103
     18 C         -12.6476  -17.6855   21.6250 C.ar    1  UNL1       -0.0032
     19 C         -10.1539  -17.8789   20.9220 C.3     1  UNL1        0.0953
     20 N          -8.7277  -18.1910   21.2661 N.3     1  UNL1       -0.2934
     21 C          -8.3688  -18.6216   22.6575 C.3     1  UNL1        0.0748
     22 C          -9.4362  -18.7402   23.7046 C.3     1  UNL1        0.0432
     23 H          -8.1864  -17.3490   21.0696 H       1  UNL1        0.1236
     24 C          -5.6511  -16.6995   22.7001 C.3     1  UNL1        0.0725
     25 C          -6.2075  -16.1481   23.9793 C.3     1  UNL1        0.0187
     26 C          -5.3270  -16.0209   25.1869 C.3     1  UNL1        0.0185
     27 C          -5.8835  -15.4695   26.4661 C.3     1  UNL1        0.0686
     28 N          -7.3204  -15.0452   26.5375 N.3     1  UNL1       -0.2975
     29 C          -8.2009  -15.1723   25.3299 C.3     1  UNL1        0.0686
     30 C          -7.6445  -15.7238   24.0507 C.3     1  UNL1        0.0185
     31 H          -7.3238  -14.0601   26.8019 H       1  UNL1        0.1232
@<TRIPOS>BOND
     1    13    14   ar
     2    14    15   ar
     3    15    16   ar
     4    16    17   ar
     5    17    18   ar
     6    17    19    1
     7    19    20    1
     8    20    21    1
     9    21    12    1
    10    12     1    1
    11     1    24    1
    12    24    25    1
    13    25    26    1
    14    26    27    1
    15    27    28    1
    16    28    29    1
    17    29    30    1
    18     2     1    1
    19     2     3    1
    20     3     4    1
    21     4     5    1
    22     5     6    1
    23     6     7   ar
    24     7     8   ar
    25     8     9   ar
    26     9    10   ar
    27    10    11   ar
    28    21    22    1
    29    18    13   ar
    30    30    25    1
    31    11     2    1
    32    22    16    1
    33    11     6   ar
    34    20    23    1
    35    28    31    1
@<TRIPOS>MOLECULE
*****
 31 35 0 0 0
SMALL
GASTEIGER

@<TRIPOS>ATOM
      1 N          -6.2564  -16.8129   22.9972 N.3     1  UNL1       -0.2679
      2 C          -5.9897  -18.1104   22.2934 C.3     1  UNL1        0.0978
      3 C          -7.0975  -19.1046   22.1081 C.3     1  UNL1        0.0224
      4 C          -6.8308  -20.4021   21.4042 C.3     1  UNL1        0.0065
      5 C          -5.4564  -20.7053   20.8856 C.3     1  UNL1        0.0277
      6 C          -4.3486  -19.7111   21.0709 C.ar    1  UNL1       -0.0073
      7 C          -2.9742  -20.0143   20.5523 C.ar    1  UNL1       -0.0015
      8 C          -1.8664  -19.0201   20.7376 C.ar    1  UNL1        0.0203
      9 C          -2.1331  -17.7226   21.4414 C.ar    1  UNL1        0.0985
     10 N          -3.5075  -17.4194   21.9600 N.ar    1  UNL1       -0.2471
     11 C          -4.6153  -18.4136   21.7748 C.ar    1  UNL1        0.0695
     12 C          -7.2480  -15.8413   22.4290 C.3     1  UNL1        0.0886
     13 C         -13.6549  -18.0865   23.5067 C.ar    1  UNL1       -0.0003
     14 C         -12.7462  -18.6791   24.5425 C.ar    1  UNL1       -0.0003
     15 C         -11.2831  -18.3486   24.5341 C.ar    1  UNL1       -0.0045
     16 C         -10.7286  -17.4255   23.4899 C.ar    1  UNL1       -0.0234
     17 C         -11.6374  -16.8328   22.4541 C.ar    1  UNL1       -0.0103
     18 C         -13.1005  -17.1633   22.4625 C.ar    1  UNL1       -0.0032
     19 C         -11.0830  -15.9096   21.4098 C.3     1  UNL1        0.0953
     20 N          -9.6199  -15.5791   21.4015 N.3     1  UNL1       -0.2934
     21 C          -8.7111  -16.1718   22.4374 C.3     1  UNL1        0.0748
     22 C          -9.2655  -17.0950   23.4816 C.3     1  UNL1        0.0432
     23 H          -9.5464  -14.5657   21.4905 H       1  UNL1        0.1236
     24 C          -5.5315  -16.4869   24.2693 C.3     1  UNL1        0.0725
     25 C          -6.2762  -15.8845   25.4237 C.3     1  UNL1        0.0187
     26 C          -7.6926  -16.2947   25.6986 C.3     1  UNL1        0.0185
     27 C          -8.4372  -15.6923   26.8529 C.3     1  UNL1        0.0686
     28 N          -7.7655  -14.6798   27.7324 N.3     1  UNL1       -0.2975
     29 C          -6.3491  -14.2696   27.4576 C.3     1  UNL1        0.0686
     30 C          -5.6045  -14.8720   26.3032 C.3     1  UNL1        0.0185
     31 H          -7.7847  -15.0546   28.6809 H       1  UNL1        0.1232
@<TRIPOS>BOND
     1    13    14   ar
     2    14    15   ar
     3    15    16   ar
     4    16    17   ar
     5    17    18   ar
     6    17    19    1
     7    19    20    1
     8    20    21    1
     9    21    12    1
    10    12     1    1
    11     1    24    1
    12    24    25    1
    13    25    26    1
    14    26    27    1
    15    27    28    1
    16    28    29    1
    17    29    30    1
    18     2     1    1
    19     2     3    1
    20     3     4    1
    21     4     5    1
    22     5     6    1
    23     6     7   ar
    24     7     8   ar
    25     8     9   ar
    26     9    10   ar
    27    10    11   ar
    28    21    22    1
    29    18    13   ar
    30    30    25    1
    31    11     2    1
    32    22    16    1
    33    11     6   ar
    34    20    23    1
    35    28    31    1
