@<TRIPOS>MOLECULE
*****
 28 32 0 0 0
SMALL
GASTEIGER

@<TRIPOS>ATOM
      1 C         -15.6814   -2.0822   19.5412 C.3     1  UNL1        0.0581
      2 C         -16.8575   -3.0093   19.6259 C.3     1  UNL1        0.0163
      3 C         -16.3500   -4.4148   19.4963 C.3     1  UNL1        0.0059
      4 C         -14.8602   -4.3564   19.3315 C.3     1  UNL1        0.0273
      5 C         -13.4032   -4.0316   19.1842 C.3     1  UNL1        0.0336
      6 C         -12.2486   -4.9724   19.0057 C.ar    1  UNL1        0.0127
      7 C         -10.9492   -4.2310   18.8975 C.ar    1  UNL1       -0.0012
      8 C          -9.6671   -4.9876   18.7141 C.ar    1  UNL1       -0.0001
      9 C          -9.6844   -6.4856   18.6389 C.ar    1  UNL1        0.0031
     10 C         -10.9838   -7.2270   18.7471 C.ar    1  UNL1        0.0372
     11 C         -12.2659   -6.4705   18.9304 C.ar    1  UNL1        0.1413
     12 O         -13.4421   -7.3976   19.0152 O.3     1  UNL1       -0.4541
     13 C         -14.8914   -7.0558   19.1960 C.ar    1  UNL1        0.1412
     14 C         -15.7453   -8.2885   19.2287 C.ar    1  UNL1        0.0372
     15 C         -17.2303   -8.1678   19.4022 C.ar    1  UNL1        0.0031
     16 C         -17.8614   -6.8144   19.5430 C.ar    1  UNL1       -0.0001
     17 C         -17.0075   -5.5816   19.5103 C.ar    1  UNL1       -0.0013
     18 C         -15.5225   -5.7023   19.3368 C.ar    1  UNL1        0.0121
     19 C         -14.4470   -2.9147   19.3592 C.3     1  UNL1        0.0204
     20 C         -15.8302    2.4085   19.7892 C.2     1  UNL1       -0.0097
     21 C         -16.8135    1.5817   20.5634 C.2     1  UNL1       -0.0119
     22 C         -16.7639    0.0847   20.4807 C.3     1  UNL1        0.0986
     23 N         -15.7310   -0.5853   19.6239 N.3     1  UNL1       -0.2700
     24 C         -14.7477    0.2417   18.8497 C.3     1  UNL1        0.0771
     25 C         -14.7973    1.7385   18.9324 C.3     1  UNL1        0.0445
     26 O         -14.8123    4.6512   20.6164 O.co2   1  UNL1       -0.5449
     27 C         -15.8798    3.9054   19.8719 C.2     1  UNL1        0.0687
     28 O         -16.9969    4.6566   19.2102 O.co2   1  UNL1       -0.5449
@<TRIPOS>UNITY_ATOM_ATTR
26 1
charge -1
@<TRIPOS>BOND
     1    26    27   ar
     2    27    28   ar
     3    27    20    1
     4    20    21    2
     5    21    22    1
     6    22    23    1
     7    23     1    1
     8     1     2    1
     9     2     3    1
    10     3     4    1
    11     4     5    1
    12     5     6    1
    13     6     7   ar
    14     7     8   ar
    15     8     9   ar
    16     9    10   ar
    17    10    11   ar
    18    11    12    1
    19    12    13    1
    20    13    14   ar
    21    14    15   ar
    22    15    16   ar
    23    16    17   ar
    24    17    18   ar
    25     4    19    1
    26    23    24    1
    27    24    25    1
    28    25    20    1
    29    19     1    1
    30    18     4    1
    31    11     6   ar
    32    18    13   ar
@<TRIPOS>MOLECULE
*****
 28 32 0 0 0
SMALL
GASTEIGER

@<TRIPOS>ATOM
      1 C         -14.0146   -1.9626   19.2199 C.3     1  UNL1        0.0581
      2 C         -12.5288   -2.1532   19.1430 C.3     1  UNL1        0.0163
      3 C         -12.2536   -3.6256   19.0649 C.3     1  UNL1        0.0059
      4 C         -13.5695   -4.3451   19.0936 C.3     1  UNL1        0.0273
      5 C         -14.9921   -4.8185   19.1382 C.3     1  UNL1        0.0336
      6 C         -15.5115   -6.2252   19.0996 C.ar    1  UNL1        0.0127
      7 C         -17.0096   -6.2583   19.1672 C.ar    1  UNL1       -0.0012
      8 C         -17.7325   -7.5723   19.1422 C.ar    1  UNL1       -0.0001
      9 C         -16.9574   -8.8532   19.0496 C.ar    1  UNL1        0.0031
     10 C         -15.4594   -8.8200   18.9820 C.ar    1  UNL1        0.0372
     11 C         -14.7364   -7.5060   19.0071 C.ar    1  UNL1        0.1413
     12 O         -13.2505   -7.6965   18.9302 O.3     1  UNL1       -0.4541
     13 C         -12.1727   -6.6532   18.9268 C.ar    1  UNL1        0.1412
     14 C         -10.8099   -7.2733   18.8365 C.ar    1  UNL1        0.0372
     15 C          -9.5891   -6.4020   18.8189 C.ar    1  UNL1        0.0031
     16 C          -9.7310   -4.9106   18.8917 C.ar    1  UNL1       -0.0001
     17 C         -11.0939   -4.2904   18.9820 C.ar    1  UNL1       -0.0013
     18 C         -12.3147   -5.1617   18.9996 C.ar    1  UNL1        0.0121
     19 C         -14.6578   -3.3174   19.1894 C.3     1  UNL1        0.0204
     20 C         -16.1650    1.9808   19.4940 C.2     1  UNL1       -0.0097
     21 C         -16.7152    0.7760   20.1982 C.2     1  UNL1       -0.0119
     22 C         -15.9984   -0.5385   20.1068 C.3     1  UNL1        0.0986
     23 N         -14.7314   -0.6482   19.3113 N.3     1  UNL1       -0.2700
     24 C         -14.1812    0.5567   18.6071 C.3     1  UNL1        0.0771
     25 C         -14.8980    1.8711   18.6985 C.3     1  UNL1        0.0445
     26 O         -17.9604    3.4918   20.6091 O.co2   1  UNL1       -0.5449
     27 C         -16.8818    3.2953   19.5854 C.2     1  UNL1        0.0687
     28 O         -16.5200    4.4133   18.6531 O.co2   1  UNL1       -0.5449
@<TRIPOS>UNITY_ATOM_ATTR
26 1
charge -1
@<TRIPOS>BOND
     1    26    27   ar
     2    27    28   ar
     3    27    20    1
     4    20    21    2
     5    21    22    1
     6    22    23    1
     7    23     1    1
     8     1     2    1
     9     2     3    1
    10     3     4    1
    11     4     5    1
    12     5     6    1
    13     6     7   ar
    14     7     8   ar
    15     8     9   ar
    16     9    10   ar
    17    10    11   ar
    18    11    12    1
    19    12    13    1
    20    13    14   ar
    21    14    15   ar
    22    15    16   ar
    23    16    17   ar
    24    17    18   ar
    25     4    19    1
    26    23    24    1
    27    24    25    1
    28    25    20    1
    29    19     1    1
    30    18     4    1
    31    11     6   ar
    32    18    13   ar
@<TRIPOS>MOLECULE
*****
 28 32 0 0 0
SMALL
GASTEIGER

@<TRIPOS>ATOM
      1 C           7.1878   -4.8119   23.6412 C.3     1  UNL1        0.0581
      2 C           7.9362   -6.0992   23.8217 C.3     1  UNL1        0.0163
      3 C           8.1169   -6.3280   25.2930 C.3     1  UNL1        0.0059
      4 C           7.4801   -5.1820   26.0219 C.3     1  UNL1        0.0273
      5 C           6.7827   -3.9451   26.5052 C.3     1  UNL1        0.0336
      6 C           6.5643   -3.4852   27.9162 C.ar    1  UNL1        0.0127
      7 C           5.8163   -2.1858   27.9596 C.ar    1  UNL1       -0.0012
      8 C           5.4934   -1.5501   29.2792 C.ar    1  UNL1       -0.0001
      9 C           5.9184   -2.2137   30.5555 C.ar    1  UNL1        0.0031
     10 C           6.6665   -3.5131   30.5121 C.ar    1  UNL1        0.0372
     11 C           6.9894   -4.1489   29.1925 C.ar    1  UNL1        0.1413
     12 O           7.7379   -5.4363   29.3729 O.3     1  UNL1       -0.4541
     13 C           8.2461   -6.3779   28.3218 C.ar    1  UNL1        0.1412
     14 C           8.9457   -7.5557   28.9329 C.ar    1  UNL1        0.0372
     15 C           9.5305   -8.6202   28.0528 C.ar    1  UNL1        0.0031
     16 C           9.4158   -8.5071   26.5615 C.ar    1  UNL1       -0.0001
     17 C           8.7162   -7.3293   25.9503 C.ar    1  UNL1       -0.0013
     18 C           8.1314   -6.2647   26.8304 C.ar    1  UNL1        0.0121
     19 C           6.9059   -4.2450   25.0011 C.3     1  UNL1        0.0204
     20 C           5.9970   -2.9734   19.7103 C.2     1  UNL1       -0.0097
     21 C           7.4305   -3.3334   19.9662 C.2     1  UNL1       -0.0119
     22 C           7.8274   -3.9463   21.2765 C.3     1  UNL1        0.0986
     23 N           6.7908   -4.1991   22.3309 N.3     1  UNL1       -0.2700
     24 C           5.3573   -3.8390   22.0749 C.3     1  UNL1        0.0771
     25 C           4.9604   -3.2262   20.7647 C.3     1  UNL1        0.0445
     26 O           4.1628   -2.0230   18.1347 O.co2   1  UNL1       -0.5449
     27 C           5.6001   -2.3605   18.4000 C.2     1  UNL1        0.0687
     28 O           6.6403   -2.0852   17.3551 O.co2   1  UNL1       -0.5449
@<TRIPOS>UNITY_ATOM_ATTR
26 1
charge -1
@<TRIPOS>BOND
     1    26    27   ar
     2    27    28   ar
     3    27    20    1
     4    20    21    2
     5    21    22    1
     6    22    23    1
     7    23     1    1
     8     1     2    1
     9     2     3    1
    10     3     4    1
    11     4     5    1
    12     5     6    1
    13     6     7   ar
    14     7     8   ar
    15     8     9   ar
    16     9    10   ar
    17    10    11   ar
    18    11    12    1
    19    12    13    1
    20    13    14   ar
    21    14    15   ar
    22    15    16   ar
    23    16    17   ar
    24    17    18   ar
    25     4    19    1
    26    23    24    1
    27    24    25    1
    28    25    20    1
    29    19     1    1
    30    18     4    1
    31    11     6   ar
    32    18    13   ar
@<TRIPOS>MOLECULE
*****
 28 32 0 0 0
SMALL
GASTEIGER

@<TRIPOS>ATOM
      1 C           1.4226    0.9429   24.6093 C.3     1  UNL1        0.0581
      2 C           0.6977    1.8444   23.6545 C.3     1  UNL1        0.0163
      3 C           1.0560    1.4261   22.2594 C.3     1  UNL1        0.0059
      4 C           2.0024    0.2660   22.3519 C.3     1  UNL1        0.0273
      5 C           2.9212   -0.8642   22.7102 C.3     1  UNL1        0.0336
      6 C           3.6795   -1.7793   21.7950 C.ar    1  UNL1        0.0127
      7 C           4.4876   -2.7799   22.5667 C.ar    1  UNL1       -0.0012
      8 C           5.3224   -3.7914   21.8388 C.ar    1  UNL1       -0.0001
      9 C           5.3491   -3.8022   20.3391 C.ar    1  UNL1        0.0031
     10 C           4.5410   -2.8016   19.5673 C.ar    1  UNL1        0.0372
     11 C           3.7062   -1.7901   20.2953 C.ar    1  UNL1        0.1413
     12 O           2.9813   -0.8885   19.3405 O.3     1  UNL1       -0.4541
     13 C           2.0505    0.2465   19.6494 C.ar    1  UNL1        0.1412
     14 C           1.5383    0.8920   18.3961 C.ar    1  UNL1        0.0372
     15 C           0.5904    2.0512   18.4830 C.ar    1  UNL1        0.0031
     16 C           0.1547    2.5650   19.8232 C.ar    1  UNL1       -0.0001
     17 C           0.6670    1.9196   21.0766 C.ar    1  UNL1       -0.0013
     18 C           1.6149    0.7603   20.9897 C.ar    1  UNL1        0.0121
     19 C           2.2290   -0.0326   23.8043 C.3     1  UNL1        0.0204
     20 C           1.2149    1.1318   29.1006 C.2     1  UNL1       -0.0097
     21 C           2.4919    0.7281   28.4252 C.2     1  UNL1       -0.0119
     22 C           2.5612    0.6651   26.9281 C.3     1  UNL1        0.0986
     23 N           1.3534    1.0059   26.1064 N.3     1  UNL1       -0.2700
     24 C           0.0763    1.4095   26.7819 C.3     1  UNL1        0.0771
     25 C           0.0071    1.4725   28.2789 C.3     1  UNL1        0.0445
     26 O           2.2196    0.5536   31.4258 O.co2   1  UNL1       -0.5449
     27 C           1.1456    1.1947   30.5977 C.2     1  UNL1        0.0687
     28 O           0.0025    1.8987   31.2667 O.co2   1  UNL1       -0.5449
@<TRIPOS>UNITY_ATOM_ATTR
26 1
charge -1
@<TRIPOS>BOND
     1    26    27   ar
     2    27    28   ar
     3    27    20    1
     4    20    21    2
     5    21    22    1
     6    22    23    1
     7    23     1    1
     8     1     2    1
     9     2     3    1
    10     3     4    1
    11     4     5    1
    12     5     6    1
    13     6     7   ar
    14     7     8   ar
    15     8     9   ar
    16     9    10   ar
    17    10    11   ar
    18    11    12    1
    19    12    13    1
    20    13    14   ar
    21    14    15   ar
    22    15    16   ar
    23    16    17   ar
    24    17    18   ar
    25     4    19    1
    26    23    24    1
    27    24    25    1
    28    25    20    1
    29    19     1    1
    30    18     4    1
    31    11     6   ar
    32    18    13   ar
@<TRIPOS>MOLECULE
*****
 28 32 0 0 0
SMALL
GASTEIGER

@<TRIPOS>ATOM
      1 C           1.1562    0.9998   20.1820 C.3     1  UNL1        0.0581
      2 C           0.3057    1.8983   19.3340 C.3     1  UNL1        0.0163
      3 C          -0.5817    2.6927   20.2457 C.3     1  UNL1        0.0059
      4 C          -0.2797    2.2850   21.6573 C.3     1  UNL1        0.0273
      5 C           0.2015    1.7111   22.9570 C.3     1  UNL1        0.0336
      6 C          -0.2495    2.0408   24.3491 C.ar    1  UNL1        0.0127
      7 C           0.4936    1.2332   25.3716 C.ar    1  UNL1       -0.0012
      8 C           0.1929    1.4106   26.8304 C.ar    1  UNL1       -0.0001
      9 C          -0.8509    2.3956   27.2666 C.ar    1  UNL1        0.0031
     10 C          -1.5940    3.2032   26.2441 C.ar    1  UNL1        0.0372
     11 C          -1.2933    3.0258   24.7853 C.ar    1  UNL1        0.1413
     12 O          -2.1437    3.9244   23.9372 O.3     1  UNL1       -0.4541
     13 C          -2.1606    4.0600   22.4435 C.ar    1  UNL1        0.1412
     14 C          -3.1668    5.0787   21.9969 C.ar    1  UNL1        0.0372
     15 C          -3.3435    5.3679   20.5357 C.ar    1  UNL1        0.0031
     16 C          -2.5140    4.6384   19.5211 C.ar    1  UNL1       -0.0001
     17 C          -1.5077    3.6195   19.9676 C.ar    1  UNL1       -0.0013
     18 C          -1.3309    3.3303   21.4288 C.ar    1  UNL1        0.0121
     19 C           0.7944    1.2387   21.6180 C.3     1  UNL1        0.0204
     20 C           4.2500   -1.9033   18.6817 C.2     1  UNL1       -0.0097
     21 C           3.8544   -0.7270   17.8393 C.2     1  UNL1       -0.0119
     22 C           2.8231    0.2407   18.3394 C.3     1  UNL1        0.0986
     23 N           2.1874    0.0321   19.6819 N.3     1  UNL1       -0.2700
     24 C           2.5831   -1.1444   20.5244 C.3     1  UNL1        0.0771
     25 C           3.6143   -2.1120   20.0243 C.3     1  UNL1        0.0445
     26 O           6.4789   -2.3692   17.4308 O.co2   1  UNL1       -0.5449
     27 C           5.2812   -2.8710   18.1816 C.2     1  UNL1        0.0687
     28 O           5.1149   -4.3405   18.4324 O.co2   1  UNL1       -0.5449
@<TRIPOS>UNITY_ATOM_ATTR
26 1
charge -1
@<TRIPOS>BOND
     1    26    27   ar
     2    27    28   ar
     3    27    20    1
     4    20    21    2
     5    21    22    1
     6    22    23    1
     7    23     1    1
     8     1     2    1
     9     2     3    1
    10     3     4    1
    11     4     5    1
    12     5     6    1
    13     6     7   ar
    14     7     8   ar
    15     8     9   ar
    16     9    10   ar
    17    10    11   ar
    18    11    12    1
    19    12    13    1
    20    13    14   ar
    21    14    15   ar
    22    15    16   ar
    23    16    17   ar
    24    17    18   ar
    25     4    19    1
    26    23    24    1
    27    24    25    1
    28    25    20    1
    29    19     1    1
    30    18     4    1
    31    11     6   ar
    32    18    13   ar
@<TRIPOS>MOLECULE
*****
 28 32 0 0 0
SMALL
GASTEIGER

@<TRIPOS>ATOM
      1 C           2.7865   -0.3832   23.8117 C.3     1  UNL1        0.0581
      2 C           2.5229   -0.4840   22.3385 C.3     1  UNL1        0.0163
      3 C           3.4454   -1.5224   21.7725 C.3     1  UNL1        0.0059
      4 C           4.2792   -2.0635   22.8959 C.3     1  UNL1        0.0273
      5 C           4.9748   -2.4323   24.1726 C.3     1  UNL1        0.0336
      6 C           6.0627   -3.4425   24.3870 C.ar    1  UNL1        0.0127
      7 C           6.4808   -3.5007   25.8263 C.ar    1  UNL1       -0.0012
      8 C           7.5598   -4.4499   26.2561 C.ar    1  UNL1       -0.0001
      9 C           8.2208   -5.3409   25.2465 C.ar    1  UNL1        0.0031
     10 C           7.8027   -5.2827   23.8072 C.ar    1  UNL1        0.0372
     11 C           6.7237   -4.3335   23.3774 C.ar    1  UNL1        0.1413
     12 O           6.4600   -4.4343   21.9042 O.3     1  UNL1       -0.4541
     13 C           5.4703   -3.6690   21.0766 C.ar    1  UNL1        0.1412
     14 C           5.5295   -4.0775   19.6346 C.ar    1  UNL1        0.0372
     15 C           4.6182   -3.4309   18.6339 C.ar    1  UNL1        0.0031
     16 C           3.6477   -2.3759   19.0752 C.ar    1  UNL1       -0.0001
     17 C           3.5884   -1.9673   20.5173 C.ar    1  UNL1       -0.0013
     18 C           4.4997   -2.6139   21.5180 C.ar    1  UNL1        0.0121
     19 C           3.8720   -1.3594   24.1562 C.3     1  UNL1        0.0204
     20 C           0.6892    2.3654   26.6921 C.2     1  UNL1       -0.0097
     21 C           2.0835    1.8955   26.9840 C.2     1  UNL1       -0.0119
     22 C           2.7826    0.9794   26.0239 C.3     1  UNL1        0.0986
     23 N           2.0874    0.5330   24.7718 N.3     1  UNL1       -0.2700
     24 C           0.6931    1.0029   24.4800 C.3     1  UNL1        0.0771
     25 C          -0.0060    1.9190   25.4401 C.3     1  UNL1        0.0445
     26 O          -1.1676    4.1139   27.1867 O.co2   1  UNL1       -0.5449
     27 C          -0.0099    3.2815   27.6523 C.2     1  UNL1        0.0687
     28 O           0.4487    3.3654   29.0779 O.co2   1  UNL1       -0.5449
@<TRIPOS>UNITY_ATOM_ATTR
26 1
charge -1
@<TRIPOS>BOND
     1    26    27   ar
     2    27    28   ar
     3    27    20    1
     4    20    21    2
     5    21    22    1
     6    22    23    1
     7    23     1    1
     8     1     2    1
     9     2     3    1
    10     3     4    1
    11     4     5    1
    12     5     6    1
    13     6     7   ar
    14     7     8   ar
    15     8     9   ar
    16     9    10   ar
    17    10    11   ar
    18    11    12    1
    19    12    13    1
    20    13    14   ar
    21    14    15   ar
    22    15    16   ar
    23    16    17   ar
    24    17    18   ar
    25     4    19    1
    26    23    24    1
    27    24    25    1
    28    25    20    1
    29    19     1    1
    30    18     4    1
    31    11     6   ar
    32    18    13   ar
@<TRIPOS>MOLECULE
*****
 28 32 0 0 0
SMALL
GASTEIGER

@<TRIPOS>ATOM
      1 C           4.1061   -1.5369   25.0017 C.3     1  UNL1        0.0581
      2 C           4.8715   -2.5333   24.1823 C.3     1  UNL1        0.0163
      3 C           4.4539   -2.3744   22.7505 C.3     1  UNL1        0.0059
      4 C           3.4304   -1.2797   22.6849 C.3     1  UNL1        0.0273
      5 C           2.4424   -0.1690   22.8854 C.3     1  UNL1        0.0336
      6 C           1.6015    0.5313   21.8594 C.ar    1  UNL1        0.0127
      7 C           0.7423    1.5898   22.4850 C.ar    1  UNL1       -0.0012
      8 C          -0.1776    2.4107   21.6307 C.ar    1  UNL1       -0.0001
      9 C          -0.2381    2.1732   20.1508 C.ar    1  UNL1        0.0031
     10 C           0.6211    1.1148   19.5253 C.ar    1  UNL1        0.0372
     11 C           1.5410    0.2939   20.3796 C.ar    1  UNL1        0.1413
     12 O           2.3064   -0.7026   19.5602 O.3     1  UNL1       -0.4541
     13 C           3.3213   -1.7076   20.0182 C.ar    1  UNL1        0.1412
     14 C           3.8499   -2.5151   18.8700 C.ar    1  UNL1        0.0372
     15 C           4.8788   -3.5794   19.1123 C.ar    1  UNL1        0.0031
     16 C           5.3790   -3.8362   20.5029 C.ar    1  UNL1       -0.0001
     17 C           4.8504   -3.0287   21.6512 C.ar    1  UNL1       -0.0013
     18 C           3.8215   -1.9644   21.4089 C.ar    1  UNL1        0.0121
     19 C           3.2155   -0.7621   24.0762 C.3     1  UNL1        0.0204
     20 C           4.4259   -0.9712   29.4546 C.2     1  UNL1       -0.0097
     21 C           5.5021   -1.7073   28.7129 C.2     1  UNL1       -0.0119
     22 C           5.3955   -1.8958   27.2286 C.3     1  UNL1        0.0986
     23 N           4.2127   -1.3483   26.4860 N.3     1  UNL1       -0.2700
     24 C           3.1366   -0.6123   27.2278 C.3     1  UNL1        0.0771
     25 C           3.2431   -0.4237   28.7120 C.3     1  UNL1        0.0445
     26 O           5.7428   -0.1186   31.5255 O.co2   1  UNL1       -0.5449
     27 C           4.5325   -0.7827   30.9388 C.2     1  UNL1        0.0687
     28 O           3.4288   -1.2582   31.8365 O.co2   1  UNL1       -0.5449
@<TRIPOS>UNITY_ATOM_ATTR
26 1
charge -1
@<TRIPOS>BOND
     1    26    27   ar
     2    27    28   ar
     3    27    20    1
     4    20    21    2
     5    21    22    1
     6    22    23    1
     7    23     1    1
     8     1     2    1
     9     2     3    1
    10     3     4    1
    11     4     5    1
    12     5     6    1
    13     6     7   ar
    14     7     8   ar
    15     8     9   ar
    16     9    10   ar
    17    10    11   ar
    18    11    12    1
    19    12    13    1
    20    13    14   ar
    21    14    15   ar
    22    15    16   ar
    23    16    17   ar
    24    17    18   ar
    25     4    19    1
    26    23    24    1
    27    24    25    1
    28    25    20    1
    29    19     1    1
    30    18     4    1
    31    11     6   ar
    32    18    13   ar
@<TRIPOS>MOLECULE
*****
 28 32 0 0 0
SMALL
GASTEIGER

@<TRIPOS>ATOM
      1 C          -4.6476  -16.8926   22.9818 C.3     1  UNL1        0.0581
      2 C          -4.4848  -16.1749   24.2888 C.3     1  UNL1        0.0163
      3 C          -5.8404  -16.0425   24.9169 C.3     1  UNL1        0.0059
      4 C          -6.8411  -16.6785   23.9981 C.3     1  UNL1        0.0273
      5 C          -7.6292  -17.3659   22.9229 C.3     1  UNL1        0.0336
      6 C          -9.1068  -17.6174   22.8619 C.ar    1  UNL1        0.0127
      7 C          -9.4881  -18.3411   21.6046 C.ar    1  UNL1       -0.0012
      8 C         -10.9237  -18.6908   21.3466 C.ar    1  UNL1       -0.0001
      9 C         -11.9780  -18.3169   22.3459 C.ar    1  UNL1        0.0031
     10 C         -11.5967  -17.5932   23.6032 C.ar    1  UNL1        0.0372
     11 C         -10.1611  -17.2434   23.8612 C.ar    1  UNL1        0.1413
     12 O          -9.9982  -16.5257   25.1682 O.3     1  UNL1       -0.4541
     13 C          -8.7409  -16.0047   25.7988 C.ar    1  UNL1        0.1412
     14 C          -9.0211  -15.3466   27.1173 C.ar    1  UNL1        0.0372
     15 C          -7.8962  -14.7565   27.9150 C.ar    1  UNL1        0.0031
     16 C          -6.4912  -14.8244   27.3943 C.ar    1  UNL1       -0.0001
     17 C          -6.2110  -15.4826   26.0758 C.ar    1  UNL1       -0.0013
     18 C          -7.3359  -16.0727   25.2781 C.ar    1  UNL1        0.0121
     19 C          -6.1039  -17.2038   22.8021 C.3     1  UNL1        0.0204
     20 C          -1.3466  -17.9298   20.1047 C.2     1  UNL1       -0.0097
     21 C          -1.3204  -16.6202   20.8356 C.2     1  UNL1       -0.0119
     22 C          -2.4207  -16.2744   21.7946 C.3     1  UNL1        0.0986
     23 N          -3.5472  -17.2383   22.0227 N.3     1  UNL1       -0.2700
     24 C          -3.5733  -18.5480   21.2918 C.3     1  UNL1        0.0771
     25 C          -2.4731  -18.8937   20.3328 C.3     1  UNL1        0.0445
     26 O           0.9448  -19.0544   19.6199 O.co2   1  UNL1       -0.5449
     27 C          -0.2462  -18.2756   19.1456 C.2     1  UNL1        0.0687
     28 O          -0.3369  -17.8425   17.7124 O.co2   1  UNL1       -0.5449
@<TRIPOS>UNITY_ATOM_ATTR
26 1
charge -1
@<TRIPOS>BOND
     1    26    27   ar
     2    27    28   ar
     3    27    20    1
     4    20    21    2
     5    21    22    1
     6    22    23    1
     7    23     1    1
     8     1     2    1
     9     2     3    1
    10     3     4    1
    11     4     5    1
    12     5     6    1
    13     6     7   ar
    14     7     8   ar
    15     8     9   ar
    16     9    10   ar
    17    10    11   ar
    18    11    12    1
    19    12    13    1
    20    13    14   ar
    21    14    15   ar
    22    15    16   ar
    23    16    17   ar
    24    17    18   ar
    25     4    19    1
    26    23    24    1
    27    24    25    1
    28    25    20    1
    29    19     1    1
    30    18     4    1
    31    11     6   ar
    32    18    13   ar
@<TRIPOS>MOLECULE
*****
 28 32 0 0 0
SMALL
GASTEIGER

@<TRIPOS>ATOM
      1 C         -14.4985   -5.3221   17.9818 C.3     1  UNL1        0.0581
      2 C         -13.1413   -5.0922   17.3860 C.3     1  UNL1        0.0163
      3 C         -12.8451   -3.6237   17.4604 C.3     1  UNL1        0.0059
      4 C         -14.0193   -2.9460   18.1023 C.3     1  UNL1        0.0273
      5 C         -15.2983   -2.5155   18.7571 C.3     1  UNL1        0.0336
      6 C         -15.7267   -1.1340   19.1547 C.ar    1  UNL1        0.0127
      7 C         -17.0881   -1.1423   19.7844 C.ar    1  UNL1       -0.0012
      8 C         -17.7045    0.1415   20.2552 C.ar    1  UNL1       -0.0001
      9 C         -16.9595    1.4337   20.0963 C.ar    1  UNL1        0.0031
     10 C         -15.5981    1.4421   19.4666 C.ar    1  UNL1        0.0372
     11 C         -14.9817    0.1582   18.9958 C.ar    1  UNL1        0.1413
     12 O         -13.6244    0.3880   18.4000 O.3     1  UNL1       -0.4541
     13 C         -12.6769   -0.6174   17.8159 C.ar    1  UNL1        0.1412
     14 C         -11.4181    0.0353   17.3267 C.ar    1  UNL1        0.0372
     15 C         -10.3351   -0.7956   16.7051 C.ar    1  UNL1        0.0031
     16 C         -10.5108   -2.2793   16.5726 C.ar    1  UNL1       -0.0001
     17 C         -11.7696   -2.9322   17.0618 C.ar    1  UNL1       -0.0013
     18 C         -12.8526   -2.1012   17.6835 C.ar    1  UNL1        0.0121
     19 C         -15.0412   -3.9956   18.4245 C.3     1  UNL1        0.0204
     20 C         -16.5775   -9.2939   18.3725 C.2     1  UNL1       -0.0097
     21 C         -17.2636   -8.0403   18.8282 C.2     1  UNL1       -0.0119
     22 C         -16.5706   -6.7164   18.6980 C.3     1  UNL1        0.0986
     23 N         -15.1915   -6.6460   18.1120 N.3     1  UNL1       -0.2700
     24 C         -14.5055   -7.8998   17.6563 C.3     1  UNL1        0.0771
     25 C         -15.1984   -9.2236   17.7865 C.3     1  UNL1        0.0445
     26 O         -16.5202  -11.8094   19.0198 O.co2   1  UNL1       -0.5449
     27 C         -17.2705  -10.6179   18.5027 C.2     1  UNL1        0.0687
     28 O         -18.7136  -10.7503   18.1159 O.co2   1  UNL1       -0.5449
@<TRIPOS>UNITY_ATOM_ATTR
26 1
charge -1
@<TRIPOS>BOND
     1    26    27   ar
     2    27    28   ar
     3    27    20    1
     4    20    21    2
     5    21    22    1
     6    22    23    1
     7    23     1    1
     8     1     2    1
     9     2     3    1
    10     3     4    1
    11     4     5    1
    12     5     6    1
    13     6     7   ar
    14     7     8   ar
    15     8     9   ar
    16     9    10   ar
    17    10    11   ar
    18    11    12    1
    19    12    13    1
    20    13    14   ar
    21    14    15   ar
    22    15    16   ar
    23    16    17   ar
    24    17    18   ar
    25     4    19    1
    26    23    24    1
    27    24    25    1
    28    25    20    1
    29    19     1    1
    30    18     4    1
    31    11     6   ar
    32    18    13   ar
