@<TRIPOS>MOLECULE
*****
 39 42 0 0 0
SMALL
GASTEIGER

@<TRIPOS>ATOM
      1 C           0.7159    1.9011   26.8827 C.ar    1  UNL1        0.0053
      2 C          -0.5001    2.3528   26.1295 C.ar    1  UNL1        0.0033
      3 C          -0.5824    2.1478   24.6459 C.ar    1  UNL1        0.0382
      4 C           0.5512    1.4910   23.9155 C.ar    1  UNL1        0.1529
      5 C           1.7672    1.0392   24.6687 C.ar    1  UNL1        0.0881
      6 C           1.8495    1.2443   26.1523 C.ar    1  UNL1        0.0181
      7 N           2.9008    0.3825   23.9382 N.am    1  UNL1       -0.2529
      8 C           2.8185    0.1774   22.4546 C.2     1  UNL1        0.2697
      9 O           3.9521   -0.4794   21.7242 O.2     1  UNL1       -0.2704
     10 C           1.6025    0.6292   21.7014 C.3     1  UNL1        0.2199
     11 C           0.6674    0.8835   20.5564 C.3     1  UNL1        0.0579
     12 O           0.4688    1.2860   22.4318 O.3     1  UNL1       -0.4686
     13 C           0.3381    1.0256   29.2995 C.ar    1  UNL1        0.0645
     14 N           0.4204    1.2305   30.7831 N.ar    1  UNL1       -0.2183
     15 C           0.9630    2.5161   31.3337 C.ar    1  UNL1        0.2145
     16 N           1.0453    2.7211   32.8173 N.pl3   1  UNL1       -0.3274
     17 N           1.4232    3.5966   30.4006 N.ar    1  UNL1       -0.1995
     18 C           1.3408    3.3916   28.9169 C.ar    1  UNL1        0.1293
     19 N           1.8010    4.4721   27.9838 N.pl3   1  UNL1       -0.3425
     20 C           0.7983    2.1061   28.3664 C.ar    1  UNL1        0.0449
     21 H           0.7433    2.0119   33.4297 H       1  UNL1        0.1452
     22 H           1.4014    3.5648   33.1786 H       1  UNL1        0.1452
     23 H           2.1570    5.3159   28.3451 H       1  UNL1        0.1437
     24 H           1.7469    4.3376   27.0100 H       1  UNL1        0.1437
     25 C          -1.6573   -0.5936   28.9162 C.3     1  UNL1        0.0067
     26 C          -0.2045   -0.2600   28.7489 C.3     1  UNL1        0.0460
     27 C           2.4114    0.0607   20.5733 C.ar    1  UNL1        0.0264
     28 C           3.1901    0.9744   19.6741 C.ar    1  UNL1        0.0293
     29 C           3.9990    0.4059   18.5460 C.ar    1  UNL1        0.1422
     30 F           4.7778    1.3197   17.6467 F       1  UNL1       -0.2041
     31 C           4.0292   -1.0761   18.3172 C.ar    1  UNL1        0.0592
     32 C           3.2504   -1.9898   19.2165 C.ar    1  UNL1        0.1422
     33 F           3.2806   -3.4720   18.9876 F       1  UNL1       -0.2041
     34 C           2.4415   -1.4214   20.3445 C.ar    1  UNL1        0.0293
     35 C           4.1168   -0.0693   24.6914 C.3     1  UNL1        0.0995
     36 C           4.2587   -1.5075   25.0933 C.3     1  UNL1        0.0380
     37 C           5.3112   -2.3643   24.4543 C.3     1  UNL1        0.1072
     38 C           4.9616   -3.2324   23.2820 C.1     1  UNL1        0.0732
     39 N           4.6121   -4.1005   22.1098 N.1     1  UNL1       -0.1959
@<TRIPOS>BOND
     1    25    26    1
     2    26    13    1
     3    13    14   ar
     4    14    15   ar
     5    15    16    1
     6    15    17   ar
     7    17    18   ar
     8    18    19    1
     9    18    20   ar
    10    20     1    1
    11     1     2   ar
    12     2     3   ar
    13     3     4   ar
    14     4     5   ar
    15     5     6   ar
    16     5     7    1
    17     7    35    1
    18    35    36    1
    19    36    37    1
    20    37    38    1
    21    38    39    3
    22     7     8   am
    23     8     9    2
    24     8    10    1
    25    10    11    1
    26    10    27    1
    27    27    28   ar
    28    28    29   ar
    29    29    30    1
    30    29    31   ar
    31    31    32   ar
    32    32    33    1
    33    32    34   ar
    34    10    12    1
    35    20    13   ar
    36     6     1   ar
    37    34    27   ar
    38    12     4    1
    39    16    21    1
    40    16    22    1
    41    19    23    1
    42    19    24    1
@<TRIPOS>MOLECULE
*****
 39 42 0 0 0
SMALL
GASTEIGER

@<TRIPOS>ATOM
      1 C           0.6505    1.9544   26.9628 C.ar    1  UNL1        0.0053
      2 C          -0.5925    2.3399   26.2170 C.ar    1  UNL1        0.0033
      3 C          -0.6786    2.1162   24.7363 C.ar    1  UNL1        0.0382
      4 C           0.4785    1.5070   24.0014 C.ar    1  UNL1        0.1529
      5 C           1.7215    1.1215   24.7471 C.ar    1  UNL1        0.0881
      6 C           1.8076    1.3452   26.2278 C.ar    1  UNL1        0.0181
      7 N           2.8785    0.5123   24.0121 N.am    1  UNL1       -0.2529
      8 C           2.7925    0.2886   22.5314 C.2     1  UNL1        0.2697
      9 O           3.9495   -0.3206   21.7964 O.2     1  UNL1       -0.2704
     10 C           1.5494    0.6741   21.7856 C.3     1  UNL1        0.2199
     11 C           0.5927    0.8719   20.6473 C.3     1  UNL1        0.0579
     12 O           0.3924    1.2833   22.5206 O.3     1  UNL1       -0.4686
     13 C           0.2921    1.1038   29.3914 C.ar    1  UNL1        0.0645
     14 N           0.3782    1.3274   30.8721 N.ar    1  UNL1       -0.2183
     15 C           0.9088    2.6253   31.4050 C.ar    1  UNL1        0.2145
     16 N           0.9949    2.8490   32.8857 N.pl3   1  UNL1       -0.3274
     17 N           1.3533    3.6996   30.4572 N.ar    1  UNL1       -0.1995
     18 C           1.2672    3.4759   28.9764 C.ar    1  UNL1        0.1293
     19 N           1.7118    4.5501   28.0285 N.pl3   1  UNL1       -0.3425
     20 C           0.7366    2.1780   28.4435 C.ar    1  UNL1        0.0449
     21 H           0.7031    2.1439   33.5078 H       1  UNL1        0.1452
     22 H           1.3431    3.7008   33.2355 H       1  UNL1        0.1452
     23 H           2.0600    5.4020   28.3783 H       1  UNL1        0.1437
     24 H           1.6553    4.4033   27.0567 H       1  UNL1        0.1437
     25 C          -1.7044   -0.4989   28.9494 C.3     1  UNL1        0.0067
     26 C          -0.2385   -0.1941   28.8585 C.3     1  UNL1        0.0460
     27 C           2.3741    0.1336   20.6553 C.ar    1  UNL1        0.0264
     28 C           2.4165   -1.3434   20.3972 C.ar    1  UNL1        0.0293
     29 C           3.2413   -1.8839   19.2668 C.ar    1  UNL1        0.1422
     30 F           3.2836   -3.3610   19.0088 F       1  UNL1       -0.2041
     31 C           4.0237   -0.9474   18.3947 C.ar    1  UNL1        0.0592
     32 C           3.9814    0.5296   18.6529 C.ar    1  UNL1        0.1422
     33 F           4.7639    1.4661   17.7807 F       1  UNL1       -0.2041
     34 C           3.1566    1.0702   19.7831 C.ar    1  UNL1        0.0293
     35 C           4.1216    0.1268   24.7578 C.3     1  UNL1        0.0995
     36 C           4.3548   -1.3056   25.1372 C.3     1  UNL1        0.0380
     37 C           4.8652   -1.6453   26.5062 C.3     1  UNL1        0.1072
     38 C           4.0294   -1.3432   27.7145 C.1     1  UNL1        0.0732
     39 N           3.1935   -1.0411   28.9229 N.1     1  UNL1       -0.1959
@<TRIPOS>BOND
     1    25    26    1
     2    26    13    1
     3    13    14   ar
     4    14    15   ar
     5    15    16    1
     6    15    17   ar
     7    17    18   ar
     8    18    19    1
     9    18    20   ar
    10    20     1    1
    11     1     2   ar
    12     2     3   ar
    13     3     4   ar
    14     4     5   ar
    15     5     6   ar
    16     5     7    1
    17     7    35    1
    18    35    36    1
    19    36    37    1
    20    37    38    1
    21    38    39    3
    22     7     8   am
    23     8     9    2
    24     8    10    1
    25    10    11    1
    26    10    27    1
    27    27    28   ar
    28    28    29   ar
    29    29    30    1
    30    29    31   ar
    31    31    32   ar
    32    32    33    1
    33    32    34   ar
    34    10    12    1
    35    20    13   ar
    36     6     1   ar
    37    34    27   ar
    38    12     4    1
    39    16    21    1
    40    16    22    1
    41    19    23    1
    42    19    24    1
@<TRIPOS>MOLECULE
*****
 39 42 0 0 0
SMALL
GASTEIGER

@<TRIPOS>ATOM
      1 C           0.7275    1.6461   26.6096 C.ar    1  UNL1        0.0053
      2 C          -0.4706    2.0998   25.8294 C.ar    1  UNL1        0.0033
      3 C          -0.5115    1.9126   24.3417 C.ar    1  UNL1        0.0382
      4 C           0.6456    1.2718   23.6343 C.ar    1  UNL1        0.1529
      5 C           1.8436    0.8181   24.4145 C.ar    1  UNL1        0.0881
      6 C           1.8846    1.0053   25.9022 C.ar    1  UNL1        0.0181
      7 N           3.0007    0.1773   23.7071 N.am    1  UNL1       -0.2529
      8 C           2.9598   -0.0098   22.2194 C.2     1  UNL1        0.2697
      9 O           4.1169   -0.6506   21.5119 O.2     1  UNL1       -0.2704
     10 C           1.7617    0.4438   21.4391 C.3     1  UNL1        0.2199
     11 C           0.8563    0.7067   20.2724 C.3     1  UNL1        0.0579
     12 O           0.6046    1.0846   22.1465 O.3     1  UNL1       -0.4686
     13 C           1.3581    3.0834   28.6801 C.ar    1  UNL1        0.0645
     14 N           1.3991    3.2705   30.1677 N.ar    1  UNL1       -0.2183
     15 C           0.8504    2.2076   31.0728 C.ar    1  UNL1        0.2145
     16 N           0.8915    2.3948   32.5605 N.pl3   1  UNL1       -0.3274
     17 N           0.2608    0.9575   30.4902 N.ar    1  UNL1       -0.1995
     18 C           0.2198    0.7703   29.0024 C.ar    1  UNL1        0.1293
     19 N          -0.3699   -0.4798   28.4197 N.pl3   1  UNL1       -0.3425
     20 C           0.7684    1.8332   28.0974 C.ar    1  UNL1        0.0449
     21 H           1.2785    3.2152   32.9429 H       1  UNL1        0.1452
     22 H           0.5313    1.6971   33.1545 H       1  UNL1        0.1452
     23 H          -0.7300   -1.1774   29.0137 H       1  UNL1        0.1437
     24 H          -0.3968   -0.6026   27.4433 H       1  UNL1        0.1437
     25 C           1.0341    5.2872   27.3428 C.3     1  UNL1        0.0067
     26 C           1.9068    4.1463   27.7750 C.3     1  UNL1        0.0460
     27 C           2.6043   -0.1057   20.3265 C.ar    1  UNL1        0.0264
     28 C           2.6242   -1.5816   20.0593 C.ar    1  UNL1        0.0293
     29 C           3.4669   -2.1311   18.9466 C.ar    1  UNL1        0.1422
     30 F           3.4866   -3.6070   18.6795 F       1  UNL1       -0.2041
     31 C           4.2897   -1.2048   18.1012 C.ar    1  UNL1        0.0592
     32 C           4.2698    0.2711   18.3684 C.ar    1  UNL1        0.1422
     33 F           5.0927    1.1974   17.5229 F       1  UNL1       -0.2041
     34 C           3.4272    0.8207   19.4810 C.ar    1  UNL1        0.0293
     35 C           4.1988   -0.2763   24.4873 C.3     1  UNL1        0.0995
     36 C           4.3286   -1.7143   24.8938 C.3     1  UNL1        0.0380
     37 C           5.3396   -2.5954   24.2216 C.3     1  UNL1        0.1072
     38 C           4.9428   -3.4217   23.0343 C.1     1  UNL1        0.0732
     39 N           4.5460   -4.2481   21.8469 N.1     1  UNL1       -0.1959
@<TRIPOS>BOND
     1    25    26    1
     2    26    13    1
     3    13    14   ar
     4    14    15   ar
     5    15    16    1
     6    15    17   ar
     7    17    18   ar
     8    18    19    1
     9    18    20   ar
    10    20     1    1
    11     1     2   ar
    12     2     3   ar
    13     3     4   ar
    14     4     5   ar
    15     5     6   ar
    16     5     7    1
    17     7    35    1
    18    35    36    1
    19    36    37    1
    20    37    38    1
    21    38    39    3
    22     7     8   am
    23     8     9    2
    24     8    10    1
    25    10    11    1
    26    10    27    1
    27    27    28   ar
    28    28    29   ar
    29    29    30    1
    30    29    31   ar
    31    31    32   ar
    32    32    33    1
    33    32    34   ar
    34    10    12    1
    35    20    13   ar
    36     6     1   ar
    37    34    27   ar
    38    12     4    1
    39    16    21    1
    40    16    22    1
    41    19    23    1
    42    19    24    1
@<TRIPOS>MOLECULE
*****
 39 42 0 0 0
SMALL
GASTEIGER

@<TRIPOS>ATOM
      1 C          -4.7726  -18.9143   21.5736 C.ar    1  UNL1        0.0053
      2 C          -4.9406  -20.3636   21.9216 C.ar    1  UNL1        0.0033
      3 C          -6.2747  -20.8756   22.3776 C.ar    1  UNL1        0.0382
      4 C          -7.4408  -19.9382   22.4857 C.ar    1  UNL1        0.1529
      5 C          -7.2727  -18.4889   22.1377 C.ar    1  UNL1        0.0881
      6 C          -5.9386  -17.9769   21.6816 C.ar    1  UNL1        0.0181
      7 N          -8.4387  -17.5515   22.2457 N.am    1  UNL1       -0.2529
      8 C          -9.7728  -18.0634   22.7018 C.2     1  UNL1        0.2697
      9 O         -10.9389  -17.1261   22.8098 O.2     1  UNL1       -0.2704
     10 C          -9.9410  -19.5128   23.0498 C.3     1  UNL1        0.2199
     11 C         -10.5926  -20.7908   23.4882 C.3     1  UNL1        0.0579
     12 O          -8.7749  -20.4502   22.9417 O.3     1  UNL1       -0.4686
     13 C          -2.7445  -17.3221   21.8933 C.ar    1  UNL1        0.0645
     14 N          -1.4104  -16.8101   21.4373 N.ar    1  UNL1       -0.2183
     15 C          -0.7702  -17.3782   20.2054 C.ar    1  UNL1        0.2145
     16 N           0.5639  -16.8662   19.7494 N.pl3   1  UNL1       -0.3274
     17 N          -1.4640  -18.4584   19.4297 N.ar    1  UNL1       -0.1995
     18 C          -2.7982  -18.9704   19.8857 C.ar    1  UNL1        0.1293
     19 N          -3.4920  -20.0505   19.1100 N.pl3   1  UNL1       -0.3425
     20 C          -3.4384  -18.4023   21.1175 C.ar    1  UNL1        0.0449
     21 H           1.0193  -16.1572   20.2586 H       1  UNL1        0.1452
     22 H           0.9842  -17.2390   18.9410 H       1  UNL1        0.1452
     23 H          -3.0718  -20.4234   18.3015 H       1  UNL1        0.1437
     24 H          -4.3677  -20.3866   19.4093 H       1  UNL1        0.1437
     25 C          -3.5241  -17.5998   24.3561 C.3     1  UNL1        0.0067
     26 C          -3.3848  -16.7540   23.1251 C.3     1  UNL1        0.0460
     27 C         -11.3333  -19.0193   23.3101 C.ar    1  UNL1        0.0264
     28 C         -11.8535  -18.9486   24.7152 C.ar    1  UNL1        0.0293
     29 C         -13.2459  -18.4550   24.9755 C.ar    1  UNL1        0.1422
     30 F         -13.7661  -18.3844   26.3807 F       1  UNL1       -0.2041
     31 C         -14.1180  -18.0322   23.8308 C.ar    1  UNL1        0.0592
     32 C         -13.5977  -18.1029   22.4257 C.ar    1  UNL1        0.1422
     33 F         -14.4699  -17.6800   21.2808 F       1  UNL1       -0.2041
     34 C         -12.2054  -18.5964   22.1653 C.ar    1  UNL1        0.0293
     35 C          -8.2707  -16.1022   21.8978 C.3     1  UNL1        0.0995
     36 C          -7.7283  -15.1442   22.9167 C.3     1  UNL1        0.0380
     37 C          -7.6012  -15.5667   24.3503 C.3     1  UNL1        0.1072
     38 C          -6.3928  -15.1690   25.1451 C.1     1  UNL1        0.0732
     39 N          -5.1843  -14.7713   25.9398 N.1     1  UNL1       -0.1959
@<TRIPOS>BOND
     1    25    26    1
     2    26    13    1
     3    13    14   ar
     4    14    15   ar
     5    15    16    1
     6    15    17   ar
     7    17    18   ar
     8    18    19    1
     9    18    20   ar
    10    20     1    1
    11     1     2   ar
    12     2     3   ar
    13     3     4   ar
    14     4     5   ar
    15     5     6   ar
    16     5     7    1
    17     7    35    1
    18    35    36    1
    19    36    37    1
    20    37    38    1
    21    38    39    3
    22     7     8   am
    23     8     9    2
    24     8    10    1
    25    10    11    1
    26    10    27    1
    27    27    28   ar
    28    28    29   ar
    29    29    30    1
    30    29    31   ar
    31    31    32   ar
    32    32    33    1
    33    32    34   ar
    34    10    12    1
    35    20    13   ar
    36     6     1   ar
    37    34    27   ar
    38    12     4    1
    39    16    21    1
    40    16    22    1
    41    19    23    1
    42    19    24    1
@<TRIPOS>MOLECULE
*****
 39 42 0 0 0
SMALL
GASTEIGER

@<TRIPOS>ATOM
      1 C          -4.7762  -18.9119   21.5720 C.ar    1  UNL1        0.0053
      2 C          -4.9437  -20.3613   21.9200 C.ar    1  UNL1        0.0033
      3 C          -6.2778  -20.8739   22.3754 C.ar    1  UNL1        0.0382
      4 C          -7.4444  -19.9372   22.4827 C.ar    1  UNL1        0.1529
      5 C          -7.2769  -18.4878   22.1347 C.ar    1  UNL1        0.0881
      6 C          -5.9429  -17.9751   21.6793 C.ar    1  UNL1        0.0181
      7 N          -8.4436  -17.5511   22.2420 N.am    1  UNL1       -0.2529
      8 C          -9.7776  -18.0637   22.6973 C.2     1  UNL1        0.2697
      9 O         -10.9443  -17.1270   22.8046 O.2     1  UNL1       -0.2704
     10 C          -9.9451  -19.5132   23.0454 C.3     1  UNL1        0.2199
     11 C         -10.5963  -20.7915   23.4835 C.3     1  UNL1        0.0579
     12 O          -8.7785  -20.4499   22.9380 O.3     1  UNL1       -0.4686
     13 C          -2.7497  -17.3178   21.8921 C.ar    1  UNL1        0.0645
     14 N          -1.4157  -16.8051   21.4368 N.ar    1  UNL1       -0.2183
     15 C          -0.7739  -17.3736   20.2059 C.ar    1  UNL1        0.2145
     16 N           0.5601  -16.8609   19.7506 N.pl3   1  UNL1       -0.3274
     17 N          -1.4663  -18.4549   19.4304 N.ar    1  UNL1       -0.1995
     18 C          -2.8005  -18.9676   19.8858 C.ar    1  UNL1        0.1293
     19 N          -3.4929  -20.0489   19.1103 N.pl3   1  UNL1       -0.3425
     20 C          -3.4421  -18.3991   21.1166 C.ar    1  UNL1        0.0449
     21 H           1.0145  -16.1512   20.2597 H       1  UNL1        0.1452
     22 H           0.9813  -17.2340   18.9428 H       1  UNL1        0.1452
     23 H          -3.0717  -20.4221   18.3024 H       1  UNL1        0.1437
     24 H          -4.3685  -20.3855   19.4091 H       1  UNL1        0.1437
     25 C          -3.5496  -17.6007   24.3478 C.3     1  UNL1        0.0067
     26 C          -3.3915  -16.7493   23.1230 C.3     1  UNL1        0.0460
     27 C         -11.3379  -19.0204   23.3048 C.ar    1  UNL1        0.0264
     28 C         -12.2119  -18.6044   22.1590 C.ar    1  UNL1        0.0293
     29 C         -13.6047  -18.1116   22.4185 C.ar    1  UNL1        0.1422
     30 F         -14.4787  -17.6956   21.2725 F       1  UNL1       -0.2041
     31 C         -14.1235  -18.0348   23.8238 C.ar    1  UNL1        0.0592
     32 C         -13.2494  -18.4508   24.9696 C.ar    1  UNL1        0.1422
     33 F         -13.7682  -18.3740   26.3750 F       1  UNL1       -0.2041
     34 C         -11.8566  -18.9436   24.7102 C.ar    1  UNL1        0.0293
     35 C          -8.2761  -16.1017   21.8940 C.3     1  UNL1        0.0995
     36 C          -7.7158  -15.1471   22.9063 C.3     1  UNL1        0.0380
     37 C          -7.6125  -15.5560   24.3459 C.3     1  UNL1        0.1072
     38 C          -6.4149  -15.1553   25.1553 C.1     1  UNL1        0.0732
     39 N          -5.2172  -14.7546   25.9646 N.1     1  UNL1       -0.1959
@<TRIPOS>BOND
     1    25    26    1
     2    26    13    1
     3    13    14   ar
     4    14    15   ar
     5    15    16    1
     6    15    17   ar
     7    17    18   ar
     8    18    19    1
     9    18    20   ar
    10    20     1    1
    11     1     2   ar
    12     2     3   ar
    13     3     4   ar
    14     4     5   ar
    15     5     6   ar
    16     5     7    1
    17     7    35    1
    18    35    36    1
    19    36    37    1
    20    37    38    1
    21    38    39    3
    22     7     8   am
    23     8     9    2
    24     8    10    1
    25    10    11    1
    26    10    27    1
    27    27    28   ar
    28    28    29   ar
    29    29    30    1
    30    29    31   ar
    31    31    32   ar
    32    32    33    1
    33    32    34   ar
    34    10    12    1
    35    20    13   ar
    36     6     1   ar
    37    34    27   ar
    38    12     4    1
    39    16    21    1
    40    16    22    1
    41    19    23    1
    42    19    24    1
@<TRIPOS>MOLECULE
*****
 39 42 0 0 0
SMALL
GASTEIGER

@<TRIPOS>ATOM
      1 C           4.4417    1.1762   35.8416 C.ar    1  UNL1        0.0053
      2 C           4.7401   -0.2430   35.4587 C.ar    1  UNL1        0.0033
      3 C           4.3193   -0.7618   34.1157 C.ar    1  UNL1        0.0382
      4 C           3.6001    0.1387   33.1556 C.ar    1  UNL1        0.1529
      5 C           3.3016    1.5579   33.5384 C.ar    1  UNL1        0.0881
      6 C           3.7224    2.0767   34.8815 C.ar    1  UNL1        0.0181
      7 N           2.5823    2.4583   32.5783 N.am    1  UNL1       -0.2529
      8 C           2.1615    1.9396   31.2353 C.2     1  UNL1        0.2697
      9 O           1.4423    2.8400   30.2752 O.2     1  UNL1       -0.2704
     10 C           2.4600    0.5203   30.8523 C.3     1  UNL1        0.2199
     11 C           2.5154   -0.7380   30.0377 C.3     1  UNL1        0.0579
     12 O           3.1793   -0.3802   31.8125 O.3     1  UNL1       -0.4686
     13 C           3.8811    1.7236   38.3188 C.ar    1  UNL1        0.0645
     14 N           4.3018    2.2424   39.6618 N.ar    1  UNL1       -0.2183
     15 C           5.7040    2.7327   39.8708 C.ar    1  UNL1        0.2145
     16 N           6.1247    3.2516   41.2138 N.pl3   1  UNL1       -0.3274
     17 N           6.6853    2.7042   38.7367 N.ar    1  UNL1       -0.1995
     18 C           6.2645    2.1854   37.3936 C.ar    1  UNL1        0.1293
     19 N           7.2459    2.1569   36.2596 N.pl3   1  UNL1       -0.3425
     20 C           4.8625    1.6951   37.1847 C.ar    1  UNL1        0.0449
     21 H           5.4806    3.2703   41.9581 H       1  UNL1        0.1452
     22 H           7.0450    3.5734   41.3510 H       1  UNL1        0.1452
     23 H           8.1662    2.4787   36.3967 H       1  UNL1        0.1437
     24 H           6.9697    1.8163   35.3781 H       1  UNL1        0.1437
     25 C           1.7619    0.5178   39.2161 C.3     1  UNL1        0.0067
     26 C           2.4789    1.2333   38.1097 C.3     1  UNL1        0.0460
     27 C           1.7600    0.9837   29.6093 C.ar    1  UNL1        0.0264
     28 C           0.2706    0.8489   29.4928 C.ar    1  UNL1        0.0293
     29 C          -0.4294    1.3124   28.2497 C.ar    1  UNL1        0.1422
     30 F          -1.9189    1.1776   28.1333 F       1  UNL1       -0.2041
     31 C           0.3598    1.9106   27.1233 C.ar    1  UNL1        0.0592
     32 C           1.8492    2.0454   27.2398 C.ar    1  UNL1        0.1422
     33 F           2.6385    2.6436   26.1132 F       1  UNL1       -0.2041
     34 C           2.5493    1.5820   28.4828 C.ar    1  UNL1        0.0293
     35 C           2.2839    3.8776   32.9612 C.3     1  UNL1        0.0995
     36 C           0.9663    4.2238   33.5891 C.3     1  UNL1        0.0380
     37 C          -0.1744    4.6867   32.7320 C.3     1  UNL1        0.1072
     38 C          -1.1247    5.7272   33.2462 C.1     1  UNL1        0.0732
     39 N          -2.0749    6.7677   33.7603 N.1     1  UNL1       -0.1959
@<TRIPOS>BOND
     1    25    26    1
     2    26    13    1
     3    13    14   ar
     4    14    15   ar
     5    15    16    1
     6    15    17   ar
     7    17    18   ar
     8    18    19    1
     9    18    20   ar
    10    20     1    1
    11     1     2   ar
    12     2     3   ar
    13     3     4   ar
    14     4     5   ar
    15     5     6   ar
    16     5     7    1
    17     7    35    1
    18    35    36    1
    19    36    37    1
    20    37    38    1
    21    38    39    3
    22     7     8   am
    23     8     9    2
    24     8    10    1
    25    10    11    1
    26    10    27    1
    27    27    28   ar
    28    28    29   ar
    29    29    30    1
    30    29    31   ar
    31    31    32   ar
    32    32    33    1
    33    32    34   ar
    34    10    12    1
    35    20    13   ar
    36     6     1   ar
    37    34    27   ar
    38    12     4    1
    39    16    21    1
    40    16    22    1
    41    19    23    1
    42    19    24    1
@<TRIPOS>MOLECULE
*****
 39 42 0 0 0
SMALL
GASTEIGER

@<TRIPOS>ATOM
      1 C           4.6029    1.1569   35.9177 C.ar    1  UNL1        0.0053
      2 C           4.8338   -0.2811   35.5588 C.ar    1  UNL1        0.0033
      3 C           4.3823   -0.8036   34.2272 C.ar    1  UNL1        0.0382
      4 C           3.6997    0.1119   33.2546 C.ar    1  UNL1        0.1529
      5 C           3.4687    1.5499   33.6135 C.ar    1  UNL1        0.0881
      6 C           3.9203    2.0724   34.9450 C.ar    1  UNL1        0.0181
      7 N           2.7862    2.4653   32.6409 N.am    1  UNL1       -0.2529
      8 C           2.3346    1.9428   31.3093 C.2     1  UNL1        0.2697
      9 O           1.6520    2.8583   30.3367 O.2     1  UNL1       -0.2704
     10 C           2.5655    0.5048   30.9504 C.3     1  UNL1        0.2199
     11 C           2.5587   -0.7689   30.1581 C.3     1  UNL1        0.0579
     12 O           3.2481   -0.4107   31.9230 O.3     1  UNL1       -0.4686
     13 C           6.3759    2.3787   37.3716 C.ar    1  UNL1        0.0645
     14 N           6.8275    2.9012   38.7031 N.ar    1  UNL1       -0.2183
     15 C           5.9576    2.7246   39.9123 C.ar    1  UNL1        0.2145
     16 N           6.4093    3.2472   41.2438 N.pl3   1  UNL1       -0.3274
     17 N           4.6362    2.0254   39.7900 N.ar    1  UNL1       -0.1995
     18 C           4.1846    1.5028   38.4584 C.ar    1  UNL1        0.1293
     19 N           2.8632    0.8036   38.3361 N.pl3   1  UNL1       -0.3425
     20 C           5.0545    1.6795   37.2493 C.ar    1  UNL1        0.0449
     21 H           7.2765    3.7061   41.3241 H       1  UNL1        0.1452
     22 H           5.8384    3.1313   42.0375 H       1  UNL1        0.1452
     23 H           2.2923    0.6877   39.1298 H       1  UNL1        0.1437
     24 H           2.5668    0.4606   37.4622 H       1  UNL1        0.1437
     25 C           8.3179    1.5518   35.8566 C.3     1  UNL1        0.0067
     26 C           7.2457    2.5553   36.1623 C.3     1  UNL1        0.0460
     27 C           1.8806    0.9779   29.7026 C.ar    1  UNL1        0.0264
     28 C           0.3913    0.8556   29.5722 C.ar    1  UNL1        0.0293
     29 C          -0.2937    1.3288   28.3244 C.ar    1  UNL1        0.1422
     30 F          -1.7830    1.2065   28.1940 F       1  UNL1       -0.2041
     31 C           0.5106    1.9241   27.2070 C.ar    1  UNL1        0.0592
     32 C           1.9999    2.0464   27.3375 C.ar    1  UNL1        0.1422
     33 F           2.8043    2.6418   26.2201 F       1  UNL1       -0.2041
     34 C           2.6849    1.5733   28.5852 C.ar    1  UNL1        0.0293
     35 C           2.5552    3.9033   32.9997 C.3     1  UNL1        0.0995
     36 C           1.3275    4.2971   33.7664 C.3     1  UNL1        0.0380
     37 C           1.4594    5.0297   35.0688 C.3     1  UNL1        0.1072
     38 C           1.4307    4.2708   36.3623 C.1     1  UNL1        0.0732
     39 N           1.4020    3.5120   37.6559 N.1     1  UNL1       -0.1959
@<TRIPOS>BOND
     1    25    26    1
     2    26    13    1
     3    13    14   ar
     4    14    15   ar
     5    15    16    1
     6    15    17   ar
     7    17    18   ar
     8    18    19    1
     9    18    20   ar
    10    20     1    1
    11     1     2   ar
    12     2     3   ar
    13     3     4   ar
    14     4     5   ar
    15     5     6   ar
    16     5     7    1
    17     7    35    1
    18    35    36    1
    19    36    37    1
    20    37    38    1
    21    38    39    3
    22     7     8   am
    23     8     9    2
    24     8    10    1
    25    10    11    1
    26    10    27    1
    27    27    28   ar
    28    28    29   ar
    29    29    30    1
    30    29    31   ar
    31    31    32   ar
    32    32    33    1
    33    32    34   ar
    34    10    12    1
    35    20    13   ar
    36     6     1   ar
    37    34    27   ar
    38    12     4    1
    39    16    21    1
    40    16    22    1
    41    19    23    1
    42    19    24    1
@<TRIPOS>MOLECULE
*****
 39 42 0 0 0
SMALL
GASTEIGER

@<TRIPOS>ATOM
      1 C           1.3530    1.2299   26.3857 C.ar    1  UNL1        0.0053
      2 C           0.4298    1.9545   25.4515 C.ar    1  UNL1        0.0033
      3 C           0.5413    1.7403   23.9711 C.ar    1  UNL1        0.0382
      4 C           1.5758    0.8015   23.4249 C.ar    1  UNL1        0.1529
      5 C           2.4990    0.0769   24.3591 C.ar    1  UNL1        0.0881
      6 C           2.3875    0.2911   25.8395 C.ar    1  UNL1        0.0181
      7 N           3.5335   -0.8619   23.8129 N.am    1  UNL1       -0.2529
      8 C           3.6449   -1.0762   22.3325 C.2     1  UNL1        0.2697
      9 O           4.6795   -2.0150   21.7863 O.2     1  UNL1       -0.2704
     10 C           2.7218   -0.3515   21.3982 C.3     1  UNL1        0.2199
     11 C           2.0806    0.1017   20.1201 C.3     1  UNL1        0.0579
     12 O           1.6872    0.5873   21.9444 O.3     1  UNL1       -0.4686
     13 C           2.1158    2.4562   28.5454 C.ar    1  UNL1        0.0645
     14 N           2.0045    2.6704   30.0258 N.ar    1  UNL1       -0.2183
     15 C           1.0188    1.8725   30.8271 C.ar    1  UNL1        0.2145
     16 N           0.9074    2.0867   32.3075 N.pl3   1  UNL1       -0.3274
     17 N           0.1445    0.8604   30.1479 N.ar    1  UNL1       -0.1995
     18 C           0.2559    0.6462   28.6674 C.ar    1  UNL1        0.1293
     19 N          -0.6183   -0.3659   27.9881 N.pl3   1  UNL1       -0.3425
     20 C           1.2416    1.4441   27.8662 C.ar    1  UNL1        0.0449
     21 H           1.4813    2.7510   32.7533 H       1  UNL1        0.1452
     22 H           0.2605    1.5630   32.8334 H       1  UNL1        0.1452
     23 H          -1.2652   -0.8895   28.5140 H       1  UNL1        0.1437
     24 H          -0.5452   -0.5064   27.0165 H       1  UNL1        0.1437
     25 C           4.5269    2.7987   27.6403 C.3     1  UNL1        0.0067
     26 C           3.1015    3.2540   27.7442 C.3     1  UNL1        0.0460
     27 C           3.5337   -1.1329   20.4081 C.ar    1  UNL1        0.0264
     28 C           3.0991   -2.5101   20.0024 C.ar    1  UNL1        0.0293
     29 C           3.9111   -3.2915   19.0123 C.ar    1  UNL1        0.1422
     30 F           3.4764   -4.6687   18.6066 F       1  UNL1       -0.2041
     31 C           5.1574   -2.6958   18.4280 C.ar    1  UNL1        0.0592
     32 C           5.5919   -1.3187   18.8337 C.ar    1  UNL1        0.1422
     33 F           6.8384   -0.7229   18.2493 F       1  UNL1       -0.2041
     34 C           4.7801   -0.5372   19.8238 C.ar    1  UNL1        0.0293
     35 C           4.4566   -1.5865   24.7471 C.3     1  UNL1        0.0995
     36 C           5.7939   -0.9978   25.0865 C.3     1  UNL1        0.0380
     37 C           6.2511   -0.9487   26.5144 C.3     1  UNL1        0.1072
     38 C           5.2426   -0.9311   27.6246 C.1     1  UNL1        0.0732
     39 N           4.2341   -0.9134   28.7348 N.1     1  UNL1       -0.1959
@<TRIPOS>BOND
     1    25    26    1
     2    26    13    1
     3    13    14   ar
     4    14    15   ar
     5    15    16    1
     6    15    17   ar
     7    17    18   ar
     8    18    19    1
     9    18    20   ar
    10    20     1    1
    11     1     2   ar
    12     2     3   ar
    13     3     4   ar
    14     4     5   ar
    15     5     6   ar
    16     5     7    1
    17     7    35    1
    18    35    36    1
    19    36    37    1
    20    37    38    1
    21    38    39    3
    22     7     8   am
    23     8     9    2
    24     8    10    1
    25    10    11    1
    26    10    27    1
    27    27    28   ar
    28    28    29   ar
    29    29    30    1
    30    29    31   ar
    31    31    32   ar
    32    32    33    1
    33    32    34   ar
    34    10    12    1
    35    20    13   ar
    36     6     1   ar
    37    34    27   ar
    38    12     4    1
    39    16    21    1
    40    16    22    1
    41    19    23    1
    42    19    24    1
@<TRIPOS>MOLECULE
*****
 39 42 0 0 0
SMALL
GASTEIGER

@<TRIPOS>ATOM
      1 C           2.8362    0.6587   27.0474 C.ar    1  UNL1        0.0053
      2 C           3.6145   -0.4758   27.6447 C.ar    1  UNL1        0.0033
      3 C           4.2414   -1.5065   26.7533 C.ar    1  UNL1        0.0382
      4 C           4.0899   -1.4027   25.2646 C.ar    1  UNL1        0.1529
      5 C           3.3115   -0.2682   24.6673 C.ar    1  UNL1        0.0881
      6 C           2.6846    0.7626   25.5587 C.ar    1  UNL1        0.0181
      7 N           3.1600   -0.1643   23.1786 N.am    1  UNL1       -0.2529
      8 C           3.7869   -1.1951   22.2872 C.2     1  UNL1        0.2697
      9 O           3.6353   -1.0912   20.7985 O.2     1  UNL1       -0.2704
     10 C           4.5653   -2.3297   22.8845 C.3     1  UNL1        0.2199
     11 C           5.3906   -3.5789   22.9759 C.3     1  UNL1        0.0579
     12 O           4.7168   -2.4335   24.3733 O.3     1  UNL1       -0.4686
     13 C           0.9160    1.3903   28.6374 C.ar    1  UNL1        0.0645
     14 N           0.2891    2.4210   29.5287 N.ar    1  UNL1       -0.2183
     15 C           0.9554    3.7511   29.7215 C.ar    1  UNL1        0.2145
     16 N           0.3285    4.7818   30.6128 N.pl3   1  UNL1       -0.3274
     17 N           2.2486    4.0503   29.0229 N.ar    1  UNL1       -0.1995
     18 C           2.8755    3.0195   28.1315 C.ar    1  UNL1        0.1293
     19 N           4.1687    3.3188   27.4329 N.pl3   1  UNL1       -0.3425
     20 C           2.2092    1.6896   27.9388 C.ar    1  UNL1        0.0449
     21 H          -0.5203    4.5854   31.0713 H       1  UNL1        0.1452
     22 H           0.7658    5.6547   30.7393 H       1  UNL1        0.1452
     23 H           4.6061    4.1917   27.5594 H       1  UNL1        0.1437
     24 H           4.5802    2.6423   26.8479 H       1  UNL1        0.1437
     25 C          -1.1689   -0.1394   28.8892 C.3     1  UNL1        0.0067
     26 C           0.2497    0.0603   28.4446 C.3     1  UNL1        0.0460
     27 C           4.7004   -2.6597   21.4276 C.ar    1  UNL1        0.0264
     28 C           5.8590   -2.1221   20.6411 C.ar    1  UNL1        0.0293
     29 C           5.9941   -2.4521   19.1841 C.ar    1  UNL1        0.1422
     30 F           7.1528   -1.9144   18.3977 F       1  UNL1       -0.2041
     31 C           4.9707   -3.3197   18.5136 C.ar    1  UNL1        0.0592
     32 C           3.8121   -3.8573   19.3000 C.ar    1  UNL1        0.1422
     33 F           2.7885   -4.7249   18.6295 F       1  UNL1       -0.2041
     34 C           3.6769   -3.5273   20.7570 C.ar    1  UNL1        0.0293
     35 C           2.3816    0.9702   22.5812 C.3     1  UNL1        0.0995
     36 C           0.9081    0.8245   22.3413 C.3     1  UNL1        0.0380
     37 C           0.2692    1.5019   21.1652 C.3     1  UNL1        0.1072
     38 C           0.6035    1.0587   19.7717 C.1     1  UNL1        0.0732
     39 N           0.9378    0.6155   18.3783 N.1     1  UNL1       -0.1959
@<TRIPOS>BOND
     1    25    26    1
     2    26    13    1
     3    13    14   ar
     4    14    15   ar
     5    15    16    1
     6    15    17   ar
     7    17    18   ar
     8    18    19    1
     9    18    20   ar
    10    20     1    1
    11     1     2   ar
    12     2     3   ar
    13     3     4   ar
    14     4     5   ar
    15     5     6   ar
    16     5     7    1
    17     7    35    1
    18    35    36    1
    19    36    37    1
    20    37    38    1
    21    38    39    3
    22     7     8   am
    23     8     9    2
    24     8    10    1
    25    10    11    1
    26    10    27    1
    27    27    28   ar
    28    28    29   ar
    29    29    30    1
    30    29    31   ar
    31    31    32   ar
    32    32    33    1
    33    32    34   ar
    34    10    12    1
    35    20    13   ar
    36     6     1   ar
    37    34    27   ar
    38    12     4    1
    39    16    21    1
    40    16    22    1
    41    19    23    1
    42    19    24    1
