@<TRIPOS>MOLECULE
*****
 40 43 0 0 0
SMALL
GASTEIGER

@<TRIPOS>ATOM
      1 C           0.1768    2.8001   20.4994 C.3     1  UNL1        0.1146
      2 F           2.2359    5.8020   24.2073 F       1  UNL1       -0.2041
      3 C           1.6270    4.4996   23.7794 C.ar    1  UNL1        0.1429
      4 C           1.4386    3.3959   24.7775 C.ar    1  UNL1        0.0667
      5 C           0.8297    2.0936   24.3496 C.ar    1  UNL1        0.1461
      6 C           0.4091    1.8950   22.9236 C.ar    1  UNL1        0.0349
      7 C           0.5974    2.9987   21.9255 C.ar    1  UNL1        0.0045
      8 C           1.2064    4.3010   22.3534 C.ar    1  UNL1        0.0275
      9 O           0.6413    0.9899   25.3479 O.3     1  UNL1       -0.4263
     10 C           0.0492    1.2884   26.6933 C.3     1  UNL1        0.4723
     11 F          -1.2018    1.7863   26.0322 F       1  UNL1       -0.1579
     12 F           1.3003    0.7906   27.3544 F       1  UNL1       -0.1579
     13 C          -0.5429    1.5870   28.0388 C.3     1  UNL1        0.4202
     14 F          -1.7855    0.8758   28.4859 F       1  UNL1       -0.1876
     15 F           0.1076    2.5970   28.9371 F       1  UNL1       -0.1876
     16 C           1.1234    1.6426   20.3814 C.ar    1  UNL1        0.0792
     17 C           0.5892    0.2497   20.2247 C.ar    1  UNL1        0.0175
     18 C           1.5360   -0.9078   20.1067 C.ar    1  UNL1        0.0142
     19 C           3.0168   -0.6725   20.1454 C.ar    1  UNL1        0.0768
     20 CL          3.9636   -1.8300   20.0275 Cl      1  UNL1       -0.0806
     21 C           3.5511    0.7204   20.3021 C.ar    1  UNL1        0.1098
     22 N           2.6044    1.8779   20.4201 N.ar    1  UNL1       -0.2454
     23 N          -0.7699    3.9576   20.6174 N.pl3   1  UNL1       -0.3077
     24 H          -0.4753    4.8622   20.3640 H       1  UNL1        0.1492
     25 C          -2.1653    3.7369   21.1214 C.ar    1  UNL1        0.1602
     26 N          -2.6057    3.8005   22.5539 N.ar    1  UNL1       -0.2203
     27 C          -4.0779    3.5168   22.5992 C.ar    1  UNL1        0.1610
     28 C          -4.5474    3.2778   21.1948 C.ar    1  UNL1        0.0612
     29 S          -3.3654    3.4139   20.2814 S.2     1  UNL1       -0.0513
     30 C          -4.9309    3.4786   23.8325 C.3     1  UNL1        0.4354
     31 F          -5.7839    3.4405   25.0657 F       1  UNL1       -0.1644
     32 F          -6.1618    3.6083   22.9851 F       1  UNL1       -0.1644
     33 F          -3.7000    3.3490   24.6798 F       1  UNL1       -0.1644
     34 C          -0.2438    2.6015   19.0733 C.3     1  UNL1        0.0543
     35 C           0.0487    3.6593   18.0509 C.ar    1  UNL1       -0.0199
     36 C           1.3644    4.3794   18.0719 C.ar    1  UNL1       -0.0042
     37 C           1.6569    5.4372   17.0494 C.ar    1  UNL1       -0.0003
     38 C           0.6337    5.7749   16.0059 C.ar    1  UNL1       -0.0000
     39 C          -0.6820    5.0548   15.9847 C.ar    1  UNL1       -0.0003
     40 C          -0.9745    3.9970   17.0072 C.ar    1  UNL1       -0.0042
@<TRIPOS>BOND
     1     2     3    1
     2     3     4   ar
     3     4     5   ar
     4     5     9    1
     5     9    10    1
     6    10    11    1
     7    10    12    1
     8    10    13    1
     9    13    14    1
    10    13    15    1
    11     5     6   ar
    12     6     7   ar
    13     7     1    1
    14     1    34    1
    15    34    35    1
    16    35    36   ar
    17    36    37   ar
    18    37    38   ar
    19    38    39   ar
    20    39    40   ar
    21     1    23    1
    22    23    25    1
    23    25    26   ar
    24    26    27   ar
    25    27    30    1
    26    30    31    1
    27    30    32    1
    28    30    33    1
    29    27    28   ar
    30    28    29   ar
    31     1    16    1
    32    16    17   ar
    33    17    18   ar
    34    18    19   ar
    35    19    20    1
    36    19    21   ar
    37    21    22   ar
    38     7     8   ar
    39     8     3   ar
    40    40    35   ar
    41    29    25   ar
    42    22    16   ar
    43    23    24    1
@<TRIPOS>MOLECULE
*****
 40 43 0 0 0
SMALL
GASTEIGER

@<TRIPOS>ATOM
      1 C          -9.0759  -18.7131   21.3660 C.3     1  UNL1        0.1146
      2 F          -8.8989  -13.6279   20.3126 F       1  UNL1       -0.2041
      3 C          -8.5909  -14.7766   21.2267 C.ar    1  UNL1        0.1429
      4 C          -7.8865  -14.5316   22.5281 C.ar    1  UNL1        0.0667
      5 C          -7.5786  -15.6804   23.4421 C.ar    1  UNL1        0.1461
      6 C          -7.9750  -17.0742   23.0548 C.ar    1  UNL1        0.0349
      7 C          -8.6794  -17.3192   21.7534 C.ar    1  UNL1        0.0045
      8 C          -8.9873  -16.1704   20.8393 C.ar    1  UNL1        0.0275
      9 O          -6.8741  -15.4353   24.7436 O.3     1  UNL1       -0.4263
     10 C          -7.6316  -15.5259   26.0351 C.3     1  UNL1        0.4723
     11 F          -6.3768  -15.9455   26.7417 F       1  UNL1       -0.1579
     12 F          -8.8865  -15.1062   25.3285 F       1  UNL1       -0.1579
     13 C          -8.3892  -15.6165   27.3266 C.3     1  UNL1        0.4202
     14 F          -8.7163  -14.3695   28.0933 F       1  UNL1       -0.1876
     15 F          -8.8196  -16.9543   27.8513 F       1  UNL1       -0.1876
     16 C         -10.2035  -18.6669   22.3541 C.ar    1  UNL1        0.0792
     17 C         -11.4822  -17.9670   22.0006 C.ar    1  UNL1        0.0175
     18 C         -12.6098  -17.9209   22.9888 C.ar    1  UNL1        0.0142
     19 C         -12.4586  -18.5746   24.3303 C.ar    1  UNL1        0.0768
     20 CL        -13.5863  -18.5285   25.3185 Cl      1  UNL1       -0.0806
     21 C         -11.1799  -19.2745   24.6838 C.ar    1  UNL1        0.1098
     22 N         -10.0523  -19.3206   23.6957 N.ar    1  UNL1       -0.2454
     23 N          -7.9483  -18.7592   20.3778 N.pl3   1  UNL1       -0.3077
     24 H          -8.1202  -18.5764   19.4259 H       1  UNL1        0.1492
     25 C          -6.5588  -19.0839   20.8402 C.ar    1  UNL1        0.1602
     26 N          -5.2852  -18.6585   20.1716 N.ar    1  UNL1       -0.2203
     27 C          -4.1382  -19.2027   20.9704 C.ar    1  UNL1        0.1610
     28 C          -4.7029  -19.9644   22.1327 C.ar    1  UNL1        0.0612
     29 S          -6.1989  -19.8910   22.0523 S.2     1  UNL1       -0.0513
     30 C          -2.6821  -19.0177   20.6613 C.3     1  UNL1        0.4354
     31 F          -1.2260  -18.8327   20.3521 F       1  UNL1       -0.1644
     32 F          -2.3240  -19.9031   21.8179 F       1  UNL1       -0.1644
     33 F          -3.0402  -18.1323   19.5046 F       1  UNL1       -0.1644
     34 C          -9.4724  -20.1068   20.9786 C.3     1  UNL1        0.0543
     35 C          -9.4203  -20.5291   19.5402 C.ar    1  UNL1       -0.0199
     36 C          -8.4086  -21.5418   19.0920 C.ar    1  UNL1       -0.0042
     37 C          -8.3565  -21.9640   17.6536 C.ar    1  UNL1       -0.0003
     38 C          -9.3160  -21.3735   16.6634 C.ar    1  UNL1       -0.0000
     39 C         -10.3277  -20.3607   17.1115 C.ar    1  UNL1       -0.0003
     40 C         -10.3798  -19.9385   18.5499 C.ar    1  UNL1       -0.0042
@<TRIPOS>BOND
     1     2     3    1
     2     3     4   ar
     3     4     5   ar
     4     5     9    1
     5     9    10    1
     6    10    11    1
     7    10    12    1
     8    10    13    1
     9    13    14    1
    10    13    15    1
    11     5     6   ar
    12     6     7   ar
    13     7     1    1
    14     1    34    1
    15    34    35    1
    16    35    36   ar
    17    36    37   ar
    18    37    38   ar
    19    38    39   ar
    20    39    40   ar
    21     1    23    1
    22    23    25    1
    23    25    26   ar
    24    26    27   ar
    25    27    30    1
    26    30    31    1
    27    30    32    1
    28    30    33    1
    29    27    28   ar
    30    28    29   ar
    31     1    16    1
    32    16    17   ar
    33    17    18   ar
    34    18    19   ar
    35    19    20    1
    36    19    21   ar
    37    21    22   ar
    38     7     8   ar
    39     8     3   ar
    40    40    35   ar
    41    29    25   ar
    42    22    16   ar
    43    23    24    1
@<TRIPOS>MOLECULE
*****
 40 43 0 0 0
SMALL
GASTEIGER

@<TRIPOS>ATOM
      1 C           3.9998    0.0276   20.3480 C.3     1  UNL1        0.1146
      2 F           2.6823   -4.7743   18.8627 F       1  UNL1       -0.2041
      3 C           3.7152   -3.8042   19.3547 C.ar    1  UNL1        0.1429
      4 C           5.1221   -4.2649   19.5962 C.ar    1  UNL1        0.0667
      5 C           6.1549   -3.2948   20.0882 C.ar    1  UNL1        0.1461
      6 C           5.7809   -1.8640   20.3388 C.ar    1  UNL1        0.0349
      7 C           4.3740   -1.4033   20.0974 C.ar    1  UNL1        0.0045
      8 C           3.3411   -2.3734   19.6053 C.ar    1  UNL1        0.0275
      9 O           7.5619   -3.7555   20.3297 O.3     1  UNL1       -0.4263
     10 C           7.9009   -4.5045   21.5843 C.3     1  UNL1        0.4723
     11 F           8.3421   -5.6799   20.7635 F       1  UNL1       -0.1579
     12 F           7.4597   -3.3291   22.4052 F       1  UNL1       -0.1579
     13 C           8.2399   -5.2534   22.8390 C.3     1  UNL1        0.4202
     14 F           8.6446   -6.6959   22.7652 F       1  UNL1       -0.1876
     15 F           8.1743   -4.5598   24.1674 F       1  UNL1       -0.1876
     16 C           5.0712    0.4740   19.3979 C.ar    1  UNL1        0.0792
     17 C           4.9712    0.1328   17.9406 C.ar    1  UNL1        0.0175
     18 C           6.0427    0.5793   16.9905 C.ar    1  UNL1        0.0142
     19 C           7.2141    1.3670   17.4977 C.ar    1  UNL1        0.0768
     20 CL          8.2855    1.8136   16.5475 Cl      1  UNL1       -0.0806
     21 C           7.3141    1.7083   18.9549 C.ar    1  UNL1        0.1098
     22 N           6.2427    1.2618   19.9050 N.ar    1  UNL1       -0.2454
     23 N           2.9284   -0.4189   21.2981 N.pl3   1  UNL1       -0.3077
     24 H           2.0358   -0.6560   20.9572 H       1  UNL1        0.1492
     25 C           3.2171   -0.5042   22.7676 C.ar    1  UNL1        0.1602
     26 N           4.2505   -1.3784   23.4139 N.ar    1  UNL1       -0.2203
     27 C           4.1951   -1.1447   24.8944 C.ar    1  UNL1        0.1610
     28 C           3.1273   -0.1261   25.1632 C.ar    1  UNL1        0.0612
     29 S           2.5228    0.2698   23.8488 S.2     1  UNL1       -0.0513
     30 C           5.0562   -1.8124   25.9253 C.3     1  UNL1        0.4354
     31 F           5.9173   -2.4801   26.9562 F       1  UNL1       -0.1644
     32 F           3.9577   -1.6681   26.9364 F       1  UNL1       -0.1644
     33 F           6.1548   -1.9567   24.9142 F       1  UNL1       -0.1644
     34 C           3.6257    1.4584   20.5985 C.3     1  UNL1        0.0543
     35 C           2.2970    1.9783   20.1357 C.ar    1  UNL1       -0.0199
     36 C           1.4319    2.7663   21.0740 C.ar    1  UNL1       -0.0042
     37 C           0.1032    3.2863   20.6112 C.ar    1  UNL1       -0.0003
     38 C          -0.3604    3.0182   19.2101 C.ar    1  UNL1       -0.0000
     39 C           0.5048    2.2301   18.2717 C.ar    1  UNL1       -0.0003
     40 C           1.8335    1.7101   18.7345 C.ar    1  UNL1       -0.0042
@<TRIPOS>BOND
     1     2     3    1
     2     3     4   ar
     3     4     5   ar
     4     5     9    1
     5     9    10    1
     6    10    11    1
     7    10    12    1
     8    10    13    1
     9    13    14    1
    10    13    15    1
    11     5     6   ar
    12     6     7   ar
    13     7     1    1
    14     1    34    1
    15    34    35    1
    16    35    36   ar
    17    36    37   ar
    18    37    38   ar
    19    38    39   ar
    20    39    40   ar
    21     1    23    1
    22    23    25    1
    23    25    26   ar
    24    26    27   ar
    25    27    30    1
    26    30    31    1
    27    30    32    1
    28    30    33    1
    29    27    28   ar
    30    28    29   ar
    31     1    16    1
    32    16    17   ar
    33    17    18   ar
    34    18    19   ar
    35    19    20    1
    36    19    21   ar
    37    21    22   ar
    38     7     8   ar
    39     8     3   ar
    40    40    35   ar
    41    29    25   ar
    42    22    16   ar
    43    23    24    1
@<TRIPOS>MOLECULE
*****
 40 43 0 0 0
SMALL
GASTEIGER

@<TRIPOS>ATOM
      1 C          -6.5369  -17.0349   22.8376 C.3     1  UNL1        0.1146
      2 F          -9.0575  -13.3662   20.1568 F       1  UNL1       -0.2041
      3 C          -9.0439  -14.7104   20.8223 C.ar    1  UNL1        0.1429
      4 C         -10.2770  -15.5645   20.8129 C.ar    1  UNL1        0.0667
      5 C         -10.2634  -16.9087   21.4784 C.ar    1  UNL1        0.1461
      6 C          -9.0167  -17.3989   22.1533 C.ar    1  UNL1        0.0349
      7 C          -7.7837  -16.5448   22.1627 C.ar    1  UNL1        0.0045
      8 C          -7.7973  -15.2006   21.4972 C.ar    1  UNL1        0.0275
      9 O         -11.4965  -17.7628   21.4690 O.3     1  UNL1       -0.4263
     10 C         -12.2396  -18.0211   22.7461 C.3     1  UNL1        0.4723
     11 F         -12.8312  -16.6443   22.6804 F       1  UNL1       -0.1579
     12 F         -11.6481  -19.3980   22.8117 F       1  UNL1       -0.1579
     13 C         -12.9828  -18.2795   24.0232 C.3     1  UNL1        0.4202
     14 F         -14.4143  -17.8523   24.1575 F       1  UNL1       -0.1876
     15 F         -12.2943  -18.9652   25.1660 F       1  UNL1       -0.1876
     16 C          -7.0414  -16.5114   24.1496 C.ar    1  UNL1        0.0792
     17 C          -6.1865  -15.5899   24.9681 C.ar    1  UNL1        0.0175
     18 C          -6.6910  -15.0663   26.2801 C.ar    1  UNL1        0.0142
     19 C          -8.0504  -15.4642   26.7736 C.ar    1  UNL1        0.0768
     20 CL         -8.5550  -14.9406   28.0857 Cl      1  UNL1       -0.0806
     21 C          -8.9054  -16.3857   25.9552 C.ar    1  UNL1        0.1098
     22 N          -8.4009  -16.9093   24.6432 N.ar    1  UNL1       -0.2454
     23 N          -6.0325  -17.5585   21.5257 N.pl3   1  UNL1       -0.3077
     24 H          -5.3067  -17.0889   21.0546 H       1  UNL1        0.1492
     25 C          -6.6338  -18.7976   20.9314 C.ar    1  UNL1        0.1602
     26 N          -7.5181  -18.8553   19.7211 N.ar    1  UNL1       -0.2203
     27 C          -7.8872  -20.2898   19.4849 C.ar    1  UNL1        0.1610
     28 C          -7.2312  -21.1186   20.5491 C.ar    1  UNL1        0.0612
     29 S          -6.4565  -20.1965   21.4432 S.2     1  UNL1       -0.0513
     30 C          -8.7594  -20.8051   18.3786 C.3     1  UNL1        0.4354
     31 F          -9.6316  -21.3203   17.2723 F       1  UNL1       -0.1644
     32 F          -7.8462  -21.9827   18.2072 F       1  UNL1       -0.1644
     33 F          -9.6726  -19.6275   18.5500 F       1  UNL1       -0.1644
     34 C          -5.2903  -17.5250   23.5126 C.3     1  UNL1        0.0543
     35 C          -3.9765  -17.4730   22.7906 C.ar    1  UNL1       -0.0199
     36 C          -3.2900  -18.7451   22.3899 C.ar    1  UNL1       -0.0042
     37 C          -1.9763  -18.6931   21.6679 C.ar    1  UNL1       -0.0003
     38 C          -1.3490  -17.3690   21.3465 C.ar    1  UNL1       -0.0000
     39 C          -2.0355  -16.0969   21.7472 C.ar    1  UNL1       -0.0003
     40 C          -3.3492  -16.1489   22.4692 C.ar    1  UNL1       -0.0042
@<TRIPOS>BOND
     1     2     3    1
     2     3     4   ar
     3     4     5   ar
     4     5     9    1
     5     9    10    1
     6    10    11    1
     7    10    12    1
     8    10    13    1
     9    13    14    1
    10    13    15    1
    11     5     6   ar
    12     6     7   ar
    13     7     1    1
    14     1    34    1
    15    34    35    1
    16    35    36   ar
    17    36    37   ar
    18    37    38   ar
    19    38    39   ar
    20    39    40   ar
    21     1    23    1
    22    23    25    1
    23    25    26   ar
    24    26    27   ar
    25    27    30    1
    26    30    31    1
    27    30    32    1
    28    30    33    1
    29    27    28   ar
    30    28    29   ar
    31     1    16    1
    32    16    17   ar
    33    17    18   ar
    34    18    19   ar
    35    19    20    1
    36    19    21   ar
    37    21    22   ar
    38     7     8   ar
    39     8     3   ar
    40    40    35   ar
    41    29    25   ar
    42    22    16   ar
    43    23    24    1
@<TRIPOS>MOLECULE
*****
 40 43 0 0 0
SMALL
GASTEIGER

@<TRIPOS>ATOM
      1 C          -9.1813  -16.6739   22.3378 C.3     1  UNL1        0.1146
      2 F         -11.5730  -19.3168   18.5568 F       1  UNL1       -0.2041
      3 C         -10.3615  -19.0771   19.4082 C.ar    1  UNL1        0.1429
      4 C          -9.1344  -19.9191   19.2206 C.ar    1  UNL1        0.0667
      5 C          -7.9230  -19.6794   20.0720 C.ar    1  UNL1        0.1461
      6 C          -7.9386  -18.5977   21.1110 C.ar    1  UNL1        0.0349
      7 C          -9.1657  -17.7557   21.2987 C.ar    1  UNL1        0.0045
      8 C         -10.3771  -17.9954   20.4473 C.ar    1  UNL1        0.0275
      9 O          -6.6958  -20.5214   19.8843 O.3     1  UNL1       -0.4263
     10 C          -5.3827  -20.0705   20.4522 C.3     1  UNL1        0.4723
     11 F          -5.1730  -19.1822   19.2618 F       1  UNL1       -0.1579
     12 F          -5.5924  -20.9588   21.6425 F       1  UNL1       -0.1579
     13 C          -4.0697  -19.6195   21.0200 C.3     1  UNL1        0.4202
     14 F          -3.9638  -18.2850   21.6965 F       1  UNL1       -0.1876
     15 F          -2.8624  -20.5032   20.9113 F       1  UNL1       -0.1876
     16 C         -10.5442  -17.1181   22.7795 C.ar    1  UNL1        0.0792
     17 C         -11.7155  -16.1907   22.6448 C.ar    1  UNL1        0.0175
     18 C         -13.0785  -16.6349   23.0865 C.ar    1  UNL1        0.0142
     19 C         -13.2701  -18.0063   23.6630 C.ar    1  UNL1        0.0768
     20 CL        -14.6331  -18.4505   24.1047 Cl      1  UNL1       -0.0806
     21 C         -12.0989  -18.9337   23.7977 C.ar    1  UNL1        0.1098
     22 N         -10.7360  -18.4896   23.3560 N.ar    1  UNL1       -0.2454
     23 N          -7.8184  -16.2298   21.8961 N.pl3   1  UNL1       -0.3077
     24 H          -7.6461  -16.0420   20.9451 H       1  UNL1        0.1492
     25 C          -6.7180  -16.0720   22.9031 C.ar    1  UNL1        0.1602
     26 N          -6.1289  -17.1655   23.7441 N.ar    1  UNL1       -0.2203
     27 C          -5.0604  -16.5622   24.6067 C.ar    1  UNL1        0.1610
     28 C          -4.9891  -15.0958   24.2990 C.ar    1  UNL1        0.0612
     29 S          -6.0135  -14.7928   23.2461 S.2     1  UNL1       -0.0513
     30 C          -4.2120  -17.2963   25.6024 C.3     1  UNL1        0.4354
     31 F          -3.3635  -18.0305   26.5980 F       1  UNL1       -0.1644
     32 F          -4.8726  -16.5446   26.7197 F       1  UNL1       -0.1644
     33 F          -3.5513  -18.0481   24.4850 F       1  UNL1       -0.1644
     34 C          -9.1970  -15.5923   23.3768 C.3     1  UNL1        0.0543
     35 C          -8.9618  -15.9336   24.8184 C.ar    1  UNL1       -0.0199
     36 C          -8.4523  -14.8863   25.7636 C.ar    1  UNL1       -0.0042
     37 C          -8.2171  -15.2276   27.2052 C.ar    1  UNL1       -0.0003
     38 C          -8.4914  -16.6162   27.7016 C.ar    1  UNL1       -0.0000
     39 C          -9.0009  -17.6636   26.7564 C.ar    1  UNL1       -0.0003
     40 C          -9.2361  -17.3223   25.3148 C.ar    1  UNL1       -0.0042
@<TRIPOS>BOND
     1     2     3    1
     2     3     4   ar
     3     4     5   ar
     4     5     9    1
     5     9    10    1
     6    10    11    1
     7    10    12    1
     8    10    13    1
     9    13    14    1
    10    13    15    1
    11     5     6   ar
    12     6     7   ar
    13     7     1    1
    14     1    34    1
    15    34    35    1
    16    35    36   ar
    17    36    37   ar
    18    37    38   ar
    19    38    39   ar
    20    39    40   ar
    21     1    23    1
    22    23    25    1
    23    25    26   ar
    24    26    27   ar
    25    27    30    1
    26    30    31    1
    27    30    32    1
    28    30    33    1
    29    27    28   ar
    30    28    29   ar
    31     1    16    1
    32    16    17   ar
    33    17    18   ar
    34    18    19   ar
    35    19    20    1
    36    19    21   ar
    37    21    22   ar
    38     7     8   ar
    39     8     3   ar
    40    40    35   ar
    41    29    25   ar
    42    22    16   ar
    43    23    24    1
@<TRIPOS>MOLECULE
*****
 40 43 0 0 0
SMALL
GASTEIGER

@<TRIPOS>ATOM
      1 C          -6.2290  -16.9143   22.6378 C.3     1  UNL1        0.1146
      2 F          -8.9653  -13.2532   20.1660 F       1  UNL1       -0.2041
      3 C          -8.8875  -14.6097   20.8015 C.ar    1  UNL1        0.1429
      4 C         -10.0999  -15.4922   20.8366 C.ar    1  UNL1        0.0667
      5 C         -10.0220  -16.8487   21.4721 C.ar    1  UNL1        0.1461
      6 C          -8.7318  -17.3227   22.0725 C.ar    1  UNL1        0.0349
      7 C          -7.5194  -16.4402   22.0374 C.ar    1  UNL1        0.0045
      8 C          -7.5972  -15.0837   21.4018 C.ar    1  UNL1        0.0275
      9 O         -11.2345  -17.7311   21.5072 O.3     1  UNL1       -0.4263
     10 C         -11.8597  -18.0947   22.8214 C.3     1  UNL1        0.4723
     11 F         -11.4514  -19.5240   22.6202 F       1  UNL1       -0.1579
     12 F         -12.2680  -16.6654   23.0225 F       1  UNL1       -0.1579
     13 C         -12.4849  -18.4583   24.1355 C.3     1  UNL1        0.4202
     14 F         -11.7165  -19.2760   25.1309 F       1  UNL1       -0.1876
     15 F         -13.8785  -18.0040   24.4542 F       1  UNL1       -0.1876
     16 C          -6.3495  -18.2027   21.8793 C.ar    1  UNL1        0.0792
     17 C          -6.4504  -19.5028   22.6206 C.ar    1  UNL1        0.0175
     18 C          -6.5708  -20.7913   21.8620 C.ar    1  UNL1        0.0142
     19 C          -6.5904  -20.7796   20.3622 C.ar    1  UNL1        0.0768
     20 CL         -6.7108  -22.0681   19.6036 Cl      1  UNL1       -0.0806
     21 C          -6.4895  -19.4795   19.6209 C.ar    1  UNL1        0.1098
     22 N          -6.3690  -18.1911   20.3794 N.ar    1  UNL1       -0.2454
     23 N          -6.1086  -15.6258   23.3963 N.pl3   1  UNL1       -0.3077
     24 H          -5.8010  -14.8111   22.9370 H       1  UNL1        0.1492
     25 C          -6.4568  -15.5786   24.8545 C.ar    1  UNL1        0.1602
     26 N          -7.7824  -15.9397   25.4566 N.ar    1  UNL1       -0.2203
     27 C          -7.6854  -15.7462   26.9408 C.ar    1  UNL1        0.1610
     28 C          -6.2999  -15.2656   27.2561 C.ar    1  UNL1        0.0612
     29 S          -5.5406  -15.1619   25.9668 S.2     1  UNL1       -0.0513
     30 C          -8.7815  -15.9905   27.9354 C.3     1  UNL1        0.4354
     31 F          -9.8775  -16.2349   28.9298 F       1  UNL1       -0.1644
     32 F          -8.7751  -14.5355   28.2998 F       1  UNL1       -0.1644
     33 F          -8.7878  -17.4456   27.5709 F       1  UNL1       -0.1644
     34 C          -4.9388  -17.3883   23.2381 C.3     1  UNL1        0.0543
     35 C          -3.6947  -17.4348   22.4014 C.ar    1  UNL1       -0.0199
     36 C          -3.2007  -18.7452   21.8641 C.ar    1  UNL1       -0.0042
     37 C          -1.9566  -18.7918   21.0275 C.ar    1  UNL1       -0.0003
     38 C          -1.2064  -17.5279   20.7281 C.ar    1  UNL1       -0.0000
     39 C          -1.7003  -16.2173   21.2654 C.ar    1  UNL1       -0.0003
     40 C          -2.9445  -16.1708   22.1021 C.ar    1  UNL1       -0.0042
@<TRIPOS>BOND
     1     2     3    1
     2     3     4   ar
     3     4     5   ar
     4     5     9    1
     5     9    10    1
     6    10    11    1
     7    10    12    1
     8    10    13    1
     9    13    14    1
    10    13    15    1
    11     5     6   ar
    12     6     7   ar
    13     7     1    1
    14     1    34    1
    15    34    35    1
    16    35    36   ar
    17    36    37   ar
    18    37    38   ar
    19    38    39   ar
    20    39    40   ar
    21     1    23    1
    22    23    25    1
    23    25    26   ar
    24    26    27   ar
    25    27    30    1
    26    30    31    1
    27    30    32    1
    28    30    33    1
    29    27    28   ar
    30    28    29   ar
    31     1    16    1
    32    16    17   ar
    33    17    18   ar
    34    18    19   ar
    35    19    20    1
    36    19    21   ar
    37    21    22   ar
    38     7     8   ar
    39     8     3   ar
    40    40    35   ar
    41    29    25   ar
    42    22    16   ar
    43    23    24    1
@<TRIPOS>MOLECULE
*****
 40 43 0 0 0
SMALL
GASTEIGER

@<TRIPOS>ATOM
      1 C           3.9415    1.2895   19.7584 C.3     1  UNL1        0.1146
      2 F           5.1679    4.0259   24.0019 F       1  UNL1       -0.2041
      3 C           4.3017    3.0117   23.3156 C.ar    1  UNL1        0.1429
      4 C           3.1824    2.3515   24.0648 C.ar    1  UNL1        0.0667
      5 C           2.3162    1.3373   23.3786 C.ar    1  UNL1        0.1461
      6 C           2.5692    0.9833   21.9431 C.ar    1  UNL1        0.0349
      7 C           3.6885    1.6435   21.1939 C.ar    1  UNL1        0.0045
      8 C           4.5547    2.6577   21.8802 C.ar    1  UNL1        0.0275
      9 O           1.1969    0.6770   24.1278 O.3     1  UNL1       -0.4263
     10 C           0.1455    1.5131   24.7954 C.3     1  UNL1        0.4723
     11 F          -0.2277    2.1037   23.4680 F       1  UNL1       -0.1579
     12 F           0.5187    0.9225   26.1228 F       1  UNL1       -0.1579
     13 C          -0.9058    2.3492   25.4630 C.3     1  UNL1        0.4202
     14 F          -1.1661    2.1945   26.9320 F       1  UNL1       -0.1876
     15 F          -1.6970    3.3400   24.6613 F       1  UNL1       -0.1876
     16 C           2.6869    2.0085   19.3599 C.ar    1  UNL1        0.0792
     17 C           1.5959    1.2712   18.6413 C.ar    1  UNL1        0.0175
     18 C           0.3412    1.9903   18.2429 C.ar    1  UNL1        0.0142
     19 C           0.1775    3.4465   18.5631 C.ar    1  UNL1        0.0768
     20 CL         -1.0773    4.1656   18.1646 Cl      1  UNL1       -0.0806
     21 C           1.2684    4.1838   19.2817 C.ar    1  UNL1        0.1098
     22 N           2.5231    3.4648   19.6801 N.ar    1  UNL1       -0.2454
     23 N           5.1962    0.5705   20.1568 N.pl3   1  UNL1       -0.3077
     24 H           5.9702    1.0792   20.4907 H       1  UNL1        0.1492
     25 C           5.2718   -0.9235   20.0465 C.ar    1  UNL1        0.1602
     26 N           4.1258   -1.8784   20.2049 N.ar    1  UNL1       -0.2203
     27 C           4.6523   -3.2699   20.0148 C.ar    1  UNL1        0.1610
     28 C           6.1236   -3.1752   19.7388 C.ar    1  UNL1        0.0612
     29 S           6.5066   -1.7251   19.7584 S.2     1  UNL1       -0.0513
     30 C           3.8486   -4.5344   20.0877 C.3     1  UNL1        0.4354
     31 F           3.0450   -5.7988   20.1608 F       1  UNL1       -0.1644
     32 F           3.5938   -4.4576   18.6116 F       1  UNL1       -0.1644
     33 F           4.1036   -4.6111   21.5640 F       1  UNL1       -0.1644
     34 C           4.1946    0.9355   18.3229 C.3     1  UNL1        0.0543
     35 C           5.3026    1.6086   17.5685 C.ar    1  UNL1       -0.0199
     36 C           5.4663    3.0976   17.6462 C.ar    1  UNL1       -0.0042
     37 C           6.5744    3.7707   16.8918 C.ar    1  UNL1       -0.0003
     38 C           7.5188    2.9549   16.0598 C.ar    1  UNL1       -0.0000
     39 C           7.3552    1.4658   15.9820 C.ar    1  UNL1       -0.0003
     40 C           6.2471    0.7927   16.7364 C.ar    1  UNL1       -0.0042
@<TRIPOS>BOND
     1     2     3    1
     2     3     4   ar
     3     4     5   ar
     4     5     9    1
     5     9    10    1
     6    10    11    1
     7    10    12    1
     8    10    13    1
     9    13    14    1
    10    13    15    1
    11     5     6   ar
    12     6     7   ar
    13     7     1    1
    14     1    34    1
    15    34    35    1
    16    35    36   ar
    17    36    37   ar
    18    37    38   ar
    19    38    39   ar
    20    39    40   ar
    21     1    23    1
    22    23    25    1
    23    25    26   ar
    24    26    27   ar
    25    27    30    1
    26    30    31    1
    27    30    32    1
    28    30    33    1
    29    27    28   ar
    30    28    29   ar
    31     1    16    1
    32    16    17   ar
    33    17    18   ar
    34    18    19   ar
    35    19    20    1
    36    19    21   ar
    37    21    22   ar
    38     7     8   ar
    39     8     3   ar
    40    40    35   ar
    41    29    25   ar
    42    22    16   ar
    43    23    24    1
@<TRIPOS>MOLECULE
*****
 40 43 0 0 0
SMALL
GASTEIGER

@<TRIPOS>ATOM
      1 C           0.5781    2.9210   21.7603 C.3     1  UNL1        0.1146
      2 F           3.8537    2.8490   17.7273 F       1  UNL1       -0.2041
      3 C           3.0408    2.1172   18.7538 C.ar    1  UNL1        0.1429
      4 C           3.0528    0.6177   18.7904 C.ar    1  UNL1        0.0667
      5 C           2.2400   -0.1140   19.8169 C.ar    1  UNL1        0.1461
      6 C           1.4151    0.6537   20.8069 C.ar    1  UNL1        0.0349
      7 C           1.4030    2.1532   20.7703 C.ar    1  UNL1        0.0045
      8 C           2.2159    2.8849   19.7438 C.ar    1  UNL1        0.0275
      9 O           2.2520   -1.6136   19.8535 O.3     1  UNL1       -0.4263
     10 C           3.5457   -2.3488   20.0433 C.3     1  UNL1        0.4723
     11 F           3.5087   -2.0354   21.5097 F       1  UNL1       -0.1579
     12 F           3.5827   -2.6622   18.5768 F       1  UNL1       -0.1579
     13 C           4.8393   -3.0839   20.2330 C.3     1  UNL1        0.4202
     14 F           5.1378   -3.7507   21.5431 F       1  UNL1       -0.1876
     15 F           5.8345   -3.1523   19.1127 F       1  UNL1       -0.1876
     16 C           1.8005    3.6738   22.1949 C.ar    1  UNL1        0.0792
     17 C           1.8507    5.1666   22.0562 C.ar    1  UNL1        0.0175
     18 C           3.0732    5.9194   22.4909 C.ar    1  UNL1        0.0142
     19 C           4.2453    5.1796   23.0642 C.ar    1  UNL1        0.0768
     20 CL          5.4678    5.9325   23.4988 Cl      1  UNL1       -0.0806
     21 C           4.1950    3.6869   23.2029 C.ar    1  UNL1        0.1098
     22 N           2.9726    2.9340   22.7683 N.ar    1  UNL1       -0.2454
     23 N          -0.6443    2.1681   21.3257 N.pl3   1  UNL1       -0.3077
     24 H          -0.7365    1.2121   21.5422 H       1  UNL1        0.1492
     25 C          -1.7262    2.8717   20.5613 C.ar    1  UNL1        0.1602
     26 N          -3.2006    2.7573   20.8125 N.ar    1  UNL1       -0.2203
     27 C          -3.9092    3.6281   19.8179 C.ar    1  UNL1        0.1610
     28 C          -2.8729    4.2808   18.9519 C.ar    1  UNL1        0.0612
     29 S          -1.5237    3.8134   19.4113 S.2     1  UNL1       -0.0513
     30 C          -5.3937    3.8138   19.7084 C.3     1  UNL1        0.4354
     31 F          -6.8781    3.9993   19.5987 F       1  UNL1       -0.1644
     32 F          -5.4215    4.4050   21.0866 F       1  UNL1       -0.1644
     33 F          -5.3658    3.2224   18.3300 F       1  UNL1       -0.1644
     34 C          -0.2468    3.6888   22.7503 C.3     1  UNL1        0.0543
     35 C          -0.4957    3.1239   24.1174 C.ar    1  UNL1       -0.0199
     36 C          -1.4001    3.8440   25.0732 C.ar    1  UNL1       -0.0042
     37 C          -1.6490    3.2791   26.4403 C.ar    1  UNL1       -0.0003
     38 C          -0.9935    1.9942   26.8516 C.ar    1  UNL1       -0.0000
     39 C          -0.0891    1.2740   25.8958 C.ar    1  UNL1       -0.0003
     40 C           0.1599    1.8389   24.5287 C.ar    1  UNL1       -0.0042
@<TRIPOS>BOND
     1     2     3    1
     2     3     4   ar
     3     4     5   ar
     4     5     9    1
     5     9    10    1
     6    10    11    1
     7    10    12    1
     8    10    13    1
     9    13    14    1
    10    13    15    1
    11     5     6   ar
    12     6     7   ar
    13     7     1    1
    14     1    34    1
    15    34    35    1
    16    35    36   ar
    17    36    37   ar
    18    37    38   ar
    19    38    39   ar
    20    39    40   ar
    21     1    23    1
    22    23    25    1
    23    25    26   ar
    24    26    27   ar
    25    27    30    1
    26    30    31    1
    27    30    32    1
    28    30    33    1
    29    27    28   ar
    30    28    29   ar
    31     1    16    1
    32    16    17   ar
    33    17    18   ar
    34    18    19   ar
    35    19    20    1
    36    19    21   ar
    37    21    22   ar
    38     7     8   ar
    39     8     3   ar
    40    40    35   ar
    41    29    25   ar
    42    22    16   ar
    43    23    24    1
@<TRIPOS>MOLECULE
*****
 40 43 0 0 0
SMALL
GASTEIGER

@<TRIPOS>ATOM
      1 C           6.3068   -2.1917   22.4814 C.3     1  UNL1        0.1146
      2 F           3.0976   -5.6933   20.3743 F       1  UNL1       -0.2041
      3 C           3.9853   -4.4928   20.2307 C.ar    1  UNL1        0.1429
      4 C           4.1562   -3.8424   18.8898 C.ar    1  UNL1        0.0667
      5 C           5.0438   -2.6419   18.7462 C.ar    1  UNL1        0.1461
      6 C           5.7607   -2.0916   19.9434 C.ar    1  UNL1        0.0349
      7 C           5.5899   -2.7420   21.2842 C.ar    1  UNL1        0.0045
      8 C           4.7022   -3.9425   21.4278 C.ar    1  UNL1        0.0275
      9 O           5.2146   -1.9915   17.4053 O.3     1  UNL1       -0.4263
     10 C           5.2731   -0.4964   17.2989 C.3     1  UNL1        0.4723
     11 F           6.7511   -0.5717   17.0537 F       1  UNL1       -0.1579
     12 F           3.7952   -0.4212   17.5440 F       1  UNL1       -0.1579
     13 C           5.3317    0.9986   17.1924 C.3     1  UNL1        0.4202
     14 F           4.4184    1.8463   18.0275 F       1  UNL1       -0.1876
     15 F           6.3035    1.6460   16.2509 F       1  UNL1       -0.1876
     16 C           5.0758   -1.4262   22.8667 C.ar    1  UNL1        0.0792
     17 C           4.4843   -0.4289   21.9152 C.ar    1  UNL1        0.0175
     18 C           3.2532    0.3366   22.3005 C.ar    1  UNL1        0.0142
     19 C           2.6136    0.1048   23.6373 C.ar    1  UNL1        0.0768
     20 CL          1.3825    0.8703   24.0227 Cl      1  UNL1       -0.0806
     21 C           3.2051   -0.8926   24.5889 C.ar    1  UNL1        0.1098
     22 N           4.4361   -1.6581   24.2036 N.ar    1  UNL1       -0.2454
     23 N           7.5379   -2.9572   22.0962 N.pl3   1  UNL1       -0.3077
     24 H           8.0144   -2.7364   21.2635 H       1  UNL1        0.1492
     25 C           8.0430   -4.0592   22.9796 C.ar    1  UNL1        0.1602
     26 N           7.2017   -5.0915   23.6700 N.ar    1  UNL1       -0.2203
     27 C           8.1168   -5.9926   24.4448 C.ar    1  UNL1        0.1610
     28 C           9.5237   -5.5173   24.2333 C.ar    1  UNL1        0.0612
     29 S           9.4781   -4.3224   23.3278 S.2     1  UNL1       -0.0513
     30 C           7.6985   -7.1636   25.2839 C.3     1  UNL1        0.4354
     31 F           7.2802   -8.3344   26.1230 F       1  UNL1       -0.1644
     32 F           8.6363   -8.0481   24.5170 F       1  UNL1       -0.1644
     33 F           6.7607   -6.2790   26.0507 F       1  UNL1       -0.1644
     34 C           7.0236   -1.6415   23.6787 C.3     1  UNL1        0.0543
     35 C           7.5819   -0.2497   23.6444 C.ar    1  UNL1       -0.0199
     36 C           8.3128    0.2355   22.4277 C.ar    1  UNL1       -0.0042
     37 C           8.8711    1.6273   22.3935 C.ar    1  UNL1       -0.0003
     38 C           8.6985    2.5339   23.5759 C.ar    1  UNL1       -0.0000
     39 C           7.9676    2.0488   24.7927 C.ar    1  UNL1       -0.0003
     40 C           7.4093    0.6569   24.8269 C.ar    1  UNL1       -0.0042
@<TRIPOS>BOND
     1     2     3    1
     2     3     4   ar
     3     4     5   ar
     4     5     9    1
     5     9    10    1
     6    10    11    1
     7    10    12    1
     8    10    13    1
     9    13    14    1
    10    13    15    1
    11     5     6   ar
    12     6     7   ar
    13     7     1    1
    14     1    34    1
    15    34    35    1
    16    35    36   ar
    17    36    37   ar
    18    37    38   ar
    19    38    39   ar
    20    39    40   ar
    21     1    23    1
    22    23    25    1
    23    25    26   ar
    24    26    27   ar
    25    27    30    1
    26    30    31    1
    27    30    32    1
    28    30    33    1
    29    27    28   ar
    30    28    29   ar
    31     1    16    1
    32    16    17   ar
    33    17    18   ar
    34    18    19   ar
    35    19    20    1
    36    19    21   ar
    37    21    22   ar
    38     7     8   ar
    39     8     3   ar
    40    40    35   ar
    41    29    25   ar
    42    22    16   ar
    43    23    24    1
