@<TRIPOS>MOLECULE
*****
 22 24 0 0 0
SMALL
GASTEIGER

@<TRIPOS>ATOM
      1 C          -5.5941  -16.2106   24.1379 C.3     1  UNL1        0.0207
      2 C          -4.6152  -17.1336   23.4750 C.3     1  UNL1        0.0274
      3 C          -5.1025  -18.1860   22.5236 C.ar    1  UNL1       -0.0258
      4 C          -4.1236  -19.1091   21.8607 C.ar    1  UNL1       -0.0046
      5 C          -4.6110  -20.1614   20.9094 C.ar    1  UNL1       -0.0003
      6 C          -6.0773  -20.2907   20.6211 C.ar    1  UNL1       -0.0003
      7 C          -7.0563  -19.3677   21.2840 C.ar    1  UNL1       -0.0043
      8 C          -6.5689  -18.3153   22.2353 C.ar    1  UNL1       -0.0224
      9 C          -7.5479  -17.3922   22.8983 C.3     1  UNL1        0.0443
     10 C          -7.0605  -16.3398   23.8496 C.3     1  UNL1        0.0104
     11 C          -9.0142  -17.5215   22.6100 C.ar    1  UNL1       -0.0175
     12 C          -9.8580  -18.4603   23.4203 C.ar    1  UNL1       -0.0030
     13 C         -11.3243  -18.5896   23.1320 C.ar    1  UNL1        0.0119
     14 C         -11.9469  -17.7800   22.0333 C.ar    1  UNL1        0.0682
     15 CL        -13.4132  -17.9093   21.7449 Cl      1  UNL1       -0.0814
     16 C         -11.1031  -16.8412   21.2230 C.ar    1  UNL1        0.0679
     17 CL        -11.7256  -16.0316   20.1243 Cl      1  UNL1       -0.0814
     18 C          -9.6367  -16.7119   21.5113 C.ar    1  UNL1        0.0083
     19 C          -5.1068  -15.1582   25.0893 C.3     1  UNL1        0.0689
     20 C          -6.6010  -15.4025   27.2005 C.3     1  UNL1        0.0859
     21 N          -6.0487  -14.5581   26.0906 N.3     1  UNL1       -0.2963
     22 H          -5.5556  -13.7806   26.5296 H       1  UNL1        0.1233
@<TRIPOS>BOND
     1    20    21    1
     2    21    19    1
     3     1    19    1
     4     1     2    1
     5     2     3    1
     6     3     4   ar
     7     4     5   ar
     8     5     6   ar
     9     6     7   ar
    10     7     8   ar
    11     8     9    1
    12     9    11    1
    13    11    12   ar
    14    12    13   ar
    15    13    14   ar
    16    14    15    1
    17    14    16   ar
    18    16    17    1
    19    16    18   ar
    20     9    10    1
    21    10     1    1
    22     8     3   ar
    23    18    11   ar
    24    21    22    1
@<TRIPOS>MOLECULE
*****
 22 24 0 0 0
SMALL
GASTEIGER

@<TRIPOS>ATOM
      1 C          -5.9500  -19.3358   21.6378 C.3     1  UNL1        0.0207
      2 C          -5.0454  -18.3449   22.3085 C.3     1  UNL1        0.0274
      3 C          -5.6219  -17.2929   23.2091 C.ar    1  UNL1       -0.0258
      4 C          -4.7173  -16.3020   23.8798 C.ar    1  UNL1       -0.0046
      5 C          -5.2937  -15.2501   24.7804 C.ar    1  UNL1       -0.0003
      6 C          -6.7748  -15.1890   25.0102 C.ar    1  UNL1       -0.0003
      7 C          -7.6793  -16.1799   24.3395 C.ar    1  UNL1       -0.0043
      8 C          -7.1029  -17.2318   23.4390 C.ar    1  UNL1       -0.0224
      9 C          -8.0075  -18.2228   22.7682 C.3     1  UNL1        0.0443
     10 C          -7.4310  -19.2747   21.8677 C.3     1  UNL1        0.0104
     11 C          -9.4885  -18.1617   22.9981 C.ar    1  UNL1       -0.0175
     12 C         -10.0898  -18.8338   24.1968 C.ar    1  UNL1       -0.0030
     13 C         -11.5708  -18.7728   24.4267 C.ar    1  UNL1        0.0119
     14 C         -12.4505  -18.0396   23.4579 C.ar    1  UNL1        0.0682
     15 CL        -13.9316  -17.9785   23.6877 Cl      1  UNL1       -0.0814
     16 C         -11.8492  -17.3675   22.2592 C.ar    1  UNL1        0.0679
     17 CL        -12.7290  -16.6343   21.2904 Cl      1  UNL1       -0.0814
     18 C         -10.3682  -17.4286   22.0294 C.ar    1  UNL1        0.0083
     19 C          -5.3736  -20.3878   20.7372 C.3     1  UNL1        0.0689
     20 C          -3.4347  -19.3676   19.3409 C.3     1  UNL1        0.0859
     21 N          -3.9200  -20.3458   20.3692 N.3     1  UNL1       -0.2963
     22 H          -3.4045  -20.1508   21.2275 H       1  UNL1        0.1233
@<TRIPOS>BOND
     1    20    21    1
     2    21    19    1
     3     1    19    1
     4     1     2    1
     5     2     3    1
     6     3     4   ar
     7     4     5   ar
     8     5     6   ar
     9     6     7   ar
    10     7     8   ar
    11     8     9    1
    12     9    11    1
    13    11    12   ar
    14    12    13   ar
    15    13    14   ar
    16    14    15    1
    17    14    16   ar
    18    16    17    1
    19    16    18   ar
    20     9    10    1
    21    10     1    1
    22     8     3   ar
    23    18    11   ar
    24    21    22    1
@<TRIPOS>MOLECULE
*****
 22 24 0 0 0
SMALL
GASTEIGER

@<TRIPOS>ATOM
      1 C          -4.9327  -16.8708   23.4959 C.3     1  UNL1        0.0207
      2 C          -4.8045  -16.2073   24.8350 C.3     1  UNL1        0.0274
      3 C          -6.0348  -15.8174   25.5997 C.ar    1  UNL1       -0.0258
      4 C          -5.9066  -15.1539   26.9388 C.ar    1  UNL1       -0.0046
      5 C          -7.1368  -14.7642   27.7034 C.ar    1  UNL1       -0.0003
      6 C          -8.4951  -15.0379   27.1289 C.ar    1  UNL1       -0.0003
      7 C          -8.6233  -15.7014   25.7898 C.ar    1  UNL1       -0.0043
      8 C          -7.3931  -16.0912   25.0252 C.ar    1  UNL1       -0.0224
      9 C          -7.5212  -16.7547   23.6860 C.3     1  UNL1        0.0443
     10 C          -6.2910  -17.1445   22.9214 C.3     1  UNL1        0.0104
     11 C          -8.8795  -17.0284   23.1115 C.ar    1  UNL1       -0.0175
     12 C          -9.7660  -18.0616   23.7415 C.ar    1  UNL1       -0.0030
     13 C         -11.1243  -18.3353   23.1670 C.ar    1  UNL1        0.0119
     14 C         -11.5961  -17.5759   21.9625 C.ar    1  UNL1        0.0682
     15 CL        -12.9544  -17.8496   21.3880 Cl      1  UNL1       -0.0814
     16 C         -10.7096  -16.5428   21.3325 C.ar    1  UNL1        0.0679
     17 CL        -11.1815  -15.7834   20.1281 Cl      1  UNL1       -0.0814
     18 C          -9.3513  -16.2691   21.9071 C.ar    1  UNL1        0.0083
     19 C          -3.7025  -17.2606   22.7312 C.3     1  UNL1        0.0689
     20 C          -1.8443  -16.5497   21.0604 C.3     1  UNL1        0.0859
     21 N          -2.8124  -16.2013   22.1519 N.3     1  UNL1       -0.2963
     22 H          -3.4235  -15.4731   21.7821 H       1  UNL1        0.1233
@<TRIPOS>BOND
     1    20    21    1
     2    21    19    1
     3     1    19    1
     4     1     2    1
     5     2     3    1
     6     3     4   ar
     7     4     5   ar
     8     5     6   ar
     9     6     7   ar
    10     7     8   ar
    11     8     9    1
    12     9    11    1
    13    11    12   ar
    14    12    13   ar
    15    13    14   ar
    16    14    15    1
    17    14    16   ar
    18    16    17    1
    19    16    18   ar
    20     9    10    1
    21    10     1    1
    22     8     3   ar
    23    18    11   ar
    24    21    22    1
@<TRIPOS>MOLECULE
*****
 22 24 0 0 0
SMALL
GASTEIGER

@<TRIPOS>ATOM
      1 C         -12.0343  -17.9380   22.4870 C.3     1  UNL1        0.0207
      2 C         -11.6540  -18.7345   21.2742 C.3     1  UNL1        0.0274
      3 C         -10.2103  -18.8771   20.8930 C.ar    1  UNL1       -0.0258
      4 C          -9.8300  -19.6736   19.6802 C.ar    1  UNL1       -0.0046
      5 C          -8.3863  -19.8163   19.2990 C.ar    1  UNL1       -0.0003
      6 C          -7.3229  -19.1624   20.1307 C.ar    1  UNL1       -0.0003
      7 C          -7.7031  -18.3659   21.3435 C.ar    1  UNL1       -0.0043
      8 C          -9.1468  -18.2233   21.7246 C.ar    1  UNL1       -0.0224
      9 C          -9.5272  -17.4268   22.9375 C.3     1  UNL1        0.0443
     10 C         -10.9709  -17.2841   23.3187 C.3     1  UNL1        0.0104
     11 C          -8.4638  -16.7729   23.7691 C.ar    1  UNL1       -0.0175
     12 C          -7.1488  -16.4028   23.1494 C.ar    1  UNL1       -0.0030
     13 C          -6.0854  -15.7489   23.9811 C.ar    1  UNL1        0.0119
     14 C          -6.3370  -15.4652   25.4324 C.ar    1  UNL1        0.0682
     15 CL         -5.2735  -14.8114   26.2641 Cl      1  UNL1       -0.0814
     16 C          -7.6519  -15.8354   26.0520 C.ar    1  UNL1        0.0679
     17 CL         -7.9034  -15.5516   27.5034 Cl      1  UNL1       -0.0814
     18 C          -8.7153  -16.4892   25.2204 C.ar    1  UNL1        0.0083
     19 C         -13.4781  -17.7953   22.8682 C.3     1  UNL1        0.0689
     20 C         -15.0721  -18.5366   24.7812 C.3     1  UNL1        0.0859
     21 N         -13.8724  -17.7662   24.3152 N.3     1  UNL1       -0.2963
     22 H         -13.0740  -18.1158   24.8450 H       1  UNL1        0.1233
@<TRIPOS>BOND
     1    20    21    1
     2    21    19    1
     3     1    19    1
     4     1     2    1
     5     2     3    1
     6     3     4   ar
     7     4     5   ar
     8     5     6   ar
     9     6     7   ar
    10     7     8   ar
    11     8     9    1
    12     9    11    1
    13    11    12   ar
    14    12    13   ar
    15    13    14   ar
    16    14    15    1
    17    14    16   ar
    18    16    17    1
    19    16    18   ar
    20     9    10    1
    21    10     1    1
    22     8     3   ar
    23    18    11   ar
    24    21    22    1
@<TRIPOS>MOLECULE
*****
 22 24 0 0 0
SMALL
GASTEIGER

@<TRIPOS>ATOM
      1 C          -8.5127  -16.1095   24.2205 C.3     1  UNL1        0.0207
      2 C          -9.9616  -16.3146   23.8912 C.3     1  UNL1        0.0274
      3 C         -10.3604  -17.3304   22.8620 C.ar    1  UNL1       -0.0258
      4 C         -11.8094  -17.5354   22.5327 C.ar    1  UNL1       -0.0046
      5 C         -12.2081  -18.5512   21.5036 C.ar    1  UNL1       -0.0003
      6 C         -11.1579  -19.3619   20.8037 C.ar    1  UNL1       -0.0003
      7 C          -9.7090  -19.1569   21.1330 C.ar    1  UNL1       -0.0043
      8 C          -9.3102  -18.1411   22.1622 C.ar    1  UNL1       -0.0224
      9 C          -7.8612  -17.9361   22.4915 C.3     1  UNL1        0.0443
     10 C          -7.4625  -16.9203   23.5207 C.3     1  UNL1        0.0104
     11 C          -6.8110  -18.7468   21.7917 C.ar    1  UNL1       -0.0175
     12 C          -7.1926  -19.6460   20.6532 C.ar    1  UNL1       -0.0030
     13 C          -6.1424  -20.4567   19.9534 C.ar    1  UNL1        0.0119
     14 C          -4.7106  -20.3683   20.3920 C.ar    1  UNL1        0.0682
     15 CL         -3.6604  -21.1791   19.6922 Cl      1  UNL1       -0.0814
     16 C          -4.3291  -19.4692   21.5304 C.ar    1  UNL1        0.0679
     17 CL         -2.8974  -19.3808   21.9690 Cl      1  UNL1       -0.0814
     18 C          -5.3793  -18.6584   22.2303 C.ar    1  UNL1        0.0083
     19 C          -8.1139  -15.0937   25.2497 C.3     1  UNL1        0.0689
     20 C          -5.7029  -15.2445   26.2059 C.3     1  UNL1        0.0859
     21 N          -6.7019  -14.5899   25.2984 N.3     1  UNL1       -0.2963
     22 H          -6.3307  -14.6620   24.3511 H       1  UNL1        0.1233
@<TRIPOS>BOND
     1    20    21    1
     2    21    19    1
     3     1    19    1
     4     1     2    1
     5     2     3    1
     6     3     4   ar
     7     4     5   ar
     8     5     6   ar
     9     6     7   ar
    10     7     8   ar
    11     8     9    1
    12     9    11    1
    13    11    12   ar
    14    12    13   ar
    15    13    14   ar
    16    14    15    1
    17    14    16   ar
    18    16    17    1
    19    16    18   ar
    20     9    10    1
    21    10     1    1
    22     8     3   ar
    23    18    11   ar
    24    21    22    1
@<TRIPOS>MOLECULE
*****
 22 24 0 0 0
SMALL
GASTEIGER

@<TRIPOS>ATOM
      1 C          -8.9366  -16.4265   23.8495 C.3     1  UNL1        0.0207
      2 C         -10.0751  -16.8487   22.9688 C.3     1  UNL1        0.0274
      3 C          -9.8278  -17.7768   21.8166 C.ar    1  UNL1       -0.0258
      4 C         -10.9663  -18.1989   20.9360 C.ar    1  UNL1       -0.0046
      5 C         -10.7190  -19.1270   19.7838 C.ar    1  UNL1       -0.0003
      6 C          -9.3332  -19.6329   19.5123 C.ar    1  UNL1       -0.0003
      7 C          -8.1947  -19.2107   20.3930 C.ar    1  UNL1       -0.0043
      8 C          -8.4420  -18.2827   21.5451 C.ar    1  UNL1       -0.0224
      9 C          -7.3035  -17.8604   22.4259 C.3     1  UNL1        0.0443
     10 C          -7.5508  -16.9324   23.5780 C.3     1  UNL1        0.0104
     11 C          -5.9178  -18.3663   22.1544 C.ar    1  UNL1       -0.0175
     12 C          -4.7606  -17.8520   22.9586 C.ar    1  UNL1       -0.0030
     13 C          -3.3749  -18.3579   22.6871 C.ar    1  UNL1        0.0119
     14 C          -3.1462  -19.3781   21.6114 C.ar    1  UNL1        0.0682
     15 CL         -1.7604  -19.8840   21.3399 Cl      1  UNL1       -0.0814
     16 C          -4.3033  -19.8924   20.8073 C.ar    1  UNL1        0.0679
     17 CL         -4.0747  -20.9126   19.7316 Cl      1  UNL1       -0.0814
     18 C          -5.6891  -19.3865   21.0788 C.ar    1  UNL1        0.0083
     19 C          -9.1839  -15.4984   25.0017 C.3     1  UNL1        0.0689
     20 C          -8.0328  -15.7074   27.3214 C.3     1  UNL1        0.0859
     21 N          -8.0625  -15.1426   25.9322 N.3     1  UNL1       -0.2963
     22 H          -7.1979  -15.4352   25.4768 H       1  UNL1        0.1233
@<TRIPOS>BOND
     1    20    21    1
     2    21    19    1
     3     1    19    1
     4     1     2    1
     5     2     3    1
     6     3     4   ar
     7     4     5   ar
     8     5     6   ar
     9     6     7   ar
    10     7     8   ar
    11     8     9    1
    12     9    11    1
    13    11    12   ar
    14    12    13   ar
    15    13    14   ar
    16    14    15    1
    17    14    16   ar
    18    16    17    1
    19    16    18   ar
    20     9    10    1
    21    10     1    1
    22     8     3   ar
    23    18    11   ar
    24    21    22    1
@<TRIPOS>MOLECULE
*****
 22 24 0 0 0
SMALL
GASTEIGER

@<TRIPOS>ATOM
      1 C          -4.5249  -18.5413   22.2520 C.3     1  UNL1        0.0207
      2 C          -4.0430  -17.6570   23.3636 C.3     1  UNL1        0.0274
      3 C          -5.0184  -16.8051   24.1207 C.ar    1  UNL1       -0.0258
      4 C          -4.5365  -15.9207   25.2323 C.ar    1  UNL1       -0.0046
      5 C          -5.5118  -15.0689   25.9894 C.ar    1  UNL1       -0.0003
      6 C          -6.9689  -15.1015   25.6349 C.ar    1  UNL1       -0.0003
      7 C          -7.4508  -15.9858   24.5233 C.ar    1  UNL1       -0.0043
      8 C          -6.4755  -16.8376   23.7662 C.ar    1  UNL1       -0.0224
      9 C          -6.9573  -17.7221   22.6545 C.3     1  UNL1        0.0443
     10 C          -5.9820  -18.5739   21.8975 C.3     1  UNL1        0.0104
     11 C          -8.4145  -17.7546   22.3000 C.ar    1  UNL1       -0.0175
     12 C          -9.1355  -16.4804   21.9735 C.ar    1  UNL1       -0.0030
     13 C         -10.5927  -16.5130   21.6190 C.ar    1  UNL1        0.0119
     14 C         -11.3287  -17.8197   21.5910 C.ar    1  UNL1        0.0682
     15 CL        -12.7859  -17.8523   21.2364 Cl      1  UNL1       -0.0814
     16 C         -10.6077  -19.0938   21.9175 C.ar    1  UNL1        0.0679
     17 CL        -11.3437  -20.4006   21.8894 Cl      1  UNL1       -0.0814
     18 C          -9.1505  -19.0613   22.2720 C.ar    1  UNL1        0.0083
     19 C          -3.5496  -19.3932   21.4949 C.3     1  UNL1        0.0689
     20 C          -2.4798  -18.5633   19.2776 C.3     1  UNL1        0.0859
     21 N          -2.4062  -18.7547   20.7634 N.3     1  UNL1       -0.2963
     22 H          -2.2741  -17.8301   21.1733 H       1  UNL1        0.1233
@<TRIPOS>BOND
     1    20    21    1
     2    21    19    1
     3     1    19    1
     4     1     2    1
     5     2     3    1
     6     3     4   ar
     7     4     5   ar
     8     5     6   ar
     9     6     7   ar
    10     7     8   ar
    11     8     9    1
    12     9    11    1
    13    11    12   ar
    14    12    13   ar
    15    13    14   ar
    16    14    15    1
    17    14    16   ar
    18    16    17    1
    19    16    18   ar
    20     9    10    1
    21    10     1    1
    22     8     3   ar
    23    18    11   ar
    24    21    22    1
@<TRIPOS>MOLECULE
*****
 22 24 0 0 0
SMALL
GASTEIGER

@<TRIPOS>ATOM
      1 C          -4.9739  -16.3281   23.9695 C.3     1  UNL1        0.0207
      2 C          -3.7047  -16.9348   23.4489 C.3     1  UNL1        0.0274
      3 C          -3.7623  -18.0905   22.4943 C.ar    1  UNL1       -0.0258
      4 C          -2.4931  -18.6972   21.9737 C.ar    1  UNL1       -0.0046
      5 C          -2.5507  -19.8529   21.0192 C.ar    1  UNL1       -0.0003
      6 C          -3.8775  -20.4018   20.5853 C.ar    1  UNL1       -0.0003
      7 C          -5.1467  -19.7951   21.1059 C.ar    1  UNL1       -0.0043
      8 C          -5.0891  -18.6395   22.0604 C.ar    1  UNL1       -0.0224
      9 C          -6.3583  -18.0327   22.5811 C.3     1  UNL1        0.0443
     10 C          -6.3007  -16.8771   23.5356 C.3     1  UNL1        0.0104
     11 C          -7.6851  -18.5817   22.1472 C.ar    1  UNL1       -0.0175
     12 C          -8.0553  -18.5875   20.6936 C.ar    1  UNL1       -0.0030
     13 C          -9.3821  -19.1364   20.2597 C.ar    1  UNL1        0.0119
     14 C         -10.3387  -19.6796   21.2795 C.ar    1  UNL1        0.0682
     15 CL        -11.6655  -20.2286   20.8456 Cl      1  UNL1       -0.0814
     16 C          -9.9685  -19.6738   22.7331 C.ar    1  UNL1        0.0679
     17 CL        -10.9252  -20.2170   23.7528 Cl      1  UNL1       -0.0814
     18 C          -8.6417  -19.1249   23.1669 C.ar    1  UNL1        0.0083
     19 C          -4.9163  -15.1724   24.9240 C.3     1  UNL1        0.0689
     20 C          -6.5315  -15.4083   26.9452 C.3     1  UNL1        0.0859
     21 N          -6.1528  -14.7418   25.6559 N.3     1  UNL1       -0.2963
     22 H          -6.0438  -13.7482   25.8589 H       1  UNL1        0.1233
@<TRIPOS>BOND
     1    20    21    1
     2    21    19    1
     3     1    19    1
     4     1     2    1
     5     2     3    1
     6     3     4   ar
     7     4     5   ar
     8     5     6   ar
     9     6     7   ar
    10     7     8   ar
    11     8     9    1
    12     9    11    1
    13    11    12   ar
    14    12    13   ar
    15    13    14   ar
    16    14    15    1
    17    14    16   ar
    18    16    17    1
    19    16    18   ar
    20     9    10    1
    21    10     1    1
    22     8     3   ar
    23    18    11   ar
    24    21    22    1
@<TRIPOS>MOLECULE
*****
 22 24 0 0 0
SMALL
GASTEIGER

@<TRIPOS>ATOM
      1 C         -12.1172   -7.2398   17.8034 C.3     1  UNL1        0.0207
      2 C         -11.9467   -5.8890   18.4328 C.3     1  UNL1        0.0274
      3 C         -13.1136   -5.2166   19.0933 C.ar    1  UNL1       -0.0258
      4 C         -12.9431   -3.8658   19.7227 C.ar    1  UNL1       -0.0046
      5 C         -14.1100   -3.1934   20.3831 C.ar    1  UNL1       -0.0003
      6 C         -15.4475   -3.8719   20.4141 C.ar    1  UNL1       -0.0003
      7 C         -15.6180   -5.2227   19.7847 C.ar    1  UNL1       -0.0043
      8 C         -14.4511   -5.8950   19.1243 C.ar    1  UNL1       -0.0224
      9 C         -14.6215   -7.2459   18.4948 C.3     1  UNL1        0.0443
     10 C         -13.4546   -7.9182   17.8344 C.3     1  UNL1        0.0104
     11 C         -15.9590   -7.9243   18.5257 C.ar    1  UNL1       -0.0175
     12 C         -16.3948   -8.6673   19.7538 C.ar    1  UNL1       -0.0030
     13 C         -17.7322   -9.3457   19.7848 C.ar    1  UNL1        0.0119
     14 C         -18.6339   -9.2812   18.5877 C.ar    1  UNL1        0.0682
     15 CL        -19.9713   -9.9597   18.6186 Cl      1  UNL1       -0.0814
     16 C         -18.1980   -8.5383   17.3597 C.ar    1  UNL1        0.0679
     17 CL        -19.0996   -8.4738   16.1626 Cl      1  UNL1       -0.0814
     18 C         -16.8606   -7.8598   17.3287 C.ar    1  UNL1        0.0083
     19 C         -10.9502   -7.9122   17.1430 C.3     1  UNL1        0.0689
     20 C          -9.1908   -7.7639   19.0487 C.3     1  UNL1        0.0859
     21 N          -9.8833   -8.5548   17.9789 N.3     1  UNL1       -0.2963
     22 H         -10.3129   -9.3581   18.4379 H       1  UNL1        0.1233
@<TRIPOS>BOND
     1    20    21    1
     2    21    19    1
     3     1    19    1
     4     1     2    1
     5     2     3    1
     6     3     4   ar
     7     4     5   ar
     8     5     6   ar
     9     6     7   ar
    10     7     8   ar
    11     8     9    1
    12     9    11    1
    13    11    12   ar
    14    12    13   ar
    15    13    14   ar
    16    14    15    1
    17    14    16   ar
    18    16    17    1
    19    16    18   ar
    20     9    10    1
    21    10     1    1
    22     8     3   ar
    23    18    11   ar
    24    21    22    1
