@<TRIPOS>MOLECULE
*****
 26 29 0 0 0
SMALL
GASTEIGER

@<TRIPOS>ATOM
      1 O         -10.5211  -20.4085   22.9323 O.2     1  UNL1       -0.2749
      2 C          -9.5991  -19.3032   23.3542 C.2     1  UNL1        0.2260
      3 N          -8.2325  -19.1931   22.7457 N.am    1  UNL1       -0.2793
      4 C          -7.7879  -20.1884   21.7153 C.3     1  UNL1        0.0970
      5 C          -6.4214  -20.0783   21.1068 C.3     1  UNL1        0.0615
      6 C          -5.4993  -18.9729   21.5287 C.3     1  UNL1        0.1367
      7 C          -5.0547  -19.9682   20.4983 C.3     1  UNL1        0.0449
      8 C          -3.6881  -19.8581   19.8898 C.3     1  UNL1        0.0331
      9 C          -2.7661  -18.7528   20.3117 C.ar    1  UNL1        0.0141
     10 C          -1.3994  -18.6427   19.7032 C.ar    1  UNL1        0.0284
     11 C          -0.4774  -17.5373   20.1251 C.ar    1  UNL1        0.1400
     12 F           0.8892  -17.4272   19.5166 F       1  UNL1       -0.2042
     13 C          -0.9220  -16.5420   21.1555 C.ar    1  UNL1        0.0327
     14 C          -2.2886  -16.6521   21.7640 C.ar    1  UNL1        0.0389
     15 C          -3.2106  -17.7575   21.3421 C.ar    1  UNL1        0.1343
     16 O          -4.5773  -17.8675   21.9506 O.3     1  UNL1       -0.4828
     17 C          -5.9439  -17.9776   22.5591 C.3     1  UNL1        0.0615
     18 C          -7.3104  -18.0877   23.1676 C.3     1  UNL1        0.0970
     19 C         -10.0437  -18.3079   24.3846 C.3     1  UNL1        0.0899
     20 C         -10.3593  -16.8986   23.9791 C.3     1  UNL1        0.0359
     21 C         -10.9038  -16.6162   22.6103 C.ar    1  UNL1       -0.0217
     22 C         -12.3168  -16.9903   22.2733 C.ar    1  UNL1       -0.0043
     23 C         -12.8613  -16.7079   20.9045 C.ar    1  UNL1       -0.0003
     24 C         -11.9929  -16.0513   19.8726 C.ar    1  UNL1       -0.0000
     25 C         -10.5799  -15.6771   20.2095 C.ar    1  UNL1       -0.0003
     26 C         -10.0354  -15.9596   21.5784 C.ar    1  UNL1       -0.0043
@<TRIPOS>BOND
     1     1     2    2
     2     2    19    1
     3    19    20    1
     4    20    21    1
     5    21    22   ar
     6    22    23   ar
     7    23    24   ar
     8    24    25   ar
     9    25    26   ar
    10     2     3   am
    11     3     4    1
    12     4     5    1
    13     5     6    1
    14     6     7    1
    15     7     8    1
    16     8     9    1
    17     9    10   ar
    18    10    11   ar
    19    11    12    1
    20    11    13   ar
    21    13    14   ar
    22    14    15   ar
    23    15    16    1
    24     6    17    1
    25    17    18    1
    26    26    21   ar
    27    18     3    1
    28    16     6    1
    29    15     9   ar
@<TRIPOS>MOLECULE
*****
 26 29 0 0 0
SMALL
GASTEIGER

@<TRIPOS>ATOM
      1 O         -10.6276  -18.1502   24.6277 O.2     1  UNL1       -0.2749
      2 C          -9.8564  -18.9698   23.6360 C.2     1  UNL1        0.2260
      3 N          -8.4534  -18.5828   23.2728 N.am    1  UNL1       -0.2793
      4 C          -7.8216  -17.3763   23.9013 C.3     1  UNL1        0.0970
      5 C          -6.4187  -16.9894   23.5382 C.3     1  UNL1        0.0615
      6 C          -5.6475  -17.8090   22.5465 C.3     1  UNL1        0.1367
      7 C          -5.0156  -16.6024   23.1750 C.3     1  UNL1        0.0449
      8 C          -3.6127  -16.2155   22.8118 C.3     1  UNL1        0.0331
      9 C          -2.8415  -17.0351   21.8201 C.ar    1  UNL1        0.0141
     10 C          -1.4384  -16.6481   21.4570 C.ar    1  UNL1        0.0284
     11 C          -0.6672  -17.4677   20.4652 C.ar    1  UNL1        0.1400
     12 F           0.7357  -17.0808   20.1021 F       1  UNL1       -0.2042
     13 C          -1.2991  -18.6743   19.8367 C.ar    1  UNL1        0.0327
     14 C          -2.7020  -19.0612   20.1999 C.ar    1  UNL1        0.0389
     15 C          -3.4732  -18.2416   21.1916 C.ar    1  UNL1        0.1343
     16 O          -4.8763  -18.6286   21.5547 O.3     1  UNL1       -0.4828
     17 C          -6.2792  -19.0155   21.9179 C.3     1  UNL1        0.0615
     18 C          -7.6822  -19.4024   22.2811 C.3     1  UNL1        0.0970
     19 C         -10.4882  -20.1763   23.0074 C.3     1  UNL1        0.0899
     20 C         -11.1752  -20.0572   21.6793 C.3     1  UNL1        0.0359
     21 C         -11.5005  -18.7031   21.1220 C.ar    1  UNL1       -0.0217
     22 C         -10.7591  -18.1869   19.9246 C.ar    1  UNL1       -0.0043
     23 C         -11.0845  -16.8328   19.3674 C.ar    1  UNL1       -0.0003
     24 C         -12.1514  -15.9949   20.0075 C.ar    1  UNL1       -0.0000
     25 C         -12.8929  -16.5111   21.2049 C.ar    1  UNL1       -0.0003
     26 C         -12.5674  -17.8653   21.7621 C.ar    1  UNL1       -0.0043
@<TRIPOS>BOND
     1     1     2    2
     2     2    19    1
     3    19    20    1
     4    20    21    1
     5    21    22   ar
     6    22    23   ar
     7    23    24   ar
     8    24    25   ar
     9    25    26   ar
    10     2     3   am
    11     3     4    1
    12     4     5    1
    13     5     6    1
    14     6     7    1
    15     7     8    1
    16     8     9    1
    17     9    10   ar
    18    10    11   ar
    19    11    12    1
    20    11    13   ar
    21    13    14   ar
    22    14    15   ar
    23    15    16    1
    24     6    17    1
    25    17    18    1
    26    26    21   ar
    27    18     3    1
    28    16     6    1
    29    15     9   ar
@<TRIPOS>MOLECULE
*****
 26 29 0 0 0
SMALL
GASTEIGER

@<TRIPOS>ATOM
      1 O         -10.9339  -20.4153   21.9576 O.2     1  UNL1       -0.2749
      2 C          -9.9781  -19.5068   22.6727 C.2     1  UNL1        0.2260
      3 N          -8.5793  -19.3357   22.1588 N.am    1  UNL1       -0.2793
      4 C          -8.1362  -20.0729   20.9300 C.3     1  UNL1        0.0970
      5 C          -6.7374  -19.9018   20.4162 C.3     1  UNL1        0.0615
      6 C          -5.7817  -18.9933   21.1313 C.3     1  UNL1        0.1367
      7 C          -5.3385  -19.7306   19.9024 C.3     1  UNL1        0.0449
      8 C          -3.9397  -19.5595   19.3886 C.3     1  UNL1        0.0331
      9 C          -2.9840  -18.6510   20.1037 C.ar    1  UNL1        0.0141
     10 C          -1.5851  -18.4799   19.5898 C.ar    1  UNL1        0.0284
     11 C          -0.6294  -17.5714   20.3049 C.ar    1  UNL1        0.1400
     12 F           0.7694  -17.4003   19.7911 F       1  UNL1       -0.2042
     13 C          -1.0725  -16.8341   21.5338 C.ar    1  UNL1        0.0327
     14 C          -2.4713  -17.0053   22.0476 C.ar    1  UNL1        0.0389
     15 C          -3.4271  -17.9137   21.3325 C.ar    1  UNL1        0.1343
     16 O          -4.8259  -18.0849   21.8464 O.3     1  UNL1       -0.4828
     17 C          -6.2247  -18.2561   22.3601 C.3     1  UNL1        0.0615
     18 C          -7.6235  -18.4272   22.8739 C.3     1  UNL1        0.0970
     19 C         -10.4212  -18.7696   23.9015 C.3     1  UNL1        0.0899
     20 C         -10.2267  -17.2852   23.9966 C.3     1  UNL1        0.0359
     21 C          -9.2752  -16.7167   25.0073 C.ar    1  UNL1       -0.0217
     22 C          -9.2201  -17.2914   26.3917 C.ar    1  UNL1       -0.0043
     23 C          -8.2686  -16.7229   27.4024 C.ar    1  UNL1       -0.0003
     24 C          -7.3722  -15.5797   27.0286 C.ar    1  UNL1       -0.0000
     25 C          -7.4273  -15.0050   25.6441 C.ar    1  UNL1       -0.0003
     26 C          -8.3789  -15.5736   24.6335 C.ar    1  UNL1       -0.0043
@<TRIPOS>BOND
     1     1     2    2
     2     2    19    1
     3    19    20    1
     4    20    21    1
     5    21    22   ar
     6    22    23   ar
     7    23    24   ar
     8    24    25   ar
     9    25    26   ar
    10     2     3   am
    11     3     4    1
    12     4     5    1
    13     5     6    1
    14     6     7    1
    15     7     8    1
    16     8     9    1
    17     9    10   ar
    18    10    11   ar
    19    11    12    1
    20    11    13   ar
    21    13    14   ar
    22    14    15   ar
    23    15    16    1
    24     6    17    1
    25    17    18    1
    26    26    21   ar
    27    18     3    1
    28    16     6    1
    29    15     9   ar
@<TRIPOS>MOLECULE
*****
 26 29 0 0 0
SMALL
GASTEIGER

@<TRIPOS>ATOM
      1 O         -19.1376   -1.2399   20.2255 O.2     1  UNL1       -0.2749
      2 C         -17.6924   -0.8532   20.1166 C.2     1  UNL1        0.2260
      3 N         -16.6478   -1.9084   19.9035 N.am    1  UNL1       -0.2793
      4 C         -17.0483   -3.3502   19.7993 C.3     1  UNL1        0.0970
      5 C         -16.0037   -4.4052   19.5862 C.3     1  UNL1        0.0615
      6 C         -14.5585   -4.0186   19.4773 C.3     1  UNL1        0.1367
      7 C         -14.9590   -5.4604   19.3731 C.3     1  UNL1        0.0449
      8 C         -13.9144   -6.5155   19.1600 C.3     1  UNL1        0.0331
      9 C         -12.4692   -6.1289   19.0511 C.ar    1  UNL1        0.0141
     10 C         -11.4245   -7.1841   18.8380 C.ar    1  UNL1        0.0284
     11 C          -9.9793   -6.7975   18.7290 C.ar    1  UNL1        0.1400
     12 F          -8.9347   -7.8526   18.5159 F       1  UNL1       -0.2042
     13 C          -9.5788   -5.3556   18.8332 C.ar    1  UNL1        0.0327
     14 C         -10.6234   -4.3005   19.0463 C.ar    1  UNL1        0.0389
     15 C         -12.0686   -4.6872   19.1552 C.ar    1  UNL1        0.1343
     16 O         -13.1133   -3.6320   19.3684 O.3     1  UNL1       -0.4828
     17 C         -14.1579   -2.5769   19.5815 C.3     1  UNL1        0.0615
     18 C         -15.2025   -1.5218   19.7946 C.3     1  UNL1        0.0970
     19 C         -17.2918    0.5885   20.2208 C.3     1  UNL1        0.0899
     20 C         -17.9072    1.4639   21.2720 C.3     1  UNL1        0.0359
     21 C         -17.1011    2.5621   21.8997 C.ar    1  UNL1       -0.0217
     22 C         -17.1912    2.8086   23.3765 C.ar    1  UNL1       -0.0043
     23 C         -16.3850    3.9068   24.0041 C.ar    1  UNL1       -0.0003
     24 C         -15.4887    4.7586   23.1549 C.ar    1  UNL1       -0.0000
     25 C         -15.3986    4.5121   21.6780 C.ar    1  UNL1       -0.0003
     26 C         -16.2048    3.4138   21.0504 C.ar    1  UNL1       -0.0043
@<TRIPOS>BOND
     1     1     2    2
     2     2    19    1
     3    19    20    1
     4    20    21    1
     5    21    22   ar
     6    22    23   ar
     7    23    24   ar
     8    24    25   ar
     9    25    26   ar
    10     2     3   am
    11     3     4    1
    12     4     5    1
    13     5     6    1
    14     6     7    1
    15     7     8    1
    16     8     9    1
    17     9    10   ar
    18    10    11   ar
    19    11    12    1
    20    11    13   ar
    21    13    14   ar
    22    14    15   ar
    23    15    16    1
    24     6    17    1
    25    17    18    1
    26    26    21   ar
    27    18     3    1
    28    16     6    1
    29    15     9   ar
@<TRIPOS>MOLECULE
*****
 26 29 0 0 0
SMALL
GASTEIGER

@<TRIPOS>ATOM
      1 O          -9.4910  -15.4708   25.7500 O.2     1  UNL1       -0.2749
      2 C          -9.2045  -16.6309   24.8433 C.2     1  UNL1        0.2260
      3 N          -7.8568  -16.7635   24.1982 N.am    1  UNL1       -0.2793
      4 C          -6.7957  -15.7361   24.4597 C.3     1  UNL1        0.0970
      5 C          -5.4481  -15.8688   23.8146 C.3     1  UNL1        0.0615
      6 C          -5.1615  -17.0289   22.9079 C.3     1  UNL1        0.1367
      7 C          -4.1003  -16.0015   23.1695 C.3     1  UNL1        0.0449
      8 C          -2.7527  -16.1342   22.5244 C.3     1  UNL1        0.0331
      9 C          -2.4662  -17.2943   21.6177 C.ar    1  UNL1        0.0141
     10 C          -1.1184  -17.4269   20.9725 C.ar    1  UNL1        0.0284
     11 C          -0.8319  -18.5870   20.0658 C.ar    1  UNL1        0.1400
     12 F           0.5157  -18.7197   19.4207 F       1  UNL1       -0.2042
     13 C          -1.8931  -19.6144   19.8043 C.ar    1  UNL1        0.0327
     14 C          -3.2407  -19.4818   20.4494 C.ar    1  UNL1        0.0389
     15 C          -3.5273  -18.3217   21.3561 C.ar    1  UNL1        0.1343
     16 O          -4.8750  -18.1890   22.0012 O.3     1  UNL1       -0.4828
     17 C          -6.2226  -18.0563   22.6464 C.3     1  UNL1        0.0615
     18 C          -7.5703  -17.9236   23.2915 C.3     1  UNL1        0.0970
     19 C         -10.2656  -17.6583   24.5817 C.3     1  UNL1        0.0899
     20 C         -11.3132  -17.4057   23.5383 C.3     1  UNL1        0.0359
     21 C         -11.1401  -17.9550   22.1533 C.ar    1  UNL1       -0.0217
     22 C         -10.7671  -19.3948   21.9588 C.ar    1  UNL1       -0.0043
     23 C         -10.5939  -19.9442   20.5738 C.ar    1  UNL1       -0.0003
     24 C         -10.7938  -19.0538   19.3833 C.ar    1  UNL1       -0.0000
     25 C         -11.1669  -17.6140   19.5778 C.ar    1  UNL1       -0.0003
     26 C         -11.3400  -17.0646   20.9629 C.ar    1  UNL1       -0.0043
@<TRIPOS>BOND
     1     1     2    2
     2     2    19    1
     3    19    20    1
     4    20    21    1
     5    21    22   ar
     6    22    23   ar
     7    23    24   ar
     8    24    25   ar
     9    25    26   ar
    10     2     3   am
    11     3     4    1
    12     4     5    1
    13     5     6    1
    14     6     7    1
    15     7     8    1
    16     8     9    1
    17     9    10   ar
    18    10    11   ar
    19    11    12    1
    20    11    13   ar
    21    13    14   ar
    22    14    15   ar
    23    15    16    1
    24     6    17    1
    25    17    18    1
    26    26    21   ar
    27    18     3    1
    28    16     6    1
    29    15     9   ar
@<TRIPOS>MOLECULE
*****
 26 29 0 0 0
SMALL
GASTEIGER

@<TRIPOS>ATOM
      1 O           6.0841   -4.5156   20.5631 O.2     1  UNL1       -0.2749
      2 C           5.6712   -3.6473   21.7145 C.2     1  UNL1        0.2260
      3 N           4.5742   -2.6395   21.5382 N.am    1  UNL1       -0.2793
      4 C           3.8902   -2.5000   20.2106 C.3     1  UNL1        0.0970
      5 C           2.7932   -1.4922   20.0344 C.3     1  UNL1        0.0615
      6 C           2.3804   -0.6239   21.1858 C.3     1  UNL1        0.1367
      7 C           1.6962   -0.4844   19.8581 C.3     1  UNL1        0.0449
      8 C           0.5993    0.5234   19.6819 C.3     1  UNL1        0.0331
      9 C           0.1865    1.3917   20.8333 C.ar    1  UNL1        0.0141
     10 C          -0.9105    2.3995   20.6570 C.ar    1  UNL1        0.0284
     11 C          -1.3233    3.2678   21.8084 C.ar    1  UNL1        0.1400
     12 F          -2.4203    4.2755   21.6321 F       1  UNL1       -0.2042
     13 C          -0.6392    3.1282   23.1360 C.ar    1  UNL1        0.0327
     14 C           0.4577    2.1205   23.3122 C.ar    1  UNL1        0.0389
     15 C           0.8706    1.2522   22.1608 C.ar    1  UNL1        0.1343
     16 O           1.9676    0.2443   22.3371 O.3     1  UNL1       -0.4828
     17 C           3.0645   -0.7634   22.5133 C.3     1  UNL1        0.0615
     18 C           4.1614   -1.7712   22.6895 C.3     1  UNL1        0.0970
     19 C           6.3553   -3.7868   23.0420 C.3     1  UNL1        0.0899
     20 C           7.5127   -4.7288   23.1941 C.3     1  UNL1        0.0359
     21 C           7.5628   -5.6737   24.3580 C.ar    1  UNL1       -0.0217
     22 C           6.8989   -5.3059   25.6518 C.ar    1  UNL1       -0.0043
     23 C           6.9490   -6.2507   26.8156 C.ar    1  UNL1       -0.0003
     24 C           7.6630   -7.5636   26.6857 C.ar    1  UNL1       -0.0000
     25 C           8.3269   -7.9314   25.3919 C.ar    1  UNL1       -0.0003
     26 C           8.2768   -6.9865   24.2280 C.ar    1  UNL1       -0.0043
@<TRIPOS>BOND
     1     1     2    2
     2     2    19    1
     3    19    20    1
     4    20    21    1
     5    21    22   ar
     6    22    23   ar
     7    23    24   ar
     8    24    25   ar
     9    25    26   ar
    10     2     3   am
    11     3     4    1
    12     4     5    1
    13     5     6    1
    14     6     7    1
    15     7     8    1
    16     8     9    1
    17     9    10   ar
    18    10    11   ar
    19    11    12    1
    20    11    13   ar
    21    13    14   ar
    22    14    15   ar
    23    15    16    1
    24     6    17    1
    25    17    18    1
    26    26    21   ar
    27    18     3    1
    28    16     6    1
    29    15     9   ar
@<TRIPOS>MOLECULE
*****
 26 29 0 0 0
SMALL
GASTEIGER

@<TRIPOS>ATOM
      1 O           7.6158   -2.1676   18.0963 O.2     1  UNL1       -0.2749
      2 C           6.9449   -2.0836   19.4353 C.2     1  UNL1        0.2260
      3 N           7.2863   -3.0743   20.5087 N.am    1  UNL1       -0.2793
      4 C           8.2987   -4.1487   20.2432 C.3     1  UNL1        0.0970
      5 C           8.6401   -5.1393   21.3166 C.3     1  UNL1        0.0615
      6 C           7.9691   -5.0553   22.6555 C.3     1  UNL1        0.1367
      7 C           8.9815   -6.1299   22.3900 C.3     1  UNL1        0.0449
      8 C           9.3229   -7.1204   23.4634 C.3     1  UNL1        0.0331
      9 C           8.6519   -7.0365   24.8023 C.ar    1  UNL1        0.0141
     10 C           8.9934   -8.0271   25.8758 C.ar    1  UNL1        0.0284
     11 C           8.3224   -7.9432   27.2147 C.ar    1  UNL1        0.1400
     12 F           8.6638   -8.9337   28.2881 F       1  UNL1       -0.2042
     13 C           7.3100   -6.8686   27.4802 C.ar    1  UNL1        0.0327
     14 C           6.9686   -5.8781   26.4068 C.ar    1  UNL1        0.0389
     15 C           7.6396   -5.9620   25.0679 C.ar    1  UNL1        0.1343
     16 O           7.2981   -4.9714   23.9944 O.3     1  UNL1       -0.4828
     17 C           6.9567   -3.9809   22.9210 C.3     1  UNL1        0.0615
     18 C           6.6153   -2.9903   21.8476 C.3     1  UNL1        0.0970
     19 C           5.9325   -1.0092   19.7008 C.3     1  UNL1        0.0899
     20 C           4.9552   -0.6188   18.6319 C.3     1  UNL1        0.0359
     21 C           3.5270   -0.3322   18.9898 C.ar    1  UNL1       -0.0217
     22 C           2.7183    0.6119   18.1504 C.ar    1  UNL1       -0.0043
     23 C           1.2902    0.8985   18.5083 C.ar    1  UNL1       -0.0003
     24 C           0.6706    0.2409   19.7058 C.ar    1  UNL1       -0.0000
     25 C           1.4793   -0.7032   20.5453 C.ar    1  UNL1       -0.0003
     26 C           2.9075   -0.9898   20.1872 C.ar    1  UNL1       -0.0043
@<TRIPOS>BOND
     1     1     2    2
     2     2    19    1
     3    19    20    1
     4    20    21    1
     5    21    22   ar
     6    22    23   ar
     7    23    24   ar
     8    24    25   ar
     9    25    26   ar
    10     2     3   am
    11     3     4    1
    12     4     5    1
    13     5     6    1
    14     6     7    1
    15     7     8    1
    16     8     9    1
    17     9    10   ar
    18    10    11   ar
    19    11    12    1
    20    11    13   ar
    21    13    14   ar
    22    14    15   ar
    23    15    16    1
    24     6    17    1
    25    17    18    1
    26    26    21   ar
    27    18     3    1
    28    16     6    1
    29    15     9   ar
@<TRIPOS>MOLECULE
*****
 26 29 0 0 0
SMALL
GASTEIGER

@<TRIPOS>ATOM
      1 O          -1.6982    4.0865   18.7516 O.2     1  UNL1       -0.2749
      2 C          -1.3382    3.2306   19.9296 C.2     1  UNL1        0.2260
      3 N          -0.2116    2.2458   19.8248 N.am    1  UNL1       -0.2793
      4 C           0.5550    2.1169   18.5420 C.3     1  UNL1        0.0970
      5 C           1.6816    1.1322   18.4372 C.3     1  UNL1        0.0615
      6 C           2.0416    0.2762   19.6153 C.3     1  UNL1        0.1367
      7 C           2.8083    0.1474   18.3324 C.3     1  UNL1        0.0449
      8 C           3.9348   -0.8374   18.2276 C.3     1  UNL1        0.0331
      9 C           4.2948   -1.6933   19.4057 C.ar    1  UNL1        0.0141
     10 C           5.4215   -2.6781   19.3009 C.ar    1  UNL1        0.0284
     11 C           5.7814   -3.5341   20.4789 C.ar    1  UNL1        0.1400
     12 F           6.9080   -4.5188   20.3741 F       1  UNL1       -0.2042
     13 C           5.0147   -3.4052   21.7618 C.ar    1  UNL1        0.0327
     14 C           3.8881   -2.4204   21.8665 C.ar    1  UNL1        0.0389
     15 C           3.5282   -1.5645   20.6885 C.ar    1  UNL1        0.1343
     16 O           2.4015   -0.5797   20.7933 O.3     1  UNL1       -0.4828
     17 C           1.2750    0.4051   20.8981 C.3     1  UNL1        0.0615
     18 C           0.1484    1.3898   21.0029 C.3     1  UNL1        0.0970
     19 C          -2.1048    3.3594   21.2124 C.3     1  UNL1        0.0899
     20 C          -3.6020    3.2664   21.2041 C.3     1  UNL1        0.0359
     21 C          -4.3809    3.5978   22.4424 C.ar    1  UNL1       -0.0217
     22 C          -3.7271    3.4985   23.7887 C.ar    1  UNL1       -0.0043
     23 C          -4.5061    3.8299   25.0270 C.ar    1  UNL1       -0.0003
     24 C          -5.9389    4.2606   24.9190 C.ar    1  UNL1       -0.0000
     25 C          -6.5927    4.3599   23.5726 C.ar    1  UNL1       -0.0003
     26 C          -5.8137    4.0285   22.3343 C.ar    1  UNL1       -0.0043
@<TRIPOS>BOND
     1     1     2    2
     2     2    19    1
     3    19    20    1
     4    20    21    1
     5    21    22   ar
     6    22    23   ar
     7    23    24   ar
     8    24    25   ar
     9    25    26   ar
    10     2     3   am
    11     3     4    1
    12     4     5    1
    13     5     6    1
    14     6     7    1
    15     7     8    1
    16     8     9    1
    17     9    10   ar
    18    10    11   ar
    19    11    12    1
    20    11    13   ar
    21    13    14   ar
    22    14    15   ar
    23    15    16    1
    24     6    17    1
    25    17    18    1
    26    26    21   ar
    27    18     3    1
    28    16     6    1
    29    15     9   ar
@<TRIPOS>MOLECULE
*****
 26 29 0 0 0
SMALL
GASTEIGER

@<TRIPOS>ATOM
      1 O          -1.7651    3.1018   19.6352 O.2     1  UNL1       -0.2749
      2 C          -1.0849    2.8497   20.9481 C.2     1  UNL1        0.2260
      3 N          -0.0346    1.7841   21.0563 N.am    1  UNL1       -0.2793
      4 C           0.3354    0.9707   19.8515 C.3     1  UNL1        0.0970
      5 C           1.3856   -0.0948   19.9597 C.3     1  UNL1        0.0615
      6 C           2.0658   -0.3469   21.2726 C.3     1  UNL1        0.1367
      7 C           2.4359   -1.1603   20.0679 C.3     1  UNL1        0.0449
      8 C           3.4861   -2.2258   20.1760 C.3     1  UNL1        0.0331
      9 C           4.1663   -2.4779   21.4890 C.ar    1  UNL1        0.0141
     10 C           5.2166   -3.5434   21.5971 C.ar    1  UNL1        0.0284
     11 C           5.8967   -3.7955   22.9100 C.ar    1  UNL1        0.1400
     12 F           6.9470   -4.8610   23.0182 F       1  UNL1       -0.2042
     13 C           5.5267   -2.9821   24.1148 C.ar    1  UNL1        0.0327
     14 C           4.4765   -1.9166   24.0066 C.ar    1  UNL1        0.0389
     15 C           3.7963   -1.6645   22.6937 C.ar    1  UNL1        0.1343
     16 O           2.7460   -0.5990   22.5856 O.3     1  UNL1       -0.4828
     17 C           1.6958    0.4665   22.4774 C.3     1  UNL1        0.0615
     18 C           0.6456    1.5320   22.3692 C.3     1  UNL1        0.0970
     19 C          -1.4549    3.6630   22.1529 C.3     1  UNL1        0.0899
     20 C          -2.8983    3.8597   22.5106 C.3     1  UNL1        0.0359
     21 C          -3.3134    3.9136   23.9509 C.ar    1  UNL1       -0.0217
     22 C          -4.7156    4.3043   24.3133 C.ar    1  UNL1       -0.0043
     23 C          -5.1307    4.3582   25.7536 C.ar    1  UNL1       -0.0003
     24 C          -4.1437    4.0214   26.8318 C.ar    1  UNL1       -0.0000
     25 C          -2.7415    3.6307   26.4695 C.ar    1  UNL1       -0.0003
     26 C          -2.3264    3.5768   25.0290 C.ar    1  UNL1       -0.0043
@<TRIPOS>BOND
     1     1     2    2
     2     2    19    1
     3    19    20    1
     4    20    21    1
     5    21    22   ar
     6    22    23   ar
     7    23    24   ar
     8    24    25   ar
     9    25    26   ar
    10     2     3   am
    11     3     4    1
    12     4     5    1
    13     5     6    1
    14     6     7    1
    15     7     8    1
    16     8     9    1
    17     9    10   ar
    18    10    11   ar
    19    11    12    1
    20    11    13   ar
    21    13    14   ar
    22    14    15   ar
    23    15    16    1
    24     6    17    1
    25    17    18    1
    26    26    21   ar
    27    18     3    1
    28    16     6    1
    29    15     9   ar
