@<TRIPOS>MOLECULE
*****
 30 33 0 0 0
SMALL
GASTEIGER

@<TRIPOS>ATOM
      1 C           3.8360    3.6747   18.1862 C.3     1  UNL1        0.0282
      2 C           2.5750    3.0387   18.6915 C.3     1  UNL1        0.1189
      3 C           1.2646    3.7548   18.5494 C.ar    1  UNL1        0.1137
      4 N           0.9077    5.0870   17.9596 N.ar    1  UNL1       -0.1315
      5 N          -0.5739    5.2742   18.1005 N.ar    1  UNL1       -0.0588
      6 N          -1.1326    4.0578   18.7773 N.ar    1  UNL1       -0.1972
      7 C           0.0037    3.1187   19.0547 C.ar    1  UNL1        0.0823
      8 C           0.0530    1.7665   19.7022 C.3     1  UNL1        0.0688
      9 C           1.3634    1.0505   19.8443 C.3     1  UNL1        0.1004
     10 N           2.6243    1.6865   19.3390 N.am    1  UNL1       -0.2719
     11 C           3.9347    0.9704   19.4812 C.2     1  UNL1        0.2501
     12 O           5.1957    1.6065   18.9758 O.2     1  UNL1       -0.2699
     13 C          -2.5745    3.8219   19.1170 C.ar    1  UNL1        0.1673
     14 C          -2.9637    3.4469   20.5162 C.ar    1  UNL1        0.0685
     15 C          -4.4056    3.2110   20.8560 C.ar    1  UNL1        0.1448
     16 F          -4.7947    2.8360   22.2553 F       1  UNL1       -0.2040
     17 C          -5.4582    3.3500   19.7965 C.ar    1  UNL1        0.0504
     18 C          -5.0689    3.7250   18.3972 C.ar    1  UNL1        0.1029
     19 N          -3.6271    3.9609   18.0574 N.ar    1  UNL1       -0.2248
     20 C           3.9841   -0.3818   20.1286 C.ar    1  UNL1        0.0641
     21 C           3.8616   -0.5048   21.6185 C.ar    1  UNL1        0.0054
     22 C           3.9110   -1.8571   22.2660 C.ar    1  UNL1        0.0001
     23 C           4.0829   -3.0861   21.4236 C.ar    1  UNL1        0.0047
     24 C           4.2054   -2.9630   19.9336 C.ar    1  UNL1        0.0821
     25 C           4.1560   -1.6109   19.2861 C.ar    1  UNL1        0.0659
     26 CL          4.2785   -1.4879   17.7962 Cl      1  UNL1       -0.0822
     27 C           4.3773   -4.1922   19.0911 C.3     1  UNL1        0.4194
     28 F           4.5492   -5.4213   18.2487 F       1  UNL1       -0.1658
     29 F           2.8873   -4.3231   18.9781 F       1  UNL1       -0.1658
     30 F           5.8673   -4.0612   19.2041 F       1  UNL1       -0.1658
@<TRIPOS>BOND
     1     2     1    1
     2     2     3    1
     3     3     4   ar
     4     4     5   ar
     5     5     6   ar
     6     6    13    1
     7    13    14   ar
     8    14    15   ar
     9    15    16    1
    10    15    17   ar
    11    17    18   ar
    12    18    19   ar
    13     6     7   ar
    14     7     8    1
    15     8     9    1
    16     9    10    1
    17    10    11   am
    18    11    12    2
    19    11    20    1
    20    20    21   ar
    21    21    22   ar
    22    22    23   ar
    23    23    24   ar
    24    24    27    1
    25    27    28    1
    26    27    29    1
    27    27    30    1
    28    24    25   ar
    29    25    26    1
    30    10     2    1
    31    25    20   ar
    32     7     3   ar
    33    19    13   ar
@<TRIPOS>MOLECULE
*****
 30 33 0 0 0
SMALL
GASTEIGER

@<TRIPOS>ATOM
      1 C           2.0061    3.8461   22.7957 C.3     1  UNL1        0.0282
      2 C           2.3673    2.3909   22.7486 C.3     1  UNL1        0.1189
      3 C           2.8302    1.7743   21.4619 C.ar    1  UNL1        0.1137
      4 N           3.0287    2.3459   20.0894 N.ar    1  UNL1       -0.1315
      5 N           3.5125    1.2440   19.1940 N.ar    1  UNL1       -0.0588
      6 N           3.6131   -0.0086   20.0132 N.ar    1  UNL1       -0.1972
      7 C           3.1914    0.3192   21.4148 C.ar    1  UNL1        0.0823
      8 C           3.0896   -0.5193   22.6544 C.3     1  UNL1        0.0688
      9 C           2.6267    0.0973   23.9410 C.3     1  UNL1        0.1004
     10 N           2.2655    1.5523   23.9882 N.am    1  UNL1       -0.2719
     11 C           1.8026    2.1690   25.2749 C.2     1  UNL1        0.2501
     12 O           1.4414    3.6241   25.3220 O.2     1  UNL1       -0.2699
     13 C           4.0573   -1.3529   19.5176 C.ar    1  UNL1        0.1673
     14 C           3.1719   -2.5497   19.7006 C.ar    1  UNL1        0.0685
     15 C           3.6161   -3.8941   19.2051 C.ar    1  UNL1        0.1448
     16 F           2.7306   -5.0910   19.3881 F       1  UNL1       -0.2040
     17 C           4.9456   -4.0415   18.5266 C.ar    1  UNL1        0.0504
     18 C           5.8311   -2.8445   18.3436 C.ar    1  UNL1        0.1029
     19 N           5.3869   -1.5003   18.8391 N.ar    1  UNL1       -0.2248
     20 C           1.7008    1.3305   26.5144 C.ar    1  UNL1        0.0641
     21 C           2.9264    0.6764   27.0802 C.ar    1  UNL1        0.0054
     22 C           2.8245   -0.1621   28.3198 C.ar    1  UNL1        0.0001
     23 C           1.4972   -0.3466   28.9936 C.ar    1  UNL1        0.0047
     24 C           0.2715    0.3075   28.4278 C.ar    1  UNL1        0.0821
     25 C           0.3733    1.1460   27.1882 C.ar    1  UNL1        0.0659
     26 CL         -0.8523    1.8001   26.6225 Cl      1  UNL1       -0.0822
     27 C          -1.0559    0.1231   29.1016 C.3     1  UNL1        0.4194
     28 F          -2.3832   -0.0614   29.7754 F       1  UNL1       -0.1658
     29 F          -0.7162    1.2170   30.0702 F       1  UNL1       -0.1658
     30 F          -1.3955   -0.9708   28.1330 F       1  UNL1       -0.1658
@<TRIPOS>BOND
     1     2     1    1
     2     2     3    1
     3     3     4   ar
     4     4     5   ar
     5     5     6   ar
     6     6    13    1
     7    13    14   ar
     8    14    15   ar
     9    15    16    1
    10    15    17   ar
    11    17    18   ar
    12    18    19   ar
    13     6     7   ar
    14     7     8    1
    15     8     9    1
    16     9    10    1
    17    10    11   am
    18    11    12    2
    19    11    20    1
    20    20    21   ar
    21    21    22   ar
    22    22    23   ar
    23    23    24   ar
    24    24    27    1
    25    27    28    1
    26    27    29    1
    27    27    30    1
    28    24    25   ar
    29    25    26    1
    30    10     2    1
    31    25    20   ar
    32     7     3   ar
    33    19    13   ar
@<TRIPOS>MOLECULE
*****
 30 33 0 0 0
SMALL
GASTEIGER

@<TRIPOS>ATOM
      1 C           7.0763   -2.5367   26.4555 C.3     1  UNL1        0.0282
      2 C           5.8066   -1.8720   26.0124 C.3     1  UNL1        0.1189
      3 C           4.8354   -1.3547   27.0317 C.ar    1  UNL1        0.1137
      4 N           4.8583   -1.3571   28.5316 N.ar    1  UNL1       -0.1315
      5 N           3.6028   -0.6939   29.0152 N.ar    1  UNL1       -0.0588
      6 N           2.8040   -0.2816   27.8144 N.ar    1  UNL1       -0.1972
      7 C           3.5659   -0.6901   26.5885 C.ar    1  UNL1        0.0823
      8 C           3.2675   -0.5426   25.1259 C.3     1  UNL1        0.0688
      9 C           4.2388   -1.0599   24.1065 C.3     1  UNL1        0.1004
     10 N           5.5083   -1.7245   24.5497 N.am    1  UNL1       -0.2719
     11 C           6.4796   -2.2418   23.5303 C.2     1  UNL1        0.2501
     12 O           7.7491   -2.9064   23.9735 O.2     1  UNL1       -0.2699
     13 C           1.4766    0.4165   27.8357 C.ar    1  UNL1        0.1673
     14 C           0.3301   -0.1756   28.6005 C.ar    1  UNL1        0.0685
     15 C          -0.9975    0.5225   28.6219 C.ar    1  UNL1        0.1448
     16 F          -2.1440   -0.0696   29.3867 F       1  UNL1       -0.2040
     17 C          -1.1784    1.8126   27.8784 C.ar    1  UNL1        0.0504
     18 C          -0.0318    2.4047   27.1136 C.ar    1  UNL1        0.1029
     19 N           1.2956    1.7067   27.0922 N.ar    1  UNL1       -0.2248
     20 C           6.1813   -2.0943   22.0676 C.ar    1  UNL1        0.0641
     21 C           6.8905   -1.0486   21.2593 C.ar    1  UNL1        0.0054
     22 C           6.5921   -0.9013   19.7966 C.ar    1  UNL1        0.0001
     23 C           5.5846   -1.7995   19.1424 C.ar    1  UNL1        0.0047
     24 C           4.8754   -2.8452   19.9509 C.ar    1  UNL1        0.0821
     25 C           5.1737   -2.9927   21.4135 C.ar    1  UNL1        0.0659
     26 CL          4.4645   -4.0384   22.2219 Cl      1  UNL1       -0.0822
     27 C           3.8678   -3.7435   19.2966 C.3     1  UNL1        0.4194
     28 F           2.8603   -4.6418   18.6424 F       1  UNL1       -0.1658
     29 F           2.7822   -2.7595   19.6175 F       1  UNL1       -0.1658
     30 F           4.9535   -4.7276   18.9758 F       1  UNL1       -0.1658
@<TRIPOS>BOND
     1     2     1    1
     2     2     3    1
     3     3     4   ar
     4     4     5   ar
     5     5     6   ar
     6     6    13    1
     7    13    14   ar
     8    14    15   ar
     9    15    16    1
    10    15    17   ar
    11    17    18   ar
    12    18    19   ar
    13     6     7   ar
    14     7     8    1
    15     8     9    1
    16     9    10    1
    17    10    11   am
    18    11    12    2
    19    11    20    1
    20    20    21   ar
    21    21    22   ar
    22    22    23   ar
    23    23    24   ar
    24    24    27    1
    25    27    28    1
    26    27    29    1
    27    27    30    1
    28    24    25   ar
    29    25    26    1
    30    10     2    1
    31    25    20   ar
    32     7     3   ar
    33    19    13   ar
@<TRIPOS>MOLECULE
*****
 30 33 0 0 0
SMALL
GASTEIGER

@<TRIPOS>ATOM
      1 C          -5.0644  -15.7206   25.4746 C.3     1  UNL1        0.0282
      2 C          -5.9796  -16.3182   24.4474 C.3     1  UNL1        0.1189
      3 C          -7.4581  -16.0793   24.5304 C.ar    1  UNL1        0.1137
      4 N          -8.2965  -15.3040   25.5031 N.ar    1  UNL1       -0.1315
      5 N          -9.7298  -15.4226   25.0770 N.ar    1  UNL1       -0.0588
      6 N          -9.7773  -16.2711   23.8409 N.ar    1  UNL1       -0.1972
      7 C          -8.3733  -16.6769   23.5031 C.ar    1  UNL1        0.0823
      8 C          -7.8099  -17.5135   22.3928 C.3     1  UNL1        0.0688
      9 C          -6.3314  -17.7524   22.3098 C.3     1  UNL1        0.1004
     10 N          -5.4163  -17.1548   23.3370 N.am    1  UNL1       -0.2719
     11 C          -3.9377  -17.3938   23.2539 C.2     1  UNL1        0.2501
     12 O          -3.0226  -16.7961   24.2812 O.2     1  UNL1       -0.2699
     13 C         -11.0120  -16.6475   23.0769 C.ar    1  UNL1        0.1673
     14 C         -12.1176  -17.3963   23.7602 C.ar    1  UNL1        0.0685
     15 C         -13.3524  -17.7728   22.9961 C.ar    1  UNL1        0.1448
     16 F         -14.4580  -18.5215   23.6795 F       1  UNL1       -0.2040
     17 C         -13.4814  -17.4006   21.5489 C.ar    1  UNL1        0.0504
     18 C         -12.3757  -16.6518   20.8655 C.ar    1  UNL1        0.1029
     19 N         -11.1410  -16.2753   21.6295 N.ar    1  UNL1       -0.2248
     20 C          -3.3744  -18.2303   22.1436 C.ar    1  UNL1        0.0641
     21 C          -3.8689  -19.6310   21.9349 C.ar    1  UNL1        0.0054
     22 C          -3.3055  -20.4675   20.8245 C.ar    1  UNL1        0.0001
     23 C          -2.2477  -19.9035   19.9231 C.ar    1  UNL1        0.0047
     24 C          -1.7531  -18.5027   20.1319 C.ar    1  UNL1        0.0821
     25 C          -2.3165  -17.6662   21.2422 C.ar    1  UNL1        0.0659
     26 CL         -1.8219  -16.2655   21.4510 Cl      1  UNL1       -0.0822
     27 C          -0.6952  -17.9386   19.2304 C.3     1  UNL1        0.4194
     28 F           0.3626  -17.3746   18.3288 F       1  UNL1       -0.1658
     29 F           0.3422  -18.2067   20.2800 F       1  UNL1       -0.1658
     30 F          -1.7327  -17.6706   18.1807 F       1  UNL1       -0.1658
@<TRIPOS>BOND
     1     2     1    1
     2     2     3    1
     3     3     4   ar
     4     4     5   ar
     5     5     6   ar
     6     6    13    1
     7    13    14   ar
     8    14    15   ar
     9    15    16    1
    10    15    17   ar
    11    17    18   ar
    12    18    19   ar
    13     6     7   ar
    14     7     8    1
    15     8     9    1
    16     9    10    1
    17    10    11   am
    18    11    12    2
    19    11    20    1
    20    20    21   ar
    21    21    22   ar
    22    22    23   ar
    23    23    24   ar
    24    24    27    1
    25    27    28    1
    26    27    29    1
    27    27    30    1
    28    24    25   ar
    29    25    26    1
    30    10     2    1
    31    25    20   ar
    32     7     3   ar
    33    19    13   ar
@<TRIPOS>MOLECULE
*****
 30 33 0 0 0
SMALL
GASTEIGER

@<TRIPOS>ATOM
      1 C           5.1414    2.6993   17.9511 C.3     1  UNL1        0.0282
      2 C           3.7795    2.2211   18.3591 C.3     1  UNL1        0.1189
      3 C           2.6007    3.1437   18.2634 C.ar    1  UNL1        0.1137
      4 N           2.4749    4.5674   17.8080 N.ar    1  UNL1       -0.1315
      5 N           1.0352    4.9690   17.9346 N.ar    1  UNL1       -0.0588
      6 N           0.2713    3.7935   18.4683 N.ar    1  UNL1       -0.1972
      7 C           1.2388    2.6655   18.6715 C.ar    1  UNL1        0.0823
      8 C           1.0557    1.2645   19.1754 C.3     1  UNL1        0.0688
      9 C           2.2345    0.3419   19.2711 C.3     1  UNL1        0.1004
     10 N           3.5963    0.8201   18.8631 N.am    1  UNL1       -0.2719
     11 C           4.7751   -0.1026   18.9589 C.2     1  UNL1        0.2501
     12 O           6.1370    0.3757   18.5508 O.2     1  UNL1       -0.2699
     13 C          -1.2016    3.7533   18.7494 C.ar    1  UNL1        0.1673
     14 C          -1.6937    3.4062   20.1232 C.ar    1  UNL1        0.0685
     15 C          -3.1666    3.3660   20.4044 C.ar    1  UNL1        0.1448
     16 F          -3.6586    3.0189   21.7783 F       1  UNL1       -0.2040
     17 C          -4.1473    3.6728   19.3118 C.ar    1  UNL1        0.0504
     18 C          -3.6552    4.0198   17.9379 C.ar    1  UNL1        0.1029
     19 N          -2.1824    4.0601   17.6567 N.ar    1  UNL1       -0.2248
     20 C           4.5920   -1.5035   19.4628 C.ar    1  UNL1        0.0641
     21 C           3.9889   -2.5483   18.5714 C.ar    1  UNL1        0.0054
     22 C           3.8058   -3.9492   19.0754 C.ar    1  UNL1        0.0001
     23 C           4.2258   -4.3053   20.4705 C.ar    1  UNL1        0.0047
     24 C           4.8290   -3.2604   21.3620 C.ar    1  UNL1        0.0821
     25 C           5.0121   -1.8595   20.8581 C.ar    1  UNL1        0.0659
     26 CL          5.6153   -0.8147   21.7494 Cl      1  UNL1       -0.0822
     27 C           5.2491   -3.6165   22.7572 C.3     1  UNL1        0.4194
     28 F           5.6692   -3.9726   24.1525 F       1  UNL1       -0.1658
     29 F           6.4973   -4.2512   22.2194 F       1  UNL1       -0.1658
     30 F           4.0009   -2.9819   23.2950 F       1  UNL1       -0.1658
@<TRIPOS>BOND
     1     2     1    1
     2     2     3    1
     3     3     4   ar
     4     4     5   ar
     5     5     6   ar
     6     6    13    1
     7    13    14   ar
     8    14    15   ar
     9    15    16    1
    10    15    17   ar
    11    17    18   ar
    12    18    19   ar
    13     6     7   ar
    14     7     8    1
    15     8     9    1
    16     9    10    1
    17    10    11   am
    18    11    12    2
    19    11    20    1
    20    20    21   ar
    21    21    22   ar
    22    22    23   ar
    23    23    24   ar
    24    24    27    1
    25    27    28    1
    26    27    29    1
    27    27    30    1
    28    24    25   ar
    29    25    26    1
    30    10     2    1
    31    25    20   ar
    32     7     3   ar
    33    19    13   ar
@<TRIPOS>MOLECULE
*****
 30 33 0 0 0
SMALL
GASTEIGER

@<TRIPOS>ATOM
      1 C           3.5792    2.8659   18.2634 C.3     1  UNL1        0.0282
      2 C           2.4920    2.2813   19.1156 C.3     1  UNL1        0.1189
      3 C           1.2981    3.1119   19.4826 C.ar    1  UNL1        0.1137
      4 N           0.9201    4.5259   19.1545 N.ar    1  UNL1       -0.1315
      5 N          -0.4008    4.8151   19.8038 N.ar    1  UNL1       -0.0588
      6 N          -0.8391    3.5798   20.5333 N.ar    1  UNL1       -0.1972
      7 C           0.2109    2.5272   20.3348 C.ar    1  UNL1        0.0823
      8 C           0.3176    1.1118   20.8199 C.3     1  UNL1        0.0688
      9 C           1.5114    0.2812   20.4528 C.3     1  UNL1        0.1004
     10 N           2.5986    0.8658   19.6007 N.am    1  UNL1       -0.2719
     11 C           3.7925    0.0351   19.2337 C.2     1  UNL1        0.2501
     12 O           4.8796    0.6198   18.3815 O.2     1  UNL1       -0.2699
     13 C          -2.1051    3.4245   21.3226 C.ar    1  UNL1        0.1673
     14 C          -2.0953    3.6434   22.8065 C.ar    1  UNL1        0.0685
     15 C          -3.3614    3.4880   23.5960 C.ar    1  UNL1        0.1448
     16 F          -3.3515    3.7069   25.0799 F       1  UNL1       -0.2040
     17 C          -4.6371    3.1139   22.9014 C.ar    1  UNL1        0.0504
     18 C          -4.6468    2.8951   21.4174 C.ar    1  UNL1        0.1029
     19 N          -3.3809    3.0504   20.6281 N.ar    1  UNL1       -0.2248
     20 C           3.8991   -1.3803   19.7187 C.ar    1  UNL1        0.0641
     21 C           3.3879   -2.5051   18.8682 C.ar    1  UNL1        0.0054
     22 C           3.4946   -3.9205   19.3533 C.ar    1  UNL1        0.0001
     23 C           4.1124   -4.2110   20.6889 C.ar    1  UNL1        0.0047
     24 C           4.6235   -3.0861   21.5395 C.ar    1  UNL1        0.0821
     25 C           4.5169   -1.6707   21.0544 C.ar    1  UNL1        0.0659
     26 CL          5.0280   -0.5459   21.9050 Cl      1  UNL1       -0.0822
     27 C           5.2413   -3.3767   22.8751 C.3     1  UNL1        0.4194
     28 F           5.8591   -3.6672   24.2108 F       1  UNL1       -0.1658
     29 F           4.0370   -2.7990   23.5578 F       1  UNL1       -0.1658
     30 F           6.4456   -3.9543   22.1925 F       1  UNL1       -0.1658
@<TRIPOS>BOND
     1     2     1    1
     2     2     3    1
     3     3     4   ar
     4     4     5   ar
     5     5     6   ar
     6     6    13    1
     7    13    14   ar
     8    14    15   ar
     9    15    16    1
    10    15    17   ar
    11    17    18   ar
    12    18    19   ar
    13     6     7   ar
    14     7     8    1
    15     8     9    1
    16     9    10    1
    17    10    11   am
    18    11    12    2
    19    11    20    1
    20    20    21   ar
    21    21    22   ar
    22    22    23   ar
    23    23    24   ar
    24    24    27    1
    25    27    28    1
    26    27    29    1
    27    27    30    1
    28    24    25   ar
    29    25    26    1
    30    10     2    1
    31    25    20   ar
    32     7     3   ar
    33    19    13   ar
@<TRIPOS>MOLECULE
*****
 30 33 0 0 0
SMALL
GASTEIGER

@<TRIPOS>ATOM
      1 C           8.5886   -6.7650   23.3717 C.3     1  UNL1        0.0282
      2 C           8.1544   -5.6459   24.2713 C.3     1  UNL1        0.1189
      3 C           8.3080   -5.7757   25.7577 C.ar    1  UNL1        0.1137
      4 N           8.8494   -6.8786   26.6182 N.ar    1  UNL1       -0.1315
      5 N           8.7498   -6.4410   28.0495 N.ar    1  UNL1       -0.0588
      6 N           8.1467   -5.0678   28.0736 N.ar    1  UNL1       -0.1972
      7 C           7.8737   -4.6566   26.6572 C.ar    1  UNL1        0.0823
      8 C           7.2858   -3.4077   26.0702 C.3     1  UNL1        0.0688
      9 C           7.1321   -3.2779   24.5837 C.3     1  UNL1        0.1004
     10 N           7.5664   -4.3969   23.6843 N.am    1  UNL1       -0.2719
     11 C           7.4127   -4.2671   22.1978 C.2     1  UNL1        0.2501
     12 O           7.8470   -5.3863   21.2983 O.2     1  UNL1       -0.2699
     13 C           7.8661   -4.2495   29.2990 C.ar    1  UNL1        0.1673
     14 C           7.1253   -4.8571   30.4531 C.ar    1  UNL1        0.0685
     15 C           6.8446   -4.0388   31.6786 C.ar    1  UNL1        0.1448
     16 F           6.1038   -4.6465   32.8327 F       1  UNL1       -0.2040
     17 C           7.3046   -2.6129   31.7498 C.ar    1  UNL1        0.0504
     18 C           8.0454   -2.0053   30.5956 C.ar    1  UNL1        0.1029
     19 N           8.3261   -2.8235   29.3702 N.ar    1  UNL1       -0.2248
     20 C           6.8247   -3.0183   21.6108 C.ar    1  UNL1        0.0641
     21 C           7.7102   -1.8501   21.2928 C.ar    1  UNL1        0.0054
     22 C           7.1222   -0.6011   20.7058 C.ar    1  UNL1        0.0001
     23 C           5.6488   -0.5205   20.4368 C.ar    1  UNL1        0.0047
     24 C           4.7632   -1.6888   20.7548 C.ar    1  UNL1        0.0821
     25 C           5.3512   -2.9377   21.3418 C.ar    1  UNL1        0.0659
     26 CL          4.4657   -4.1059   21.6598 Cl      1  UNL1       -0.0822
     27 C           3.2898   -1.6081   20.4858 C.3     1  UNL1        0.4194
     28 F           1.8163   -1.5274   20.2167 F       1  UNL1       -0.1658
     29 F           3.5228   -2.0592   19.0743 F       1  UNL1       -0.1658
     30 F           3.0568   -1.1570   21.8972 F       1  UNL1       -0.1658
@<TRIPOS>BOND
     1     2     1    1
     2     2     3    1
     3     3     4   ar
     4     4     5   ar
     5     5     6   ar
     6     6    13    1
     7    13    14   ar
     8    14    15   ar
     9    15    16    1
    10    15    17   ar
    11    17    18   ar
    12    18    19   ar
    13     6     7   ar
    14     7     8    1
    15     8     9    1
    16     9    10    1
    17    10    11   am
    18    11    12    2
    19    11    20    1
    20    20    21   ar
    21    21    22   ar
    22    22    23   ar
    23    23    24   ar
    24    24    27    1
    25    27    28    1
    26    27    29    1
    27    27    30    1
    28    24    25   ar
    29    25    26    1
    30    10     2    1
    31    25    20   ar
    32     7     3   ar
    33    19    13   ar
@<TRIPOS>MOLECULE
*****
 30 33 0 0 0
SMALL
GASTEIGER

@<TRIPOS>ATOM
      1 C           5.7274   -3.2341   18.5616 C.3     1  UNL1        0.0282
      2 C           5.3836   -2.9384   19.9915 C.3     1  UNL1        0.1189
      3 C           6.1151   -3.6373   21.0988 C.ar    1  UNL1        0.1137
      4 N           7.2135   -4.6588   21.0880 N.ar    1  UNL1       -0.1315
      5 N           7.5485   -4.9943   22.5111 N.ar    1  UNL1       -0.0588
      6 N           6.6572   -4.1802   23.4015 N.ar    1  UNL1       -0.1972
      7 C           5.7713   -3.3415   22.5286 C.ar    1  UNL1        0.0823
      8 C           4.6959   -2.3467   22.8510 C.3     1  UNL1        0.0688
      9 C           3.9644   -1.6478   21.7437 C.3     1  UNL1        0.1004
     10 N           4.3082   -1.9435   20.3140 N.am    1  UNL1       -0.2719
     11 C           3.5766   -1.2445   19.2065 C.2     1  UNL1        0.2501
     12 O           3.9205   -1.5403   17.7768 O.2     1  UNL1       -0.2699
     13 C           6.6526   -4.2011   24.9013 C.ar    1  UNL1        0.1673
     14 C           7.0061   -5.4608   25.6349 C.ar    1  UNL1        0.0685
     15 C           7.0015   -5.4818   27.1348 C.ar    1  UNL1        0.1448
     16 F           7.3551   -6.7415   27.8683 F       1  UNL1       -0.2040
     17 C           6.6434   -4.2430   27.9010 C.ar    1  UNL1        0.0504
     18 C           6.2899   -2.9833   27.1674 C.ar    1  UNL1        0.1029
     19 N           6.2944   -2.9623   25.6676 N.ar    1  UNL1       -0.2248
     20 C           2.5013   -0.2497   19.5289 C.ar    1  UNL1        0.0641
     21 C           1.2058   -0.7129   20.1266 C.ar    1  UNL1        0.0054
     22 C           0.1304    0.2819   20.4490 C.ar    1  UNL1        0.0001
     23 C           0.3505    1.7399   20.1738 C.ar    1  UNL1        0.0047
     24 C           1.6461    2.2031   19.5761 C.ar    1  UNL1        0.0821
     25 C           2.7215    1.2083   19.2537 C.ar    1  UNL1        0.0659
     26 CL          4.0169    1.6716   18.6561 Cl      1  UNL1       -0.0822
     27 C           1.8662    3.6611   19.3009 C.3     1  UNL1        0.4194
     28 F           2.0863    5.1192   19.0257 F       1  UNL1       -0.1658
     29 F           2.5452    3.8096   20.6302 F       1  UNL1       -0.1658
     30 F           1.1872    3.5127   17.9716 F       1  UNL1       -0.1658
@<TRIPOS>BOND
     1     2     1    1
     2     2     3    1
     3     3     4   ar
     4     4     5   ar
     5     5     6   ar
     6     6    13    1
     7    13    14   ar
     8    14    15   ar
     9    15    16    1
    10    15    17   ar
    11    17    18   ar
    12    18    19   ar
    13     6     7   ar
    14     7     8    1
    15     8     9    1
    16     9    10    1
    17    10    11   am
    18    11    12    2
    19    11    20    1
    20    20    21   ar
    21    21    22   ar
    22    22    23   ar
    23    23    24   ar
    24    24    27    1
    25    27    28    1
    26    27    29    1
    27    27    30    1
    28    24    25   ar
    29    25    26    1
    30    10     2    1
    31    25    20   ar
    32     7     3   ar
    33    19    13   ar
@<TRIPOS>MOLECULE
*****
 30 33 0 0 0
SMALL
GASTEIGER

@<TRIPOS>ATOM
      1 C           0.7730    2.6915   20.2853 C.3     1  UNL1        0.0282
      2 C           1.2403    1.9431   21.4984 C.3     1  UNL1        0.1189
      3 C           0.5553    2.1493   22.8169 C.ar    1  UNL1        0.1137
      4 N          -0.5978    3.0180   23.2238 N.ar    1  UNL1       -0.1315
      5 N          -0.8432    2.8065   24.6884 N.ar    1  UNL1       -0.0588
      6 N           0.1583    1.8071   25.1866 N.ar    1  UNL1       -0.1972
      7 C           1.0226    1.4009   24.0299 C.ar    1  UNL1        0.0823
      8 C           2.1748    0.4463   23.9245 C.3     1  UNL1        0.0688
      9 C           2.8597    0.2401   22.6061 C.3     1  UNL1        0.1004
     10 N           2.3925    0.9884   21.3931 N.am    1  UNL1       -0.2719
     11 C           3.0775    0.7822   20.0745 C.2     1  UNL1        0.2501
     12 O           2.6102    1.5306   18.8615 O.2     1  UNL1       -0.2699
     13 C           0.2749    1.3024   26.5943 C.ar    1  UNL1        0.1673
     14 C          -0.9619    1.0091   27.3907 C.ar    1  UNL1        0.0685
     15 C          -0.8454    0.5045   28.7986 C.ar    1  UNL1        0.1448
     16 F          -2.0823    0.2112   29.5949 F       1  UNL1       -0.2040
     17 C           0.5079    0.2931   29.4098 C.ar    1  UNL1        0.0504
     18 C           1.7448    0.5865   28.6134 C.ar    1  UNL1        0.1029
     19 N           1.6282    1.0911   27.2057 N.ar    1  UNL1       -0.2248
     20 C           4.2297   -0.1724   19.9691 C.ar    1  UNL1        0.0641
     21 C           5.6347    0.3270   20.1317 C.ar    1  UNL1        0.0054
     22 C           6.7869   -0.6277   20.0263 C.ar    1  UNL1        0.0001
     23 C           6.5341   -2.0817   19.7584 C.ar    1  UNL1        0.0047
     24 C           5.1289   -2.5811   19.5958 C.ar    1  UNL1        0.0821
     25 C           3.9767   -1.6265   19.7012 C.ar    1  UNL1        0.0659
     26 CL          2.5717   -2.1260   19.5387 Cl      1  UNL1       -0.0822
     27 C           4.8761   -4.0352   19.3279 C.3     1  UNL1        0.4194
     28 F           4.6233   -5.4893   19.0600 F       1  UNL1       -0.1658
     29 F           5.0432   -3.7932   17.8570 F       1  UNL1       -0.1658
     30 F           4.7090   -4.2772   20.7988 F       1  UNL1       -0.1658
@<TRIPOS>BOND
     1     2     1    1
     2     2     3    1
     3     3     4   ar
     4     4     5   ar
     5     5     6   ar
     6     6    13    1
     7    13    14   ar
     8    14    15   ar
     9    15    16    1
    10    15    17   ar
    11    17    18   ar
    12    18    19   ar
    13     6     7   ar
    14     7     8    1
    15     8     9    1
    16     9    10    1
    17    10    11   am
    18    11    12    2
    19    11    20    1
    20    20    21   ar
    21    21    22   ar
    22    22    23   ar
    23    23    24   ar
    24    24    27    1
    25    27    28    1
    26    27    29    1
    27    27    30    1
    28    24    25   ar
    29    25    26    1
    30    10     2    1
    31    25    20   ar
    32     7     3   ar
    33    19    13   ar
