@<TRIPOS>MOLECULE
*****
 30 34 0 0 0
SMALL
GASTEIGER

@<TRIPOS>ATOM
      1 C          -1.3165    2.6827   25.6559 C.ar    1  UNL1        0.0872
      2 C          -0.6262    2.1683   24.4276 C.ar    1  UNL1        0.0535
      3 C           0.6004    1.3148   24.5584 C.ar    1  UNL1        0.1349
      4 N           1.1367    0.9757   25.9176 N.ar    1  UNL1       -0.2119
      5 C           0.4463    1.4901   27.1460 C.ar    1  UNL1        0.1637
      6 N          -0.7802    2.3436   27.0151 N.ar    1  UNL1       -0.2264
      7 C          -4.6606    4.6092   26.5809 C.ar    1  UNL1        0.0207
      8 C          -4.9962    5.2431   25.2636 C.ar    1  UNL1        0.0989
      9 N          -4.1052    5.0236   24.0770 N.ar    1  UNL1       -0.2423
     10 C          -2.8787    4.1701   24.2078 C.ar    1  UNL1        0.1003
     11 C          -2.5431    3.5362   25.5251 C.ar    1  UNL1        0.0370
     12 C          -3.4341    3.7557   26.7117 C.ar    1  UNL1        0.0046
     13 N           1.2907    0.8005   23.3300 N.pl3   1  UNL1       -0.2931
     14 C           0.7024    1.0602   21.9748 C.3     1  UNL1        0.0935
     15 C           1.3927    0.5458   20.7465 C.3     1  UNL1        0.0375
     16 C           2.6713   -0.2283   20.8733 C.3     1  UNL1        0.0611
     17 C           3.2596   -0.4880   22.2284 C.3     1  UNL1        0.0375
     18 C           2.5692    0.0264   23.4568 C.3     1  UNL1        0.0935
     19 N           3.3616   -0.7427   19.6449 N.3     1  UNL1       -0.2696
     20 C           3.0831   -0.1168   18.3105 C.3     1  UNL1        0.1046
     21 C           3.7734   -0.6311   17.0821 C.3     1  UNL1        0.1595
     22 O           4.7422   -1.7715   17.1882 O.3     1  UNL1       -0.3508
     23 C           5.0206   -2.3974   18.5226 C.3     1  UNL1        0.1595
     24 C           4.3303   -1.8829   19.7510 C.3     1  UNL1        0.1046
     25 C           0.9826    1.1510   28.5052 C.ar    1  UNL1        0.0389
     26 C           1.6979   -0.1488   28.7264 C.ar    1  UNL1        0.0237
     27 C           2.2342   -0.4879   30.0856 C.ar    1  UNL1        0.0990
     28 N           2.0551    0.4729   31.2236 N.ar    1  UNL1       -0.2423
     29 C           1.3398    1.7726   31.0024 C.ar    1  UNL1        0.0990
     30 C           0.8035    2.1117   29.6432 C.ar    1  UNL1        0.0237
@<TRIPOS>BOND
     1     7     8   ar
     2     8     9   ar
     3     9    10   ar
     4    10    11   ar
     5    11     1    1
     6     1     2   ar
     7     2     3   ar
     8     3    13    1
     9    13    14    1
    10    14    15    1
    11    15    16    1
    12    16    19    1
    13    19    20    1
    14    20    21    1
    15    21    22    1
    16    22    23    1
    17    23    24    1
    18    16    17    1
    19    17    18    1
    20     3     4   ar
    21     4     5   ar
    22     5    25    1
    23    25    26   ar
    24    26    27   ar
    25    27    28   ar
    26    28    29   ar
    27    29    30   ar
    28     5     6   ar
    29    11    12   ar
    30    12     7   ar
    31     6     1   ar
    32    18    13    1
    33    30    25   ar
    34    24    19    1
@<TRIPOS>MOLECULE
*****
 30 34 0 0 0
SMALL
GASTEIGER

@<TRIPOS>ATOM
      1 C         -13.7600   -5.4888   19.2166 C.ar    1  UNL1        0.0872
      2 C         -14.3776   -4.1431   19.4562 C.ar    1  UNL1        0.0535
      3 C         -15.8668   -4.0126   19.5799 C.ar    1  UNL1        0.1349
      4 N         -16.7384   -5.2279   19.4640 N.ar    1  UNL1       -0.2119
      5 C         -16.1207   -6.5737   19.2243 C.ar    1  UNL1        0.1637
      6 N         -14.6315   -6.7041   19.1006 N.ar    1  UNL1       -0.2264
      7 C         -10.1600   -7.1025   18.7848 C.ar    1  UNL1        0.0207
      8 C          -9.2924   -5.8804   18.8455 C.ar    1  UNL1        0.0989
      9 N          -9.9140   -4.5278   19.0299 N.ar    1  UNL1       -0.2423
     10 C         -11.4032   -4.3972   19.1536 C.ar    1  UNL1        0.1003
     11 C         -12.2707   -5.6193   19.0929 C.ar    1  UNL1        0.0370
     12 C         -11.6492   -6.9720   18.9085 C.ar    1  UNL1        0.0046
     13 N         -16.4844   -2.6669   19.8196 N.pl3   1  UNL1       -0.2931
     14 C         -15.6148   -1.4482   19.9117 C.3     1  UNL1        0.0935
     15 C         -16.2324   -0.1024   20.1513 C.3     1  UNL1        0.0375
     16 C         -17.7197    0.0247   20.2989 C.3     1  UNL1        0.0611
     17 C         -18.5894   -1.1940   20.2068 C.3     1  UNL1        0.0375
     18 C         -17.9717   -2.5398   19.9671 C.3     1  UNL1        0.0935
     19 N         -18.3373    1.3704   20.5385 N.3     1  UNL1       -0.2696
     20 C         -17.6881    2.6033   19.9830 C.3     1  UNL1        0.1046
     21 C         -18.3057    3.9490   20.2227 C.3     1  UNL1        0.1595
     22 O         -19.5726    4.0620   21.0178 O.3     1  UNL1       -0.3508
     23 C         -20.2219    2.8291   21.5733 C.3     1  UNL1        0.1595
     24 C         -19.6042    1.4833   21.3337 C.3     1  UNL1        0.1046
     25 C         -16.9922   -7.7890   19.1083 C.ar    1  UNL1        0.0389
     26 C         -16.5150   -8.9833   18.3363 C.ar    1  UNL1        0.0237
     27 C         -17.3865  -10.1986   18.2203 C.ar    1  UNL1        0.0990
     28 N         -18.7353  -10.2196   18.8764 N.ar    1  UNL1       -0.2423
     29 C         -19.2125   -9.0254   19.6484 C.ar    1  UNL1        0.0990
     30 C         -18.3410   -7.8101   19.7644 C.ar    1  UNL1        0.0237
@<TRIPOS>BOND
     1     7     8   ar
     2     8     9   ar
     3     9    10   ar
     4    10    11   ar
     5    11     1    1
     6     1     2   ar
     7     2     3   ar
     8     3    13    1
     9    13    14    1
    10    14    15    1
    11    15    16    1
    12    16    19    1
    13    19    20    1
    14    20    21    1
    15    21    22    1
    16    22    23    1
    17    23    24    1
    18    16    17    1
    19    17    18    1
    20     3     4   ar
    21     4     5   ar
    22     5    25    1
    23    25    26   ar
    24    26    27   ar
    25    27    28   ar
    26    28    29   ar
    27    29    30   ar
    28     5     6   ar
    29    11    12   ar
    30    12     7   ar
    31     6     1   ar
    32    18    13    1
    33    30    25   ar
    34    24    19    1
@<TRIPOS>MOLECULE
*****
 30 34 0 0 0
SMALL
GASTEIGER

@<TRIPOS>ATOM
      1 C           0.3276    1.7377   27.0973 C.ar    1  UNL1        0.0872
      2 C           1.0288    1.1979   25.8862 C.ar    1  UNL1        0.0535
      3 C           0.4611    1.4429   24.5195 C.ar    1  UNL1        0.1349
      4 N          -0.8078    2.2277   24.3641 N.ar    1  UNL1       -0.2119
      5 C          -1.5089    2.7675   25.5753 C.ar    1  UNL1        0.1637
      6 N          -0.9412    2.5225   26.9419 N.ar    1  UNL1       -0.2264
      7 C           1.7863    2.4062   30.7272 C.ar    1  UNL1        0.0207
      8 C           2.0307    1.0029   31.1973 C.ar    1  UNL1        0.0989
      9 N           1.7074   -0.1555   30.3008 N.ar    1  UNL1       -0.2423
     10 C           1.1397    0.0895   28.9342 C.ar    1  UNL1        0.1003
     11 C           0.8954    1.4927   28.4640 C.ar    1  UNL1        0.0370
     12 C           1.2187    2.6511   29.3605 C.ar    1  UNL1        0.0046
     13 N           1.1622    0.9031   23.3083 N.pl3   1  UNL1       -0.2931
     14 C           0.5834    1.1302   21.9432 C.3     1  UNL1        0.0935
     15 C           1.2846    0.5904   20.7320 C.3     1  UNL1        0.0375
     16 C           2.5645   -0.1765   20.8859 C.3     1  UNL1        0.0611
     17 C           3.1433   -0.4036   22.2510 C.3     1  UNL1        0.0375
     18 C           2.4421    0.1363   23.4622 C.3     1  UNL1        0.0935
     19 N           3.2657   -0.7163   19.6747 N.3     1  UNL1       -0.2696
     20 C           4.1591   -1.9149   19.7973 C.3     1  UNL1        0.1046
     21 C           4.8603   -2.4547   18.5861 C.3     1  UNL1        0.1595
     22 O           4.6679   -1.7959   17.2523 O.3     1  UNL1       -0.3508
     23 C           3.7745   -0.5973   17.1297 C.3     1  UNL1        0.1595
     24 C           3.0733   -0.0575   18.3410 C.3     1  UNL1        0.1046
     25 C          -2.7777    3.5523   25.4199 C.ar    1  UNL1        0.0389
     26 C          -3.2398    3.9684   24.0548 C.ar    1  UNL1        0.0237
     27 C          -4.5086    4.7532   23.8994 C.ar    1  UNL1        0.0990
     28 N          -5.3154    5.1218   25.1091 N.ar    1  UNL1       -0.2423
     29 C          -4.8534    4.7057   26.4741 C.ar    1  UNL1        0.0990
     30 C          -3.5845    3.9209   26.6295 C.ar    1  UNL1        0.0237
@<TRIPOS>BOND
     1     7     8   ar
     2     8     9   ar
     3     9    10   ar
     4    10    11   ar
     5    11     1    1
     6     1     2   ar
     7     2     3   ar
     8     3    13    1
     9    13    14    1
    10    14    15    1
    11    15    16    1
    12    16    19    1
    13    19    20    1
    14    20    21    1
    15    21    22    1
    16    22    23    1
    17    23    24    1
    18    16    17    1
    19    17    18    1
    20     3     4   ar
    21     4     5   ar
    22     5    25    1
    23    25    26   ar
    24    26    27   ar
    25    27    28   ar
    26    28    29   ar
    27    29    30   ar
    28     5     6   ar
    29    11    12   ar
    30    12     7   ar
    31     6     1   ar
    32    18    13    1
    33    30    25   ar
    34    24    19    1
@<TRIPOS>MOLECULE
*****
 30 34 0 0 0
SMALL
GASTEIGER

@<TRIPOS>ATOM
      1 C           0.0022    2.0824   20.4002 C.ar    1  UNL1        0.0872
      2 C           0.1358    1.9964   21.8917 C.ar    1  UNL1        0.0535
      3 C           1.1747    1.1024   22.5013 C.ar    1  UNL1        0.1349
      4 N           2.0798    0.2943   21.6194 N.ar    1  UNL1       -0.2119
      5 C           1.9460    0.3803   20.1278 C.ar    1  UNL1        0.1637
      6 N           0.9073    1.2743   19.5182 N.ar    1  UNL1       -0.2264
      7 C          -1.8151    4.5298   17.8589 C.ar    1  UNL1        0.0207
      8 C          -3.1141    4.7644   18.5712 C.ar    1  UNL1        0.0989
      9 N          -3.3745    4.1050   19.8931 N.ar    1  UNL1       -0.2423
     10 C          -2.3357    3.2110   20.5027 C.ar    1  UNL1        0.1003
     11 C          -1.0367    2.9764   19.7905 C.ar    1  UNL1        0.0370
     12 C          -0.7763    3.6358   18.4686 C.ar    1  UNL1        0.0046
     13 N           1.3084    1.0165   23.9929 N.pl3   1  UNL1       -0.2931
     14 C           2.5893    0.5315   24.6044 C.3     1  UNL1        0.0935
     15 C           2.7230    0.4456   26.0959 C.3     1  UNL1        0.0375
     16 C           1.5757    0.8446   26.9760 C.3     1  UNL1        0.0611
     17 C           0.2947    1.3296   26.3645 C.3     1  UNL1        0.0375
     18 C           0.1611    1.4155   24.8729 C.3     1  UNL1        0.0935
     19 N           1.7094    0.7587   28.4675 N.3     1  UNL1       -0.2696
     20 C           2.3401   -0.4486   29.0957 C.3     1  UNL1        0.1046
     21 C           2.4738   -0.5346   30.5872 C.3     1  UNL1        0.1595
     22 O           1.9767    0.5868   31.4507 O.3     1  UNL1       -0.3508
     23 C           1.3460    1.7941   30.8225 C.3     1  UNL1        0.1595
     24 C           1.2123    1.8800   29.3309 C.3     1  UNL1        0.1046
     25 C           2.8511   -0.4278   19.2459 C.ar    1  UNL1        0.0389
     26 C           3.4125   -1.7287   19.7383 C.ar    1  UNL1        0.0237
     27 C           4.3176   -2.5368   18.8564 C.ar    1  UNL1        0.0990
     28 N           4.6613   -2.0439   17.4820 N.ar    1  UNL1       -0.2423
     29 C           4.1000   -0.7430   16.9896 C.ar    1  UNL1        0.0990
     30 C           3.1949    0.0651   17.8715 C.ar    1  UNL1        0.0237
@<TRIPOS>BOND
     1     7     8   ar
     2     8     9   ar
     3     9    10   ar
     4    10    11   ar
     5    11     1    1
     6     1     2   ar
     7     2     3   ar
     8     3    13    1
     9    13    14    1
    10    14    15    1
    11    15    16    1
    12    16    19    1
    13    19    20    1
    14    20    21    1
    15    21    22    1
    16    22    23    1
    17    23    24    1
    18    16    17    1
    19    17    18    1
    20     3     4   ar
    21     4     5   ar
    22     5    25    1
    23    25    26   ar
    24    26    27   ar
    25    27    28   ar
    26    28    29   ar
    27    29    30   ar
    28     5     6   ar
    29    11    12   ar
    30    12     7   ar
    31     6     1   ar
    32    18    13    1
    33    30    25   ar
    34    24    19    1
@<TRIPOS>MOLECULE
*****
 30 34 0 0 0
SMALL
GASTEIGER

@<TRIPOS>ATOM
      1 C           2.4277   -0.2003   20.3312 C.ar    1  UNL1        0.0872
      2 C           2.4218   -0.1487   21.8303 C.ar    1  UNL1        0.0535
      3 C           1.5209    0.8152   22.5441 C.ar    1  UNL1        0.1349
      4 N           0.6259    1.7274   21.7587 N.ar    1  UNL1       -0.2119
      5 C           0.6319    1.6757   20.2595 C.ar    1  UNL1        0.1637
      6 N           1.5328    0.7119   19.5458 N.ar    1  UNL1       -0.2264
      7 C           4.5448   -3.4580   19.5216 C.ar    1  UNL1        0.0207
      8 C           5.1304   -3.0918   18.1901 C.ar    1  UNL1        0.0989
      9 N           4.8152   -1.7619   17.5723 N.ar    1  UNL1       -0.2423
     10 C           3.9143   -0.7980   18.2860 C.ar    1  UNL1        0.1003
     11 C           3.3287   -1.1642   19.6175 C.ar    1  UNL1        0.0370
     12 C           3.6440   -2.4942   20.2353 C.ar    1  UNL1        0.0046
     13 N           1.5150    0.8668   24.0431 N.pl3   1  UNL1       -0.2931
     14 C           2.7450    0.4840   24.8116 C.3     1  UNL1        0.0935
     15 C           2.7391    0.5356   26.3107 C.3     1  UNL1        0.0375
     16 C           1.5031    0.9700   27.0413 C.3     1  UNL1        0.0611
     17 C           0.2731    1.3527   26.2729 C.3     1  UNL1        0.0375
     18 C           0.2791    1.3011   24.7737 C.3     1  UNL1        0.0935
     19 N           1.4972    1.0216   28.5404 N.3     1  UNL1       -0.2696
     20 C           2.4307    0.1477   29.3246 C.3     1  UNL1        0.1046
     21 C           2.4248    0.1993   30.8237 C.3     1  UNL1        0.1595
     22 O           1.4854    1.1249   31.5386 O.3     1  UNL1       -0.3508
     23 C           0.5519    1.9987   30.7544 C.3     1  UNL1        0.1595
     24 C           0.5579    1.9471   29.2552 C.3     1  UNL1        0.1046
     25 C          -0.2631    2.5880   19.4741 C.ar    1  UNL1        0.0389
     26 C          -1.4907    3.1668   20.1129 C.ar    1  UNL1        0.0237
     27 C          -2.3857    4.0790   19.3275 C.ar    1  UNL1        0.0990
     28 N          -2.0531    4.4124   17.9033 N.ar    1  UNL1       -0.2423
     29 C          -0.8256    3.8335   17.2646 C.ar    1  UNL1        0.0990
     30 C           0.0694    2.9213   18.0500 C.ar    1  UNL1        0.0237
@<TRIPOS>BOND
     1     7     8   ar
     2     8     9   ar
     3     9    10   ar
     4    10    11   ar
     5    11     1    1
     6     1     2   ar
     7     2     3   ar
     8     3    13    1
     9    13    14    1
    10    14    15    1
    11    15    16    1
    12    16    19    1
    13    19    20    1
    14    20    21    1
    15    21    22    1
    16    22    23    1
    17    23    24    1
    18    16    17    1
    19    17    18    1
    20     3     4   ar
    21     4     5   ar
    22     5    25    1
    23    25    26   ar
    24    26    27   ar
    25    27    28   ar
    26    28    29   ar
    27    29    30   ar
    28     5     6   ar
    29    11    12   ar
    30    12     7   ar
    31     6     1   ar
    32    18    13    1
    33    30    25   ar
    34    24    19    1
@<TRIPOS>MOLECULE
*****
 30 34 0 0 0
SMALL
GASTEIGER

@<TRIPOS>ATOM
      1 C           1.5414    0.5517   20.3836 C.ar    1  UNL1        0.0872
      2 C           1.6906    0.4956   21.8751 C.ar    1  UNL1        0.0535
      3 C           0.8006    1.3281   22.7497 C.ar    1  UNL1        0.1349
      4 N          -0.2385    2.2168   22.1328 N.ar    1  UNL1       -0.2119
      5 C          -0.3877    2.2728   20.6412 C.ar    1  UNL1        0.1637
      6 N           0.5023    1.4403   19.7667 N.ar    1  UNL1       -0.2264
      7 C           3.8209   -2.4416   19.1208 C.ar    1  UNL1        0.0207
      8 C           4.2111   -1.9460   17.7599 C.ar    1  UNL1        0.0989
      9 N           3.7115   -0.6179   17.2736 N.ar    1  UNL1       -0.2423
     10 C           2.8216    0.2147   18.1481 C.ar    1  UNL1        0.1003
     11 C           2.4313   -0.2809   19.5090 C.ar    1  UNL1        0.0370
     12 C           2.9310   -1.6090   19.9953 C.ar    1  UNL1        0.0046
     13 N           0.9498    1.2721   24.2412 N.pl3   1  UNL1       -0.2931
     14 C           2.2629    0.8771   24.8493 C.3     1  UNL1        0.0935
     15 C           2.4121    0.8210   26.3408 C.3     1  UNL1        0.0375
     16 C           1.2482    1.1599   27.2243 C.3     1  UNL1        0.0611
     17 C          -0.0649    1.5549   26.6162 C.3     1  UNL1        0.0375
     18 C          -0.2141    1.6110   25.1246 C.3     1  UNL1        0.0935
     19 N           1.3974    1.1038   28.7157 N.3     1  UNL1       -0.2696
     20 C           2.3193    0.0987   29.3400 C.3     1  UNL1        0.1046
     21 C           2.4685    0.0426   30.8315 C.3     1  UNL1        0.1595
     22 O           1.6957    0.9917   31.6988 O.3     1  UNL1       -0.3508
     23 C           0.7738    1.9969   31.0745 C.3     1  UNL1        0.1595
     24 C           0.6246    2.0529   29.5829 C.3     1  UNL1        0.1046
     25 C          -1.4268    3.1614   20.0243 C.ar    1  UNL1        0.0389
     26 C          -2.7979    3.2427   20.6273 C.ar    1  UNL1        0.0237
     27 C          -3.8370    4.1313   20.0103 C.ar    1  UNL1        0.0990
     28 N          -3.5050    4.9386   18.7905 N.ar    1  UNL1       -0.2423
     29 C          -2.1339    4.8573   18.1876 C.ar    1  UNL1        0.0990
     30 C          -1.0948    3.9687   18.8045 C.ar    1  UNL1        0.0237
@<TRIPOS>BOND
     1     7     8   ar
     2     8     9   ar
     3     9    10   ar
     4    10    11   ar
     5    11     1    1
     6     1     2   ar
     7     2     3   ar
     8     3    13    1
     9    13    14    1
    10    14    15    1
    11    15    16    1
    12    16    19    1
    13    19    20    1
    14    20    21    1
    15    21    22    1
    16    22    23    1
    17    23    24    1
    18    16    17    1
    19    17    18    1
    20     3     4   ar
    21     4     5   ar
    22     5    25    1
    23    25    26   ar
    24    26    27   ar
    25    27    28   ar
    26    28    29   ar
    27    29    30   ar
    28     5     6   ar
    29    11    12   ar
    30    12     7   ar
    31     6     1   ar
    32    18    13    1
    33    30    25   ar
    34    24    19    1
@<TRIPOS>MOLECULE
*****
 30 34 0 0 0
SMALL
GASTEIGER

@<TRIPOS>ATOM
      1 C           4.9721   -2.4838   23.2315 C.ar    1  UNL1        0.0872
      2 C           4.6164   -1.9640   24.5928 C.ar    1  UNL1        0.0535
      3 C           3.5362   -0.9341   24.7438 C.ar    1  UNL1        0.1349
      4 N           2.8118   -0.4241   23.5334 N.ar    1  UNL1       -0.2119
      5 C           3.1676   -0.9439   22.1720 C.ar    1  UNL1        0.1637
      6 N           4.2477   -1.9738   22.0211 N.ar    1  UNL1       -0.2264
      7 C           7.6810   -5.2379   24.1407 C.ar    1  UNL1        0.0207
      8 C           8.2124   -5.5733   22.7787 C.ar    1  UNL1        0.0989
      9 N           7.6638   -4.8788   21.5676 N.ar    1  UNL1       -0.2423
     10 C           6.5837   -3.8490   21.7185 C.ar    1  UNL1        0.1003
     11 C           6.0522   -3.5137   23.0805 C.ar    1  UNL1        0.0370
     12 C           6.6009   -4.2081   24.2916 C.ar    1  UNL1        0.0046
     13 N           3.1805   -0.4144   26.1051 N.pl3   1  UNL1       -0.2931
     14 C           3.5372   -1.2073   27.3274 C.3     1  UNL1        0.0935
     15 C           3.1815   -0.6875   28.6888 C.3     1  UNL1        0.0375
     16 C           2.4691    0.6253   28.8278 C.3     1  UNL1        0.0611
     17 C           2.1124    1.4182   27.6055 C.3     1  UNL1        0.0375
     18 C           2.4682    0.8983   26.2441 C.3     1  UNL1        0.0935
     19 N           2.1134    1.1450   30.1891 N.3     1  UNL1       -0.2696
     20 C           0.8915    1.9957   30.3715 C.3     1  UNL1        0.1046
     21 C           0.5358    2.5155   31.7328 C.3     1  UNL1        0.1595
     22 O           1.4020    2.1846   32.9119 O.3     1  UNL1       -0.3508
     23 C           2.6240    1.3340   32.7296 C.3     1  UNL1        0.1595
     24 C           2.9796    0.8142   31.3681 C.3     1  UNL1        0.1046
     25 C           2.4432   -0.4339   20.9616 C.ar    1  UNL1        0.0389
     26 C           1.1109    0.2386   21.1128 C.ar    1  UNL1        0.0237
     27 C           0.3865    0.7486   19.9024 C.ar    1  UNL1        0.0990
     28 N           0.9944    0.5862   18.5407 N.ar    1  UNL1       -0.2423
     29 C           2.3266   -0.0863   18.3895 C.ar    1  UNL1        0.0990
     30 C           3.0510   -0.5964   19.5999 C.ar    1  UNL1        0.0237
@<TRIPOS>BOND
     1     7     8   ar
     2     8     9   ar
     3     9    10   ar
     4    10    11   ar
     5    11     1    1
     6     1     2   ar
     7     2     3   ar
     8     3    13    1
     9    13    14    1
    10    14    15    1
    11    15    16    1
    12    16    19    1
    13    19    20    1
    14    20    21    1
    15    21    22    1
    16    22    23    1
    17    23    24    1
    18    16    17    1
    19    17    18    1
    20     3     4   ar
    21     4     5   ar
    22     5    25    1
    23    25    26   ar
    24    26    27   ar
    25    27    28   ar
    26    28    29   ar
    27    29    30   ar
    28     5     6   ar
    29    11    12   ar
    30    12     7   ar
    31     6     1   ar
    32    18    13    1
    33    30    25   ar
    34    24    19    1
@<TRIPOS>MOLECULE
*****
 30 34 0 0 0
SMALL
GASTEIGER

@<TRIPOS>ATOM
      1 C           3.5103   -1.1337   21.9730 C.ar    1  UNL1        0.0872
      2 C           3.1320   -0.6362   23.3365 C.ar    1  UNL1        0.0535
      3 C           3.8361   -1.1662   24.5503 C.ar    1  UNL1        0.1349
      4 N           4.9185   -2.1938   24.4006 N.ar    1  UNL1       -0.2119
      5 C           5.2968   -2.6914   23.0369 C.ar    1  UNL1        0.1637
      6 N           4.5927   -2.1613   21.8232 N.ar    1  UNL1       -0.2264
      7 C           0.6575    0.3215   19.6291 C.ar    1  UNL1        0.0207
      8 C           1.3980    0.4563   18.3316 C.ar    1  UNL1        0.0989
      9 N           2.8425    0.0611   18.2479 N.ar    1  UNL1       -0.2423
     10 C           3.5466   -0.4689   19.4616 C.ar    1  UNL1        0.1003
     11 C           2.8062   -0.6037   20.7591 C.ar    1  UNL1        0.0370
     12 C           1.3616   -0.2085   20.8428 C.ar    1  UNL1        0.0046
     13 N           3.4578   -0.6687   25.9139 N.pl3   1  UNL1       -0.2931
     14 C           2.6716    0.6007   26.0576 C.3     1  UNL1        0.0935
     15 C           2.2933    1.0982   27.4212 C.3     1  UNL1        0.0375
     16 C           2.7012    0.3264   28.6410 C.3     1  UNL1        0.0611
     17 C           3.4874   -0.9429   28.4973 C.3     1  UNL1        0.0375
     18 C           3.8657   -1.4405   27.1337 C.3     1  UNL1        0.0935
     19 N           2.3229    0.8240   30.0046 N.3     1  UNL1       -0.2696
     20 C           3.1864    0.4999   31.1875 C.3     1  UNL1        0.1046
     21 C           2.8081    0.9974   32.5510 C.3     1  UNL1        0.1595
     22 O           1.5662    1.8191   32.7317 O.3     1  UNL1       -0.3508
     23 C           0.7027    2.1432   31.5488 C.3     1  UNL1        0.1595
     24 C           1.0810    1.6456   30.1852 C.3     1  UNL1        0.1046
     25 C           6.3793   -3.7190   22.8872 C.ar    1  UNL1        0.0389
     26 C           7.0895   -3.8744   21.5751 C.ar    1  UNL1        0.0237
     27 C           8.1719   -4.9020   21.4253 C.ar    1  UNL1        0.0990
     28 N           8.5441   -5.7741   22.5876 N.ar    1  UNL1       -0.2423
     29 C           7.8339   -5.6187   23.8996 C.ar    1  UNL1        0.0990
     30 C           6.7515   -4.5911   24.0494 C.ar    1  UNL1        0.0237
@<TRIPOS>BOND
     1     7     8   ar
     2     8     9   ar
     3     9    10   ar
     4    10    11   ar
     5    11     1    1
     6     1     2   ar
     7     2     3   ar
     8     3    13    1
     9    13    14    1
    10    14    15    1
    11    15    16    1
    12    16    19    1
    13    19    20    1
    14    20    21    1
    15    21    22    1
    16    22    23    1
    17    23    24    1
    18    16    17    1
    19    17    18    1
    20     3     4   ar
    21     4     5   ar
    22     5    25    1
    23    25    26   ar
    24    26    27   ar
    25    27    28   ar
    26    28    29   ar
    27    29    30   ar
    28     5     6   ar
    29    11    12   ar
    30    12     7   ar
    31     6     1   ar
    32    18    13    1
    33    30    25   ar
    34    24    19    1
@<TRIPOS>MOLECULE
*****
 30 34 0 0 0
SMALL
GASTEIGER

@<TRIPOS>ATOM
      1 C           7.1429   -4.6537   24.0175 C.ar    1  UNL1        0.0872
      2 C           6.3173   -3.7933   24.9274 C.ar    1  UNL1        0.0535
      3 C           5.5356   -2.6425   24.3664 C.ar    1  UNL1        0.1349
      4 N           5.5796   -2.3521   22.8954 N.ar    1  UNL1       -0.2119
      5 C           6.4053   -3.2126   21.9855 C.ar    1  UNL1        0.1637
      6 N           7.1870   -4.3633   22.5465 N.ar    1  UNL1       -0.2264
      7 C           9.4956   -7.8431   24.2237 C.ar    1  UNL1        0.0207
      8 C           9.4879   -8.1060   25.7005 C.ar    1  UNL1        0.0989
      9 N           8.6986   -7.2181   26.6162 N.ar    1  UNL1       -0.2423
     10 C           7.9170   -6.0673   26.0553 C.ar    1  UNL1        0.1003
     11 C           7.9246   -5.8045   24.5785 C.ar    1  UNL1        0.0370
     12 C           8.7139   -6.6924   23.6628 C.ar    1  UNL1        0.0046
     13 N           4.7099   -1.7821   25.2763 N.pl3   1  UNL1       -0.2931
     14 C           4.8641   -1.8997   26.7637 C.3     1  UNL1        0.0935
     15 C           4.0384   -1.0393   27.6736 C.3     1  UNL1        0.0375
     16 C           3.0586   -0.0613   27.0961 C.3     1  UNL1        0.0611
     17 C           2.9044    0.0563   25.6087 C.3     1  UNL1        0.0375
     18 C           3.7302   -0.8041   24.6988 C.3     1  UNL1        0.0935
     19 N           2.2329    0.7991   28.0060 N.3     1  UNL1       -0.2696
     20 C           1.4339    1.9364   27.4420 C.3     1  UNL1        0.1046
     21 C           0.6082    2.7968   28.3519 C.3     1  UNL1        0.1595
     22 O           0.5816    2.5199   29.8260 O.3     1  UNL1       -0.3508
     23 C           1.3807    1.3826   30.3900 C.3     1  UNL1        0.1595
     24 C           2.2063    0.5222   29.4800 C.3     1  UNL1        0.1046
     25 C           6.4494   -2.9223   20.5145 C.ar    1  UNL1        0.0389
     26 C           5.2943   -3.3086   19.6389 C.ar    1  UNL1        0.0237
     27 C           5.3383   -3.0183   18.1679 C.ar    1  UNL1        0.0990
     28 N           6.5374   -2.3416   17.5725 N.ar    1  UNL1       -0.2423
     29 C           7.6924   -1.9552   18.4482 C.ar    1  UNL1        0.0990
     30 C           7.6483   -2.2456   19.9191 C.ar    1  UNL1        0.0237
@<TRIPOS>BOND
     1     7     8   ar
     2     8     9   ar
     3     9    10   ar
     4    10    11   ar
     5    11     1    1
     6     1     2   ar
     7     2     3   ar
     8     3    13    1
     9    13    14    1
    10    14    15    1
    11    15    16    1
    12    16    19    1
    13    19    20    1
    14    20    21    1
    15    21    22    1
    16    22    23    1
    17    23    24    1
    18    16    17    1
    19    17    18    1
    20     3     4   ar
    21     4     5   ar
    22     5    25    1
    23    25    26   ar
    24    26    27   ar
    25    27    28   ar
    26    28    29   ar
    27    29    30   ar
    28     5     6   ar
    29    11    12   ar
    30    12     7   ar
    31     6     1   ar
    32    18    13    1
    33    30    25   ar
    34    24    19    1
