@<TRIPOS>MOLECULE
*****
 25 28 0 0 0
SMALL
GASTEIGER

@<TRIPOS>ATOM
      1 C          -8.0826  -17.8652   21.7695 C.3     1  UNL1        0.1140
      2 C          -9.5803  -17.7862   21.7389 C.ar    1  UNL1        0.0273
      3 C         -10.6029  -18.4521   20.8666 C.ar    1  UNL1        0.1379
      4 F         -10.1664  -19.3961   19.7858 F       1  UNL1       -0.2044
      5 C         -12.0621  -18.1737   21.0751 C.ar    1  UNL1        0.0294
      6 C         -12.4985  -17.2297   22.1558 C.ar    1  UNL1        0.0023
      7 C         -11.4759  -16.5638   23.0282 C.ar    1  UNL1        0.0014
      8 C         -10.0168  -16.8421   22.8198 C.ar    1  UNL1        0.0173
      9 C          -8.7890  -16.3376   23.5183 C.ar    1  UNL1        0.0804
     10 C          -8.3000  -15.4423   24.6180 C.ar    1  UNL1        0.1178
     11 N          -6.8024  -15.5213   24.6485 N.ar    1  UNL1       -0.2223
     12 C          -6.3658  -16.4654   23.5677 C.ar    1  UNL1        0.1788
     13 N          -7.5936  -16.9699   22.8692 N.ar    1  UNL1       -0.3068
     14 C          -7.2247  -18.6939   20.8600 C.3     1  UNL1        0.0565
     15 O          -6.5449  -20.7234   22.3329 O.3     1  UNL1       -0.3844
     16 C          -6.1630  -19.5837   21.4354 C.3     1  UNL1        0.1127
     17 H          -7.5091  -20.7437   22.4372 H       1  UNL1        0.2103
     18 C          -4.7195  -19.3340   21.1133 C.3     1  UNL1        0.0272
     19 C          -4.2975  -19.1001   19.6930 C.3     1  UNL1        0.0049
     20 C          -2.8539  -18.8504   19.3709 C.3     1  UNL1        0.0293
     21 C          -1.8323  -18.8344   20.4691 C.3     1  UNL1        0.1105
     22 O          -0.3888  -18.5847   20.1470 O.3     1  UNL1       -0.3845
     23 C          -2.2543  -19.0682   21.8895 C.3     1  UNL1        0.0293
     24 C          -3.6978  -19.3180   22.2116 C.3     1  UNL1        0.0049
     25 H           0.1335  -18.6075   20.9641 H       1  UNL1        0.2103
@<TRIPOS>BOND
     1    16    15    1
     2    16    14    1
     3     1    14    1
     4     1     2    1
     5     2     3   ar
     6     3     4    1
     7     3     5   ar
     8     5     6   ar
     9     6     7   ar
    10     7     8   ar
    11     8     9    1
    12     9    10   ar
    13    10    11   ar
    14    11    12   ar
    15    12    13   ar
    16    16    18    1
    17    18    19    1
    18    19    20    1
    19    20    21    1
    20    21    22    1
    21    21    23    1
    22    23    24    1
    23    13     1    1
    24    24    18    1
    25     8     2   ar
    26    13     9   ar
    27    15    17    1
    28    22    25    1
@<TRIPOS>MOLECULE
*****
 25 28 0 0 0
SMALL
GASTEIGER

@<TRIPOS>ATOM
      1 C          -8.0215  -17.8452   22.1590 C.3     1  UNL1        0.1140
      2 C          -7.6732  -16.9652   23.3229 C.ar    1  UNL1        0.0273
      3 C          -6.3723  -16.3764   23.7820 C.ar    1  UNL1        0.1379
      4 F          -5.1133  -16.6483   23.0135 F       1  UNL1       -0.2044
      5 C          -6.3305  -15.5157   25.0099 C.ar    1  UNL1        0.0294
      6 C          -7.5896  -15.2438   25.7784 C.ar    1  UNL1        0.0023
      7 C          -8.8905  -15.8327   25.3192 C.ar    1  UNL1        0.0014
      8 C          -8.9324  -16.6934   24.0915 C.ar    1  UNL1        0.0173
      9 C         -10.0588  -17.4053   23.4027 C.ar    1  UNL1        0.0804
     10 C         -11.5331  -17.6772   23.4520 C.ar    1  UNL1        0.1178
     11 N         -11.8813  -18.5572   22.2882 N.ar    1  UNL1       -0.2223
     12 C         -10.6222  -18.8291   21.5196 C.ar    1  UNL1        0.1788
     13 N          -9.4958  -18.1171   22.2084 N.ar    1  UNL1       -0.3068
     14 C          -7.0636  -18.3624   21.1271 C.3     1  UNL1        0.0565
     15 O          -6.5078  -20.6360   22.2549 O.3     1  UNL1       -0.3844
     16 C          -6.0664  -19.4214   21.4933 C.3     1  UNL1        0.1127
     17 H          -7.4603  -20.5798   22.4293 H       1  UNL1        0.2103
     18 C          -4.6279  -19.2659   21.0979 C.3     1  UNL1        0.0272
     19 C          -4.2710  -18.9483   19.6760 C.3     1  UNL1        0.0049
     20 C          -2.8324  -18.7928   19.2806 C.3     1  UNL1        0.0293
     21 C          -1.7507  -18.9548   20.3071 C.3     1  UNL1        0.1105
     22 O          -0.3121  -18.7993   19.9117 O.3     1  UNL1       -0.3845
     23 C          -2.1076  -19.2725   21.7291 C.3     1  UNL1        0.0293
     24 C          -3.5462  -19.4280   22.1244 C.3     1  UNL1        0.0049
     25 H           0.2531  -18.9347   20.6883 H       1  UNL1        0.2103
@<TRIPOS>BOND
     1    16    15    1
     2    16    14    1
     3     1    14    1
     4     1     2    1
     5     2     3   ar
     6     3     4    1
     7     3     5   ar
     8     5     6   ar
     9     6     7   ar
    10     7     8   ar
    11     8     9    1
    12     9    10   ar
    13    10    11   ar
    14    11    12   ar
    15    12    13   ar
    16    16    18    1
    17    18    19    1
    18    19    20    1
    19    20    21    1
    20    21    22    1
    21    21    23    1
    22    23    24    1
    23    13     1    1
    24    24    18    1
    25     8     2   ar
    26    13     9   ar
    27    15    17    1
    28    22    25    1
@<TRIPOS>MOLECULE
*****
 25 28 0 0 0
SMALL
GASTEIGER

@<TRIPOS>ATOM
      1 C          -6.6978  -18.5780   22.3609 C.3     1  UNL1        0.1140
      2 C          -5.2271  -18.7732   22.1394 C.ar    1  UNL1        0.0273
      3 C          -4.4526  -19.8413   21.4257 C.ar    1  UNL1        0.1379
      4 F          -5.1753  -20.9807   20.7704 F       1  UNL1       -0.2044
      5 C          -2.9554  -19.7700   21.3673 C.ar    1  UNL1        0.0294
      6 C          -2.2328  -18.6306   22.0226 C.ar    1  UNL1        0.0023
      7 C          -3.0072  -17.5625   22.7363 C.ar    1  UNL1        0.0014
      8 C          -4.5044  -17.6338   22.7947 C.ar    1  UNL1        0.0173
      9 C          -5.5284  -16.7343   23.4212 C.ar    1  UNL1        0.0804
     10 C          -5.7146  -15.4743   24.2134 C.ar    1  UNL1        0.1178
     11 N          -7.1852  -15.2791   24.4348 N.ar    1  UNL1       -0.2223
     12 C          -7.9080  -16.4185   23.7795 C.ar    1  UNL1        0.1788
     13 N          -6.8840  -17.3179   23.1530 N.ar    1  UNL1       -0.3068
     14 C          -7.7904  -19.4838   21.8754 C.3     1  UNL1        0.0565
     15 O          -8.9074  -18.5918   19.7059 O.3     1  UNL1       -0.3844
     16 C          -8.9829  -18.9092   21.1700 C.3     1  UNL1        0.1127
     17 H          -8.0249  -18.8161   19.3715 H       1  UNL1        0.2103
     18 C         -10.2511  -18.6521   21.9287 C.3     1  UNL1        0.0272
     19 C         -10.3475  -19.0275   23.3777 C.3     1  UNL1        0.0049
     20 C         -11.6157  -18.7704   24.1363 C.3     1  UNL1        0.0293
     21 C         -12.7875  -18.1378   23.4460 C.3     1  UNL1        0.1105
     22 O         -14.0557  -17.8807   24.2046 O.3     1  UNL1       -0.3845
     23 C         -12.6912  -17.7623   21.9969 C.3     1  UNL1        0.0293
     24 C         -11.4230  -18.0195   21.2382 C.3     1  UNL1        0.0049
     25 H         -14.7077  -17.4704   23.6150 H       1  UNL1        0.2103
@<TRIPOS>BOND
     1    16    15    1
     2    16    14    1
     3     1    14    1
     4     1     2    1
     5     2     3   ar
     6     3     4    1
     7     3     5   ar
     8     5     6   ar
     9     6     7   ar
    10     7     8   ar
    11     8     9    1
    12     9    10   ar
    13    10    11   ar
    14    11    12   ar
    15    12    13   ar
    16    16    18    1
    17    18    19    1
    18    19    20    1
    19    20    21    1
    20    21    22    1
    21    21    23    1
    22    23    24    1
    23    13     1    1
    24    24    18    1
    25     8     2   ar
    26    13     9   ar
    27    15    17    1
    28    22    25    1
@<TRIPOS>MOLECULE
*****
 25 28 0 0 0
SMALL
GASTEIGER

@<TRIPOS>ATOM
      1 C          -6.1811  -16.2363   23.8442 C.3     1  UNL1        0.1140
      2 C          -6.7060  -15.8113   25.1836 C.ar    1  UNL1        0.0273
      3 C          -6.0516  -15.1269   26.3470 C.ar    1  UNL1        0.1379
      4 F          -4.6026  -14.7465   26.2751 F       1  UNL1       -0.2044
      5 C          -6.8465  -14.8232   27.5824 C.ar    1  UNL1        0.0294
      6 C          -8.2955  -15.2037   27.6542 C.ar    1  UNL1        0.0023
      7 C          -8.9500  -15.8880   26.4909 C.ar    1  UNL1        0.0014
      8 C          -8.1552  -16.1918   25.2555 C.ar    1  UNL1        0.0173
      9 C          -8.5259  -16.8520   23.9606 C.ar    1  UNL1        0.0804
     10 C          -9.6507  -17.4951   23.2048 C.ar    1  UNL1        0.1178
     11 N          -9.1258  -17.9201   21.8655 N.ar    1  UNL1       -0.2223
     12 C          -7.6766  -17.5396   21.7935 C.ar    1  UNL1        0.1788
     13 N          -7.3059  -16.8794   23.0884 N.ar    1  UNL1       -0.3068
     14 C          -4.7779  -16.0507   23.3478 C.3     1  UNL1        0.0565
     15 O          -3.7908  -18.1318   24.5498 O.3     1  UNL1       -0.3844
     16 C          -3.8148  -17.2003   23.3743 C.3     1  UNL1        0.1127
     17 H          -4.4553  -17.8511   25.1983 H       1  UNL1        0.2103
     18 C          -2.8755  -17.4185   22.2252 C.3     1  UNL1        0.0272
     19 C          -2.7736  -18.7718   21.5864 C.3     1  UNL1        0.0049
     20 C          -1.8344  -18.9900   20.4374 C.3     1  UNL1        0.0293
     21 C          -0.9971  -17.8548   19.9272 C.3     1  UNL1        0.1105
     22 O          -0.0579  -18.0730   18.7781 O.3     1  UNL1       -0.3845
     23 C          -1.0990  -16.5014   20.5660 C.3     1  UNL1        0.0293
     24 C          -2.0382  -16.2833   21.7150 C.3     1  UNL1        0.0049
     25 H           0.4034  -17.2441   18.5757 H       1  UNL1        0.2103
@<TRIPOS>BOND
     1    16    15    1
     2    16    14    1
     3     1    14    1
     4     1     2    1
     5     2     3   ar
     6     3     4    1
     7     3     5   ar
     8     5     6   ar
     9     6     7   ar
    10     7     8   ar
    11     8     9    1
    12     9    10   ar
    13    10    11   ar
    14    11    12   ar
    15    12    13   ar
    16    16    18    1
    17    18    19    1
    18    19    20    1
    19    20    21    1
    20    21    22    1
    21    21    23    1
    22    23    24    1
    23    13     1    1
    24    24    18    1
    25     8     2   ar
    26    13     9   ar
    27    15    17    1
    28    22    25    1
@<TRIPOS>MOLECULE
*****
 25 28 0 0 0
SMALL
GASTEIGER

@<TRIPOS>ATOM
      1 C          -6.6132  -17.9646   22.2872 C.3     1  UNL1        0.1140
      2 C          -5.1319  -18.1874   22.3673 C.ar    1  UNL1        0.0273
      3 C          -4.0681  -17.5648   23.2221 C.ar    1  UNL1        0.1379
      4 F          -4.4328  -16.5086   24.2227 F       1  UNL1       -0.2044
      5 C          -2.6396  -17.9987   23.0763 C.ar    1  UNL1        0.0294
      6 C          -2.2750  -19.0549   22.0757 C.ar    1  UNL1        0.0023
      7 C          -3.3388  -19.6775   21.2209 C.ar    1  UNL1        0.0014
      8 C          -4.7673  -19.2437   21.3666 C.ar    1  UNL1        0.0173
      9 C          -6.0231  -19.6738   20.6681 C.ar    1  UNL1        0.0804
     10 C          -6.5739  -20.5925   19.6180 C.ar    1  UNL1        0.1178
     11 N          -8.0551  -20.3697   19.5379 N.ar    1  UNL1       -0.2223
     12 C          -8.4198  -19.3134   20.5385 C.ar    1  UNL1        0.1788
     13 N          -7.1639  -18.8833   21.2370 N.ar    1  UNL1       -0.3068
     14 C          -7.4047  -16.9937   23.1123 C.3     1  UNL1        0.0565
     15 O          -8.3942  -15.1309   21.5955 O.3     1  UNL1       -0.3844
     16 C          -8.5926  -16.2976   22.5172 C.3     1  UNL1        0.1127
     17 H          -7.4453  -14.9588   21.4914 H       1  UNL1        0.2103
     18 C          -9.9789  -16.7681   22.8437 C.3     1  UNL1        0.0272
     19 C         -10.1781  -17.9200   23.7836 C.3     1  UNL1        0.0049
     20 C         -11.5645  -18.3905   24.1101 C.3     1  UNL1        0.0293
     21 C         -12.7517  -17.7092   23.4967 C.3     1  UNL1        0.1105
     22 O         -14.1380  -18.1798   23.8232 O.3     1  UNL1       -0.3845
     23 C         -12.5525  -16.5573   22.5567 C.3     1  UNL1        0.0293
     24 C         -11.1662  -16.0868   22.2302 C.3     1  UNL1        0.0049
     25 H         -14.7846  -17.6359   23.3467 H       1  UNL1        0.2103
@<TRIPOS>BOND
     1    16    15    1
     2    16    14    1
     3     1    14    1
     4     1     2    1
     5     2     3   ar
     6     3     4    1
     7     3     5   ar
     8     5     6   ar
     9     6     7   ar
    10     7     8   ar
    11     8     9    1
    12     9    10   ar
    13    10    11   ar
    14    11    12   ar
    15    12    13   ar
    16    16    18    1
    17    18    19    1
    18    19    20    1
    19    20    21    1
    20    21    22    1
    21    21    23    1
    22    23    24    1
    23    13     1    1
    24    24    18    1
    25     8     2   ar
    26    13     9   ar
    27    15    17    1
    28    22    25    1
@<TRIPOS>MOLECULE
*****
 25 28 0 0 0
SMALL
GASTEIGER

@<TRIPOS>ATOM
      1 C          -6.8893  -19.1633   22.0912 C.3     1  UNL1        0.1140
      2 C          -6.3747  -17.9512   22.8098 C.ar    1  UNL1        0.0273
      3 C          -7.0465  -16.9586   23.7117 C.ar    1  UNL1        0.1379
      4 F          -8.5056  -17.1007   24.0286 F       1  UNL1       -0.2044
      5 C          -6.2589  -15.8239   24.2967 C.ar    1  UNL1        0.0294
      6 C          -4.7997  -15.6819   23.9797 C.ar    1  UNL1        0.0023
      7 C          -4.1279  -16.6745   23.0778 C.ar    1  UNL1        0.0014
      8 C          -4.9155  -17.8092   22.4928 C.ar    1  UNL1        0.0173
      9 C          -4.5281  -18.9334   21.5784 C.ar    1  UNL1        0.0804
     10 C          -3.3869  -19.5404   20.8175 C.ar    1  UNL1        0.1178
     11 N          -3.9014  -20.7524   20.0989 N.ar    1  UNL1       -0.2223
     12 C          -5.3607  -20.8945   20.4158 C.ar    1  UNL1        0.1788
     13 N          -5.7480  -19.7703   21.3302 N.ar    1  UNL1       -0.3068
     14 C          -8.2977  -19.6780   22.1273 C.3     1  UNL1        0.0565
     15 O          -9.2353  -18.3649   20.0909 O.3     1  UNL1       -0.3844
     16 C          -9.4011  -18.8894   21.4865 C.3     1  UNL1        0.1127
     17 H          -8.3644  -18.6225   19.7500 H       1  UNL1        0.2103
     18 C         -10.6702  -18.6252   22.2411 C.3     1  UNL1        0.0272
     19 C         -10.8125  -19.0971   23.6578 C.3     1  UNL1        0.0049
     20 C         -12.0816  -18.8329   24.4124 C.3     1  UNL1        0.0293
     21 C         -13.2085  -18.0967   23.7504 C.3     1  UNL1        0.1105
     22 O         -14.4776  -17.8325   24.5051 O.3     1  UNL1       -0.3845
     23 C         -13.0662  -17.6247   22.3337 C.3     1  UNL1        0.0293
     24 C         -11.7970  -17.8889   21.5790 C.3     1  UNL1        0.0049
     25 H         -15.0977  -17.3503   23.9360 H       1  UNL1        0.2103
@<TRIPOS>BOND
     1    16    15    1
     2    16    14    1
     3     1    14    1
     4     1     2    1
     5     2     3   ar
     6     3     4    1
     7     3     5   ar
     8     5     6   ar
     9     6     7   ar
    10     7     8   ar
    11     8     9    1
    12     9    10   ar
    13    10    11   ar
    14    11    12   ar
    15    12    13   ar
    16    16    18    1
    17    18    19    1
    18    19    20    1
    19    20    21    1
    20    21    22    1
    21    21    23    1
    22    23    24    1
    23    13     1    1
    24    24    18    1
    25     8     2   ar
    26    13     9   ar
    27    15    17    1
    28    22    25    1
@<TRIPOS>MOLECULE
*****
 25 28 0 0 0
SMALL
GASTEIGER

@<TRIPOS>ATOM
      1 C          -4.2894  -18.0420   22.3347 C.3     1  UNL1        0.1140
      2 C          -3.1611  -17.8462   21.3657 C.ar    1  UNL1        0.0273
      3 C          -2.0441  -16.8464   21.3145 C.ar    1  UNL1        0.1379
      4 F          -1.9292  -15.7951   22.3782 F       1  UNL1       -0.2044
      5 C          -1.0419  -16.8980   20.1996 C.ar    1  UNL1        0.0294
      6 C          -1.1569  -17.9493   19.1359 C.ar    1  UNL1        0.0023
      7 C          -2.2739  -18.9491   19.1871 C.ar    1  UNL1        0.0014
      8 C          -3.2761  -18.8976   20.3020 C.ar    1  UNL1        0.0173
      9 C          -4.4752  -19.7431   20.6135 C.ar    1  UNL1        0.0804
     10 C          -5.2873  -20.9154   20.1487 C.ar    1  UNL1        0.1178
     11 N          -6.4155  -21.1112   21.1177 N.ar    1  UNL1       -0.2223
     12 C          -6.3006  -20.0599   22.1814 C.ar    1  UNL1        0.1788
     13 N          -5.1015  -19.2143   21.8698 N.ar    1  UNL1       -0.3068
     14 C          -4.5582  -17.2113   23.5544 C.3     1  UNL1        0.0565
     15 O          -5.0470  -14.6629   23.4249 O.3     1  UNL1       -0.3844
     16 C          -5.5392  -16.0785   23.4890 C.3     1  UNL1        0.1127
     17 H          -4.0771  -14.6570   23.4346 H       1  UNL1        0.2103
     18 C          -7.0123  -16.3611   23.4877 C.3     1  UNL1        0.0272
     19 C          -7.8048  -16.2168   24.7530 C.3     1  UNL1        0.0049
     20 C          -9.2779  -16.4995   24.7517 C.3     1  UNL1        0.0293
     21 C          -9.9586  -16.9264   23.4850 C.3     1  UNL1        0.1105
     22 O         -11.4317  -17.2091   23.4837 O.3     1  UNL1       -0.3845
     23 C          -9.1660  -17.0708   22.2196 C.3     1  UNL1        0.0293
     24 C          -7.6929  -16.7881   22.2210 C.3     1  UNL1        0.0049
     25 H         -11.7098  -17.4711   22.5922 H       1  UNL1        0.2103
@<TRIPOS>BOND
     1    16    15    1
     2    16    14    1
     3     1    14    1
     4     1     2    1
     5     2     3   ar
     6     3     4    1
     7     3     5   ar
     8     5     6   ar
     9     6     7   ar
    10     7     8   ar
    11     8     9    1
    12     9    10   ar
    13    10    11   ar
    14    11    12   ar
    15    12    13   ar
    16    16    18    1
    17    18    19    1
    18    19    20    1
    19    20    21    1
    20    21    22    1
    21    21    23    1
    22    23    24    1
    23    13     1    1
    24    24    18    1
    25     8     2   ar
    26    13     9   ar
    27    15    17    1
    28    22    25    1
@<TRIPOS>MOLECULE
*****
 25 28 0 0 0
SMALL
GASTEIGER

@<TRIPOS>ATOM
      1 C         -12.9409   -6.6511   18.7968 C.3     1  UNL1        0.1140
      2 C         -13.6754   -5.4656   19.3492 C.ar    1  UNL1        0.0273
      3 C         -15.0973   -5.2821   19.7903 C.ar    1  UNL1        0.1379
      4 F         -16.0611   -6.4287   19.7110 F       1  UNL1       -0.2044
      5 C         -15.5554   -3.9519   20.3107 C.ar    1  UNL1        0.0294
      6 C         -14.5916   -2.8053   20.3900 C.ar    1  UNL1        0.0023
      7 C         -13.1697   -2.9888   19.9490 C.ar    1  UNL1        0.0014
      8 C         -12.7116   -4.3189   19.4285 C.ar    1  UNL1        0.0173
      9 C         -11.3815   -4.7957   18.9251 C.ar    1  UNL1        0.0804
     10 C          -9.9638   -4.3817   18.6630 C.ar    1  UNL1        0.1178
     11 N          -9.2293   -5.5672   18.1105 N.ar    1  UNL1       -0.2223
     12 C         -10.1931   -6.7139   18.0312 C.ar    1  UNL1        0.1788
     13 N         -11.5232   -6.2371   18.5346 N.ar    1  UNL1       -0.3068
     14 C         -13.5221   -8.0117   18.5498 C.3     1  UNL1        0.0565
     15 O         -14.0228   -7.7595   16.0129 O.3     1  UNL1       -0.3844
     16 C         -14.4274   -8.2386   17.3755 C.3     1  UNL1        0.1127
     17 H         -13.1558   -7.3278   16.0662 H       1  UNL1        0.2103
     18 C         -15.7374   -8.9448   17.5639 C.3     1  UNL1        0.0272
     19 C         -17.0015   -8.3336   17.0362 C.3     1  UNL1        0.0049
     20 C         -18.3114   -9.0398   17.2245 C.3     1  UNL1        0.0293
     21 C         -18.3572  -10.3570   17.9405 C.3     1  UNL1        0.1105
     22 O         -19.6672  -11.0631   18.1288 O.3     1  UNL1       -0.3845
     23 C         -17.0931  -10.9682   18.4682 C.3     1  UNL1        0.0293
     24 C         -15.7831  -10.2621   18.2799 C.3     1  UNL1        0.0049
     25 H         -19.5207  -11.8941   18.6072 H       1  UNL1        0.2103
@<TRIPOS>BOND
     1    16    15    1
     2    16    14    1
     3     1    14    1
     4     1     2    1
     5     2     3   ar
     6     3     4    1
     7     3     5   ar
     8     5     6   ar
     9     6     7   ar
    10     7     8   ar
    11     8     9    1
    12     9    10   ar
    13    10    11   ar
    14    11    12   ar
    15    12    13   ar
    16    16    18    1
    17    18    19    1
    18    19    20    1
    19    20    21    1
    20    21    22    1
    21    21    23    1
    22    23    24    1
    23    13     1    1
    24    24    18    1
    25     8     2   ar
    26    13     9   ar
    27    15    17    1
    28    22    25    1
@<TRIPOS>MOLECULE
*****
 25 28 0 0 0
SMALL
GASTEIGER

@<TRIPOS>ATOM
      1 C         -13.4839   -4.9320   18.1774 C.3     1  UNL1        0.1140
      2 C         -12.1399   -5.5396   18.4507 C.ar    1  UNL1        0.0273
      3 C         -11.6540   -6.9582   18.4161 C.ar    1  UNL1        0.1379
      4 F         -12.5982   -8.0658   18.0532 F       1  UNL1       -0.2044
      5 C         -10.2237   -7.2693   18.7443 C.ar    1  UNL1        0.0294
      6 C          -9.2796   -6.1617   19.1071 C.ar    1  UNL1        0.0023
      7 C          -9.7655   -4.7430   19.1418 C.ar    1  UNL1        0.0014
      8 C         -11.1957   -4.4319   18.8136 C.ar    1  UNL1        0.0173
      9 C         -11.9561   -3.1399   18.7645 C.ar    1  UNL1        0.0804
     10 C         -11.8424   -1.6568   18.9585 C.ar    1  UNL1        0.1178
     11 N         -13.1863   -1.0493   18.6852 N.ar    1  UNL1       -0.2223
     12 C         -14.1306   -2.1569   18.3223 C.ar    1  UNL1        0.1788
     13 N         -13.3702   -3.4489   18.3714 N.ar    1  UNL1       -0.3068
     14 C         -14.7238   -5.6767   17.7800 C.3     1  UNL1        0.0565
     15 O         -16.2189   -5.1563   19.8400 O.3     1  UNL1       -0.3844
     16 C         -15.6938   -6.1325   18.8294 C.3     1  UNL1        0.1127
     17 H         -15.8341   -4.2814   19.6748 H       1  UNL1        0.2103
     18 C         -16.1387   -7.5645   18.8683 C.3     1  UNL1        0.0272
     19 C         -15.4635   -8.5835   17.9990 C.3     1  UNL1        0.0049
     20 C         -15.9084  -10.0155   18.0379 C.3     1  UNL1        0.0293
     21 C         -17.0285  -10.4284   18.9461 C.3     1  UNL1        0.1105
     22 O         -17.4734  -11.8604   18.9850 O.3     1  UNL1       -0.3845
     23 C         -17.7038   -9.4094   19.8154 C.3     1  UNL1        0.0293
     24 C         -17.2589   -7.9774   19.7765 C.3     1  UNL1        0.0049
     25 H         -18.2012  -11.9557   19.6190 H       1  UNL1        0.2103
@<TRIPOS>BOND
     1    16    15    1
     2    16    14    1
     3     1    14    1
     4     1     2    1
     5     2     3   ar
     6     3     4    1
     7     3     5   ar
     8     5     6   ar
     9     6     7   ar
    10     7     8   ar
    11     8     9    1
    12     9    10   ar
    13    10    11   ar
    14    11    12   ar
    15    12    13   ar
    16    16    18    1
    17    18    19    1
    18    19    20    1
    19    20    21    1
    20    21    22    1
    21    21    23    1
    22    23    24    1
    23    13     1    1
    24    24    18    1
    25     8     2   ar
    26    13     9   ar
    27    15    17    1
    28    22    25    1
