@<TRIPOS>MOLECULE
*****
 46 51 0 0 0
SMALL
GASTEIGER

@<TRIPOS>ATOM
      1 C           5.2129   -0.9289   27.0982 C.3     1  UNL1        0.0821
      2 C           4.1069   -1.2012   28.0741 C.3     1  UNL1        0.0194
      3 C           2.8736   -0.5019   27.5841 C.3     1  UNL1        0.0188
      4 C           3.2175    0.2026   26.3052 C.3     1  UNL1        0.0722
      5 N           4.6632   -0.0613   26.0049 N.3     1  UNL1       -0.2721
      6 C           6.6213   -1.4353   27.1979 C.3     1  UNL1        0.1465
      7 O           6.2553   -4.2254   28.2379 O.2     1  UNL1       -0.2655
      8 C           6.8742   -4.0026   26.8899 C.ar    1  UNL1        0.2763
      9 C           7.3102   -5.1749   26.0618 C.ar    1  UNL1        0.0588
     10 C           7.1272   -6.5699   26.5818 C.ar    1  UNL1        0.0048
     11 C           7.5632   -7.7422   25.7537 C.ar    1  UNL1        0.0002
     12 C           8.1821   -7.5194   24.4056 C.ar    1  UNL1        0.0000
     13 C           8.3651   -6.1244   23.8856 C.ar    1  UNL1        0.0014
     14 C           7.9291   -4.9521   24.7137 C.ar    1  UNL1        0.0202
     15 C           8.1121   -3.5571   24.1937 C.ar    1  UNL1        0.0832
     16 N           7.6762   -2.3848   25.0218 N.ar    1  UNL1       -0.1708
     17 N           7.0572   -2.6075   26.3698 N.ar    1  UNL1       -0.2156
     18 C           8.7310   -3.3343   22.8457 C.3     1  UNL1        0.0738
     19 C           7.8601   -3.0468   21.6587 C.ar    1  UNL1       -0.0161
     20 C           6.8865   -4.0803   21.1749 C.ar    1  UNL1       -0.0030
     21 C           6.0156   -3.7927   19.9881 C.ar    1  UNL1        0.0111
     22 C           6.1182   -2.4717   19.2850 C.ar    1  UNL1        0.0577
     23 CL          5.2472   -2.1841   18.0980 Cl      1  UNL1       -0.0822
     24 C           7.0918   -1.4382   19.7687 C.ar    1  UNL1        0.0111
     25 C           7.9627   -1.7258   20.9556 C.ar    1  UNL1       -0.0030
     26 C           5.4255    0.4522   24.8195 C.3     1  UNL1        0.0721
     27 C           5.5096   -0.3705   23.5681 C.3     1  UNL1        0.0177
     28 C           4.5855   -1.5358   23.3731 C.3     1  UNL1        0.0061
     29 C           3.8785   -1.7214   22.0633 C.3     1  UNL1        0.0264
     30 C           2.7019   -0.8579   21.7171 C.ar    1  UNL1       -0.0220
     31 C           2.2103    0.1673   22.6955 C.ar    1  UNL1       -0.0012
     32 C           1.0337    1.0309   22.3494 C.ar    1  UNL1        0.0366
     33 C           0.3486    0.8693   21.0248 C.ar    1  UNL1        0.1385
     34 C           0.8402   -0.1559   20.0464 C.ar    1  UNL1        0.0366
     35 C           2.0168   -1.0195   20.3925 C.ar    1  UNL1       -0.0012
     36 O          -0.8280    1.7328   20.6786 O.3     1  UNL1       -0.4754
     37 C          -0.7396    3.2213   20.8416 C.3     1  UNL1        0.2068
     38 C          -0.1332    4.0599   19.7557 C.3     1  UNL1        0.0646
     39 C           1.2721    4.5655   19.8949 C.3     1  UNL1        0.0759
     40 N           2.4202    3.6002   19.8919 N.3     1  UNL1       -0.2726
     41 C           3.2773    3.6046   21.1229 C.3     1  UNL1        0.0721
     42 C           4.4854    2.7681   21.4244 C.3     1  UNL1        0.0173
     43 C           5.1346    1.7205   20.5694 C.3     1  UNL1        0.0015
     44 C           4.7362    1.2508   19.2017 C.3     1  UNL1        0.0015
     45 C           3.5902    1.7126   18.3512 C.3     1  UNL1        0.0173
     46 C           2.5594    2.7581   18.6583 C.3     1  UNL1        0.0721
@<TRIPOS>BOND
     1     7     8    2
     2     8     9   ar
     3     9    10   ar
     4    10    11   ar
     5    11    12   ar
     6    12    13   ar
     7    13    14   ar
     8    14    15   ar
     9    15    18    1
    10    18    19    1
    11    19    20   ar
    12    20    21   ar
    13    21    22   ar
    14    22    23    1
    15    22    24   ar
    16    24    25   ar
    17    15    16   ar
    18    16    17   ar
    19    17     6    1
    20     1     6    1
    21     1     2    1
    22     2     3    1
    23     3     4    1
    24     4     5    1
    25     5    26    1
    26    26    27    1
    27    27    28    1
    28    28    29    1
    29    29    30    1
    30    30    31   ar
    31    31    32   ar
    32    32    33   ar
    33    33    36    1
    34    36    37    1
    35    37    38    1
    36    38    39    1
    37    39    40    1
    38    40    41    1
    39    41    42    1
    40    42    43    1
    41    43    44    1
    42    44    45    1
    43    45    46    1
    44    33    34   ar
    45    34    35   ar
    46    17     8   ar
    47     5     1    1
    48    35    30   ar
    49    14     9   ar
    50    25    19   ar
    51    46    40    1
@<TRIPOS>MOLECULE
*****
 46 51 0 0 0
SMALL
GASTEIGER

@<TRIPOS>ATOM
      1 C           7.4712   -1.8907   18.9606 C.3     1  UNL1        0.0821
      2 C           7.9525   -0.5018   18.6617 C.3     1  UNL1        0.0194
      3 C           6.9563    0.1473   17.7472 C.3     1  UNL1        0.0188
      4 C           5.8593   -0.8405   17.4809 C.3     1  UNL1        0.0722
      5 N           6.1775   -2.1000   18.2308 N.3     1  UNL1       -0.2721
      6 C           8.1623   -2.8940   19.8356 C.3     1  UNL1        0.1465
      7 O           8.3641   -5.5286   21.2563 O.2     1  UNL1       -0.2655
      8 C           7.9091   -4.3082   22.0003 C.ar    1  UNL1        0.2763
      9 C           7.5549   -4.4051   23.4547 C.ar    1  UNL1        0.0588
     10 C           7.6558   -5.7223   24.1650 C.ar    1  UNL1        0.0048
     11 C           7.3016   -5.8192   25.6194 C.ar    1  UNL1        0.0002
     12 C           6.8466   -4.5988   26.3634 C.ar    1  UNL1        0.0000
     13 C           6.7457   -3.2815   25.6530 C.ar    1  UNL1        0.0014
     14 C           7.0998   -3.1846   24.1987 C.ar    1  UNL1        0.0202
     15 C           6.9989   -1.8674   23.4883 C.ar    1  UNL1        0.0832
     16 N           7.3531   -1.7705   22.0339 N.ar    1  UNL1       -0.1708
     17 N           7.8081   -2.9909   21.2899 N.ar    1  UNL1       -0.2156
     18 C           6.5439   -0.6470   24.2323 C.3     1  UNL1        0.0738
     19 C           5.1946   -0.0558   23.9493 C.ar    1  UNL1       -0.0161
     20 C           3.9555   -0.7493   24.4326 C.ar    1  UNL1       -0.0030
     21 C           2.6063   -0.1581   24.1496 C.ar    1  UNL1        0.0111
     22 C           2.4963    1.1267   23.3834 C.ar    1  UNL1        0.0577
     23 CL          1.1470    1.7180   23.1005 Cl      1  UNL1       -0.0822
     24 C           3.7353    1.8203   22.9001 C.ar    1  UNL1        0.0111
     25 C           5.0845    1.2290   23.1831 C.ar    1  UNL1       -0.0030
     26 C           5.3478   -3.3495   18.2479 C.3     1  UNL1        0.0721
     27 C           4.0687   -3.3897   19.0304 C.3     1  UNL1        0.0177
     28 C           4.0774   -3.0817   20.4984 C.3     1  UNL1        0.0061
     29 C           3.9920   -1.6593   20.9669 C.3     1  UNL1        0.0264
     30 C           3.0858   -0.6917   20.2652 C.ar    1  UNL1       -0.0220
     31 C           1.5976   -0.8483   20.3679 C.ar    1  UNL1       -0.0012
     32 C           0.6914    0.1194   19.6662 C.ar    1  UNL1        0.0366
     33 C           1.2734    1.2437   18.8618 C.ar    1  UNL1        0.1385
     34 C           2.7616    1.4003   18.7591 C.ar    1  UNL1        0.0366
     35 C           3.6678    0.4327   19.4608 C.ar    1  UNL1       -0.0012
     36 O           0.3671    2.2114   18.1601 O.3     1  UNL1       -0.4754
     37 C           0.0180    3.5177   18.8093 C.3     1  UNL1        0.2068
     38 C          -0.6377    3.5332   20.1583 C.3     1  UNL1        0.0646
     39 C          -2.1178    3.3194   20.2754 C.3     1  UNL1        0.0759
     40 N          -2.7800    3.3774   21.6200 N.3     1  UNL1       -0.2726
     41 C          -1.8701    3.6423   22.7827 C.3     1  UNL1        0.0721
     42 C          -2.2200    3.7581   24.2368 C.3     1  UNL1        0.0173
     43 C          -3.5662    3.6375   24.8872 C.3     1  UNL1        0.0015
     44 C          -4.8950    3.3715   24.2443 C.3     1  UNL1        0.0015
     45 C          -5.2058    3.1602   22.7921 C.3     1  UNL1        0.0173
     46 C          -4.2646    3.1628   21.6242 C.3     1  UNL1        0.0721
@<TRIPOS>BOND
     1     7     8    2
     2     8     9   ar
     3     9    10   ar
     4    10    11   ar
     5    11    12   ar
     6    12    13   ar
     7    13    14   ar
     8    14    15   ar
     9    15    18    1
    10    18    19    1
    11    19    20   ar
    12    20    21   ar
    13    21    22   ar
    14    22    23    1
    15    22    24   ar
    16    24    25   ar
    17    15    16   ar
    18    16    17   ar
    19    17     6    1
    20     1     6    1
    21     1     2    1
    22     2     3    1
    23     3     4    1
    24     4     5    1
    25     5    26    1
    26    26    27    1
    27    27    28    1
    28    28    29    1
    29    29    30    1
    30    30    31   ar
    31    31    32   ar
    32    32    33   ar
    33    33    36    1
    34    36    37    1
    35    37    38    1
    36    38    39    1
    37    39    40    1
    38    40    41    1
    39    41    42    1
    40    42    43    1
    41    43    44    1
    42    44    45    1
    43    45    46    1
    44    33    34   ar
    45    34    35   ar
    46    17     8   ar
    47     5     1    1
    48    35    30   ar
    49    14     9   ar
    50    25    19   ar
    51    46    40    1
@<TRIPOS>MOLECULE
*****
 46 51 0 0 0
SMALL
GASTEIGER

@<TRIPOS>ATOM
      1 C           6.8436    0.3097   24.5508 C.3     1  UNL1        0.0821
      2 C           7.3417    1.5815   23.9309 C.3     1  UNL1        0.0194
      3 C           6.7038    2.7305   24.6539 C.3     1  UNL1        0.0188
      4 C           5.8113    2.1689   25.7207 C.3     1  UNL1        0.0722
      5 N           5.8978    0.6727   25.6570 N.3     1  UNL1       -0.2721
      6 C           7.2244   -1.0809   24.1372 C.3     1  UNL1        0.1465
      7 O           5.0307   -3.1047   23.8340 O.2     1  UNL1       -0.2655
      8 C           5.7564   -2.5982   22.6229 C.ar    1  UNL1        0.2763
      9 C           5.3853   -3.1035   21.2602 C.ar    1  UNL1        0.0588
     10 C           4.2885   -4.1153   21.1086 C.ar    1  UNL1        0.0048
     11 C           3.9174   -4.6207   19.7459 C.ar    1  UNL1        0.0002
     12 C           4.6431   -4.1141   18.5348 C.ar    1  UNL1        0.0000
     13 C           5.7400   -3.1022   18.6865 C.ar    1  UNL1        0.0014
     14 C           6.1111   -2.5969   20.0491 C.ar    1  UNL1        0.0202
     15 C           7.2079   -1.5850   20.2008 C.ar    1  UNL1        0.0832
     16 N           7.5790   -1.0797   21.5635 N.ar    1  UNL1       -0.1708
     17 N           6.8533   -1.5862   22.7745 N.ar    1  UNL1       -0.2156
     18 C           7.9337   -1.0785   18.9897 C.3     1  UNL1        0.0738
     19 C           7.4834    0.1859   18.3198 C.ar    1  UNL1       -0.0161
     20 C           7.8222    1.5164   18.9239 C.ar    1  UNL1       -0.0030
     21 C           7.3720    2.7807   18.2539 C.ar    1  UNL1        0.0111
     22 C           6.5830    2.7144   16.9799 C.ar    1  UNL1        0.0577
     23 CL          6.1327    3.9788   16.3100 Cl      1  UNL1       -0.0822
     24 C           6.2442    1.3839   16.3759 C.ar    1  UNL1        0.0111
     25 C           6.6944    0.1197   17.0458 C.ar    1  UNL1       -0.0030
     26 C           5.1667   -0.2912   26.5438 C.3     1  UNL1        0.0721
     27 C           3.8874   -0.9190   26.0755 C.3     1  UNL1        0.0177
     28 C           2.9360   -0.1350   25.2211 C.3     1  UNL1        0.0061
     29 C           3.0320   -0.2126   23.7262 C.3     1  UNL1        0.0264
     30 C           3.5352    0.9648   22.9449 C.ar    1  UNL1       -0.0220
     31 C           4.4934    0.7574   21.8096 C.ar    1  UNL1       -0.0012
     32 C           4.9967    1.9347   21.0282 C.ar    1  UNL1        0.0366
     33 C           4.5418    3.3196   21.3821 C.ar    1  UNL1        0.1385
     34 C           3.5836    3.5270   22.5174 C.ar    1  UNL1        0.0366
     35 C           3.0803    2.3496   23.2987 C.ar    1  UNL1       -0.0012
     36 O           5.0450    4.4970   20.6008 O.3     1  UNL1       -0.4754
     37 C           4.2923    4.9732   19.3939 C.3     1  UNL1        0.2068
     38 C           2.8647    4.5609   19.1895 C.3     1  UNL1        0.0646
     39 C           2.5359    3.4331   18.2568 C.3     1  UNL1        0.0759
     40 N           2.3129    2.0523   18.7988 N.3     1  UNL1       -0.2726
     41 C           1.2325    1.9252   19.8315 C.3     1  UNL1        0.0721
     42 C           0.7721    0.6956   20.5569 C.3     1  UNL1        0.0173
     43 C           1.2785   -0.7105   20.4287 C.3     1  UNL1        0.0015
     44 C           2.3702   -1.2343   19.5435 C.3     1  UNL1        0.0015
     45 C           3.2253   -0.4814   18.5678 C.3     1  UNL1        0.0173
     46 C           3.1999    0.9813   18.2363 C.3     1  UNL1        0.0721
@<TRIPOS>BOND
     1     7     8    2
     2     8     9   ar
     3     9    10   ar
     4    10    11   ar
     5    11    12   ar
     6    12    13   ar
     7    13    14   ar
     8    14    15   ar
     9    15    18    1
    10    18    19    1
    11    19    20   ar
    12    20    21   ar
    13    21    22   ar
    14    22    23    1
    15    22    24   ar
    16    24    25   ar
    17    15    16   ar
    18    16    17   ar
    19    17     6    1
    20     1     6    1
    21     1     2    1
    22     2     3    1
    23     3     4    1
    24     4     5    1
    25     5    26    1
    26    26    27    1
    27    27    28    1
    28    28    29    1
    29    29    30    1
    30    30    31   ar
    31    31    32   ar
    32    32    33   ar
    33    33    36    1
    34    36    37    1
    35    37    38    1
    36    38    39    1
    37    39    40    1
    38    40    41    1
    39    41    42    1
    40    42    43    1
    41    43    44    1
    42    44    45    1
    43    45    46    1
    44    33    34   ar
    45    34    35   ar
    46    17     8   ar
    47     5     1    1
    48    35    30   ar
    49    14     9   ar
    50    25    19   ar
    51    46    40    1
@<TRIPOS>MOLECULE
*****
 46 51 0 0 0
SMALL
GASTEIGER

@<TRIPOS>ATOM
      1 C          -3.7592    3.5559   20.5418 C.3     1  UNL1        0.0821
      2 C          -4.3047    4.3906   19.4213 C.3     1  UNL1        0.0194
      3 C          -3.1452    4.9180   18.6292 C.3     1  UNL1        0.0188
      4 C          -1.8831    4.4092   19.2602 C.3     1  UNL1        0.0722
      5 N          -2.2626    3.5674   20.4423 N.3     1  UNL1       -0.2721
      6 C          -4.5684    2.8361   21.5797 C.3     1  UNL1        0.1465
      7 O          -7.1161    4.3696   21.9763 O.2     1  UNL1       -0.2655
      8 C          -6.1250    4.2593   23.0967 C.ar    1  UNL1        0.2763
      9 C          -6.4078    4.9156   24.4155 C.ar    1  UNL1        0.0588
     10 C          -7.6816    5.6824   24.6138 C.ar    1  UNL1        0.0048
     11 C          -7.9644    6.3388   25.9326 C.ar    1  UNL1        0.0002
     12 C          -6.9733    6.2284   27.0531 C.ar    1  UNL1        0.0000
     13 C          -5.6994    5.4616   26.8548 C.ar    1  UNL1        0.0014
     14 C          -5.4166    4.8052   25.5360 C.ar    1  UNL1        0.0202
     15 C          -4.1428    4.0385   25.3377 C.ar    1  UNL1        0.0832
     16 N          -3.8600    3.3821   24.0189 N.ar    1  UNL1       -0.1708
     17 N          -4.8511    3.4925   22.8985 N.ar    1  UNL1       -0.2156
     18 C          -3.1517    3.9281   26.4582 C.3     1  UNL1        0.0738
     19 C          -1.8746    3.1672   26.2577 C.ar    1  UNL1       -0.0161
     20 C          -0.9938    3.4763   25.0836 C.ar    1  UNL1       -0.0030
     21 C           0.2832    2.7155   24.8831 C.ar    1  UNL1        0.0111
     22 C           0.6794    1.6454   25.8568 C.ar    1  UNL1        0.0577
     23 CL          1.9565    0.8845   25.6563 Cl      1  UNL1       -0.0822
     24 C          -0.2013    1.3363   27.0309 C.ar    1  UNL1        0.0111
     25 C          -1.4784    2.0972   27.2314 C.ar    1  UNL1       -0.0030
     26 C          -1.3123    2.8610   21.3631 C.3     1  UNL1        0.0721
     27 C           0.0119    2.3794   20.8488 C.3     1  UNL1        0.0177
     28 C           0.5845    1.0857   21.3471 C.3     1  UNL1        0.0061
     29 C           0.5361   -0.1387   20.4820 C.3     1  UNL1        0.0264
     30 C           1.7481   -0.5544   19.7021 C.ar    1  UNL1       -0.0220
     31 C           2.3822   -1.8897   19.9567 C.ar    1  UNL1       -0.0012
     32 C           3.5942   -2.3054   19.1768 C.ar    1  UNL1        0.0366
     33 C           4.1722   -1.3857   18.1423 C.ar    1  UNL1        0.1385
     34 C           3.5382   -0.0504   17.8878 C.ar    1  UNL1        0.0366
     35 C           2.3262    0.3653   18.6676 C.ar    1  UNL1       -0.0012
     36 O           5.3843   -1.8014   17.3625 O.3     1  UNL1       -0.4754
     37 C           6.7556   -1.5071   17.8943 C.3     1  UNL1        0.2068
     38 C           7.3495   -2.3791   18.9606 C.3     1  UNL1        0.0646
     39 C           7.5417   -1.8420   20.3479 C.3     1  UNL1        0.0759
     40 N           6.3502   -1.5527   21.2119 N.3     1  UNL1       -0.2726
     41 C           5.8294   -2.7102   22.0112 C.3     1  UNL1        0.0721
     42 C           4.6668   -2.7451   22.9585 C.3     1  UNL1        0.0173
     43 C           3.7379   -1.6310   23.3403 C.3     1  UNL1        0.0015
     44 C           3.7420   -0.2069   22.8693 C.3     1  UNL1        0.0015
     45 C           4.6762    0.4548   21.9001 C.3     1  UNL1        0.0173
     46 C           5.8369   -0.1440   21.1624 C.3     1  UNL1        0.0721
@<TRIPOS>BOND
     1     7     8    2
     2     8     9   ar
     3     9    10   ar
     4    10    11   ar
     5    11    12   ar
     6    12    13   ar
     7    13    14   ar
     8    14    15   ar
     9    15    18    1
    10    18    19    1
    11    19    20   ar
    12    20    21   ar
    13    21    22   ar
    14    22    23    1
    15    22    24   ar
    16    24    25   ar
    17    15    16   ar
    18    16    17   ar
    19    17     6    1
    20     1     6    1
    21     1     2    1
    22     2     3    1
    23     3     4    1
    24     4     5    1
    25     5    26    1
    26    26    27    1
    27    27    28    1
    28    28    29    1
    29    29    30    1
    30    30    31   ar
    31    31    32   ar
    32    32    33   ar
    33    33    36    1
    34    36    37    1
    35    37    38    1
    36    38    39    1
    37    39    40    1
    38    40    41    1
    39    41    42    1
    40    42    43    1
    41    43    44    1
    42    44    45    1
    43    45    46    1
    44    33    34   ar
    45    34    35   ar
    46    17     8   ar
    47     5     1    1
    48    35    30   ar
    49    14     9   ar
    50    25    19   ar
    51    46    40    1
@<TRIPOS>MOLECULE
*****
 46 51 0 0 0
SMALL
GASTEIGER

@<TRIPOS>ATOM
      1 C           7.3872   -4.6468   25.3769 C.3     1  UNL1        0.0821
      2 C           6.8950   -5.6688   26.3584 C.3     1  UNL1        0.0194
      3 C           7.0294   -5.0908   27.7360 C.3     1  UNL1        0.0188
      4 C           7.6046   -3.7115   27.6060 C.3     1  UNL1        0.0722
      5 N           7.8257   -3.4372   26.1480 N.3     1  UNL1       -0.2721
      6 C           7.4328   -4.8065   23.8862 C.3     1  UNL1        0.1465
      7 O           7.6410   -4.9895   20.8990 O.2     1  UNL1       -0.2655
      8 C           6.5902   -4.1219   21.5258 C.ar    1  UNL1        0.2763
      9 C           5.6434   -3.3458   20.6590 C.ar    1  UNL1        0.0588
     10 C           5.7475   -3.4373   19.1655 C.ar    1  UNL1        0.0048
     11 C           4.8007   -2.6611   18.2987 C.ar    1  UNL1        0.0002
     12 C           3.7499   -1.7935   18.9255 C.ar    1  UNL1        0.0000
     13 C           3.6458   -1.7020   20.4192 C.ar    1  UNL1        0.0014
     14 C           4.5925   -2.4781   21.2859 C.ar    1  UNL1        0.0202
     15 C           4.4885   -2.3866   22.7795 C.ar    1  UNL1        0.0832
     16 N           5.4352   -3.1627   23.6462 N.ar    1  UNL1       -0.1708
     17 N           6.4861   -4.0304   23.0194 N.ar    1  UNL1       -0.2156
     18 C           3.4377   -1.5189   23.4063 C.3     1  UNL1        0.0738
     19 C           3.7587   -0.7216   24.6356 C.ar    1  UNL1       -0.0161
     20 C           3.8913   -1.4092   25.9621 C.ar    1  UNL1       -0.0030
     21 C           4.2123   -0.6119   27.1914 C.ar    1  UNL1        0.0111
     22 C           4.4007    0.8731   27.0942 C.ar    1  UNL1        0.0577
     23 CL          4.7217    1.6704   28.3236 Cl      1  UNL1       -0.0822
     24 C           4.2680    1.5607   25.7677 C.ar    1  UNL1        0.0111
     25 C           3.9470    0.7633   24.5385 C.ar    1  UNL1       -0.0030
     26 C           8.3869   -2.1748   25.5636 C.3     1  UNL1        0.0721
     27 C           7.5042   -0.9759   25.3807 C.3     1  UNL1        0.0177
     28 C           7.6943   -0.0786   24.1938 C.3     1  UNL1        0.0061
     29 C           7.8727   -0.6704   22.8271 C.3     1  UNL1        0.0264
     30 C           7.2007   -0.0402   21.6434 C.ar    1  UNL1       -0.0220
     31 C           6.0854    0.9416   21.8488 C.ar    1  UNL1       -0.0012
     32 C           5.4134    1.5718   20.6651 C.ar    1  UNL1        0.0366
     33 C           5.8567    1.2203   19.2758 C.ar    1  UNL1        0.1385
     34 C           6.9720    0.2386   19.0704 C.ar    1  UNL1        0.0366
     35 C           7.6440   -0.3917   20.2541 C.ar    1  UNL1       -0.0012
     36 O           5.1847    1.8506   18.0921 O.3     1  UNL1       -0.4754
     37 C           5.2348    3.3380   17.9053 C.3     1  UNL1        0.2068
     38 C           4.1049    4.1940   18.3960 C.3     1  UNL1        0.0646
     39 C           2.6873    3.7336   18.2277 C.3     1  UNL1        0.0759
     40 N           2.0927    2.7633   19.2050 N.3     1  UNL1       -0.2726
     41 C           1.4750    1.5340   18.6075 C.3     1  UNL1        0.0721
     42 C           0.8065    0.3883   19.3079 C.3     1  UNL1        0.0173
     43 C           0.5906    0.1891   20.7788 C.3     1  UNL1        0.0015
     44 C           0.9899    1.0863   21.9126 C.3     1  UNL1        0.0015
     45 C           1.7037    2.4043   21.8555 C.3     1  UNL1        0.0173
     46 C           2.1946    3.1507   20.6506 C.3     1  UNL1        0.0721
@<TRIPOS>BOND
     1     7     8    2
     2     8     9   ar
     3     9    10   ar
     4    10    11   ar
     5    11    12   ar
     6    12    13   ar
     7    13    14   ar
     8    14    15   ar
     9    15    18    1
    10    18    19    1
    11    19    20   ar
    12    20    21   ar
    13    21    22   ar
    14    22    23    1
    15    22    24   ar
    16    24    25   ar
    17    15    16   ar
    18    16    17   ar
    19    17     6    1
    20     1     6    1
    21     1     2    1
    22     2     3    1
    23     3     4    1
    24     4     5    1
    25     5    26    1
    26    26    27    1
    27    27    28    1
    28    28    29    1
    29    29    30    1
    30    30    31   ar
    31    31    32   ar
    32    32    33   ar
    33    33    36    1
    34    36    37    1
    35    37    38    1
    36    38    39    1
    37    39    40    1
    38    40    41    1
    39    41    42    1
    40    42    43    1
    41    43    44    1
    42    44    45    1
    43    45    46    1
    44    33    34   ar
    45    34    35   ar
    46    17     8   ar
    47     5     1    1
    48    35    30   ar
    49    14     9   ar
    50    25    19   ar
    51    46    40    1
@<TRIPOS>MOLECULE
*****
 46 51 0 0 0
SMALL
GASTEIGER

@<TRIPOS>ATOM
      1 C           3.9814   -0.0675   28.3102 C.3     1  UNL1        0.0821
      2 C           3.1510   -0.6387   29.4211 C.3     1  UNL1        0.0194
      3 C           1.7286   -0.2163   29.2008 C.3     1  UNL1        0.0188
      4 C           1.6800    0.6160   27.9538 C.3     1  UNL1        0.0722
      5 N           3.0723    0.7079   27.4034 N.3     1  UNL1       -0.2721
      6 C           5.4612   -0.2412   28.1366 C.3     1  UNL1        0.1465
      7 O           7.5378   -0.1404   30.2994 O.2     1  UNL1       -0.2655
      8 C           7.1654   -1.4538   29.6779 C.ar    1  UNL1        0.2763
      9 C           7.8314   -2.7167   30.1377 C.ar    1  UNL1        0.0588
     10 C           8.8696   -2.6663   31.2191 C.ar    1  UNL1        0.0048
     11 C           9.5356   -3.9293   31.6789 C.ar    1  UNL1        0.0002
     12 C           9.1632   -5.2427   31.0574 C.ar    1  UNL1        0.0000
     13 C           8.1249   -5.2931   29.9759 C.ar    1  UNL1        0.0014
     14 C           7.4590   -4.0302   29.5161 C.ar    1  UNL1        0.0202
     15 C           6.4207   -4.0806   28.4347 C.ar    1  UNL1        0.0832
     16 N           5.7547   -2.8176   27.9749 N.ar    1  UNL1       -0.1708
     17 N           6.1271   -1.5042   28.5965 N.ar    1  UNL1       -0.2156
     18 C           6.0483   -5.3939   27.8132 C.3     1  UNL1        0.0738
     19 C           6.7605   -5.8696   26.5817 C.ar    1  UNL1       -0.0161
     20 C           6.9485   -4.9416   25.4184 C.ar    1  UNL1       -0.0030
     21 C           7.6607   -5.4173   24.1870 C.ar    1  UNL1        0.0111
     22 C           8.1849   -6.8211   24.1189 C.ar    1  UNL1        0.0577
     23 CL          8.8971   -7.2968   22.8873 Cl      1  UNL1       -0.0822
     24 C           7.9969   -7.7491   25.2822 C.ar    1  UNL1        0.0111
     25 C           7.2847   -7.2734   26.5136 C.ar    1  UNL1       -0.0030
     26 C           3.4834    1.4457   26.1638 C.3     1  UNL1        0.0721
     27 C           3.4173    0.7646   24.8289 C.3     1  UNL1        0.0177
     28 C           3.1749   -0.7136   24.7523 C.3     1  UNL1        0.0061
     29 C           4.3337   -1.6658   24.7751 C.3     1  UNL1        0.0264
     30 C           5.0398   -2.0186   23.4995 C.ar    1  UNL1       -0.0220
     31 C           4.7095   -3.2972   22.7883 C.ar    1  UNL1       -0.0012
     32 C           5.4156   -3.6500   21.5127 C.ar    1  UNL1        0.0366
     33 C           6.4520   -2.7240   20.9483 C.ar    1  UNL1        0.1385
     34 C           6.7822   -1.4453   21.6596 C.ar    1  UNL1        0.0366
     35 C           6.0761   -1.0926   22.9351 C.ar    1  UNL1       -0.0012
     36 O           7.1580   -3.0767   19.6728 O.3     1  UNL1       -0.4754
     37 C           6.4962   -2.8155   18.3523 C.3     1  UNL1        0.2068
     38 C           5.8098   -1.5052   18.1035 C.3     1  UNL1        0.0646
     39 C           4.3644   -1.4797   17.7034 C.3     1  UNL1        0.0759
     40 N           3.3527   -0.8143   18.5886 N.3     1  UNL1       -0.2726
     41 C           2.5771    0.3065   17.9625 C.3     1  UNL1        0.0721
     42 C           1.5075    1.1608   18.5760 C.3     1  UNL1        0.0173
     43 C           0.9495    1.1051   19.9672 C.3     1  UNL1        0.0015
     44 C           1.3231    0.1815   21.0885 C.3     1  UNL1        0.0015
     45 C           2.3471   -0.9146   21.0955 C.3     1  UNL1        0.0173
     46 C           3.2504   -1.3578   19.9830 C.3     1  UNL1        0.0721
@<TRIPOS>BOND
     1     7     8    2
     2     8     9   ar
     3     9    10   ar
     4    10    11   ar
     5    11    12   ar
     6    12    13   ar
     7    13    14   ar
     8    14    15   ar
     9    15    18    1
    10    18    19    1
    11    19    20   ar
    12    20    21   ar
    13    21    22   ar
    14    22    23    1
    15    22    24   ar
    16    24    25   ar
    17    15    16   ar
    18    16    17   ar
    19    17     6    1
    20     1     6    1
    21     1     2    1
    22     2     3    1
    23     3     4    1
    24     4     5    1
    25     5    26    1
    26    26    27    1
    27    27    28    1
    28    28    29    1
    29    29    30    1
    30    30    31   ar
    31    31    32   ar
    32    32    33   ar
    33    33    36    1
    34    36    37    1
    35    37    38    1
    36    38    39    1
    37    39    40    1
    38    40    41    1
    39    41    42    1
    40    42    43    1
    41    43    44    1
    42    44    45    1
    43    45    46    1
    44    33    34   ar
    45    34    35   ar
    46    17     8   ar
    47     5     1    1
    48    35    30   ar
    49    14     9   ar
    50    25    19   ar
    51    46    40    1
@<TRIPOS>MOLECULE
*****
 46 51 0 0 0
SMALL
GASTEIGER

@<TRIPOS>ATOM
      1 C           6.0498   -2.3546   32.8956 C.3     1  UNL1        0.0821
      2 C           6.3865   -3.6589   32.2357 C.3     1  UNL1        0.0194
      3 C           7.8203   -3.6009   31.7989 C.3     1  UNL1        0.0188
      4 C           8.3698   -2.2607   32.1888 C.3     1  UNL1        0.0722
      5 N           7.2755   -1.4905   32.8666 N.3     1  UNL1       -0.2721
      6 C           4.7208   -1.9802   33.4816 C.3     1  UNL1        0.1465
      7 O           4.0297    0.5765   34.8906 O.2     1  UNL1       -0.2655
      8 C           3.5165    0.3218   33.5044 C.ar    1  UNL1        0.2763
      9 C           2.6579    1.3455   32.8226 C.ar    1  UNL1        0.0588
     10 C           2.3123    2.6238   33.5271 C.ar    1  UNL1        0.0048
     11 C           1.4536    3.6475   32.8453 C.ar    1  UNL1        0.0002
     12 C           0.9405    3.3928   31.4591 C.ar    1  UNL1        0.0000
     13 C           1.2860    2.1143   30.7545 C.ar    1  UNL1        0.0014
     14 C           2.1447    1.0907   31.4363 C.ar    1  UNL1        0.0202
     15 C           2.4902   -0.1877   30.7318 C.ar    1  UNL1        0.0832
     16 N           3.3489   -1.2113   31.4136 N.ar    1  UNL1       -0.1708
     17 N           3.8621   -0.9566   32.7998 N.ar    1  UNL1       -0.2156
     18 C           1.9770   -0.4424   29.3456 C.3     1  UNL1        0.0738
     19 C           2.8567   -0.1777   28.1597 C.ar    1  UNL1       -0.0161
     20 C           3.2038   -1.2937   27.2194 C.ar    1  UNL1       -0.0030
     21 C           4.0835   -1.0290   26.0337 C.ar    1  UNL1        0.0111
     22 C           4.6160    0.3517   25.7882 C.ar    1  UNL1        0.0577
     23 CL          5.4957    0.6163   24.6023 Cl      1  UNL1       -0.0822
     24 C           4.2689    1.4676   26.7284 C.ar    1  UNL1        0.0111
     25 C           3.3893    1.2029   27.9142 C.ar    1  UNL1       -0.0030
     26 C           7.3874   -0.1002   33.4185 C.3     1  UNL1        0.0721
     27 C           6.9454    1.0720   32.5936 C.3     1  UNL1        0.0177
     28 C           7.1965    1.0860   31.1150 C.3     1  UNL1        0.0061
     29 C           6.1701    0.5273   30.1745 C.3     1  UNL1        0.0264
     30 C           6.5789   -0.4500   29.1126 C.ar    1  UNL1       -0.0220
     31 C           7.4877   -0.0140   28.0017 C.ar    1  UNL1       -0.0012
     32 C           7.8965   -0.9913   26.9398 C.ar    1  UNL1        0.0366
     33 C           7.3966   -2.4047   26.9887 C.ar    1  UNL1        0.1385
     34 C           6.4878   -2.8407   28.0996 C.ar    1  UNL1        0.0366
     35 C           6.0790   -1.8634   29.1615 C.ar    1  UNL1       -0.0012
     36 O           7.8054   -3.3820   25.9268 O.3     1  UNL1       -0.4754
     37 C           6.7710   -4.2351   25.2543 C.3     1  UNL1        0.2068
     38 C           5.9443   -3.6706   24.1372 C.3     1  UNL1        0.0646
     39 C           6.3650   -3.8805   22.7127 C.3     1  UNL1        0.0759
     40 N           5.5295   -3.3302   21.5951 N.3     1  UNL1       -0.2726
     41 C           5.8961   -3.7971   20.2177 C.3     1  UNL1        0.0721
     42 C           5.2617   -3.4349   18.9075 C.3     1  UNL1        0.0173
     43 C           4.1039   -2.5163   18.6514 C.3     1  UNL1        0.0015
     44 C           3.2945   -1.7331   19.6421 C.3     1  UNL1        0.0015
     45 C           3.4431   -1.6749   21.1336 C.3     1  UNL1        0.0173
     46 C           4.4377   -2.3857   22.0028 C.3     1  UNL1        0.0721
@<TRIPOS>BOND
     1     7     8    2
     2     8     9   ar
     3     9    10   ar
     4    10    11   ar
     5    11    12   ar
     6    12    13   ar
     7    13    14   ar
     8    14    15   ar
     9    15    18    1
    10    18    19    1
    11    19    20   ar
    12    20    21   ar
    13    21    22   ar
    14    22    23    1
    15    22    24   ar
    16    24    25   ar
    17    15    16   ar
    18    16    17   ar
    19    17     6    1
    20     1     6    1
    21     1     2    1
    22     2     3    1
    23     3     4    1
    24     4     5    1
    25     5    26    1
    26    26    27    1
    27    27    28    1
    28    28    29    1
    29    29    30    1
    30    30    31   ar
    31    31    32   ar
    32    32    33   ar
    33    33    36    1
    34    36    37    1
    35    37    38    1
    36    38    39    1
    37    39    40    1
    38    40    41    1
    39    41    42    1
    40    42    43    1
    41    43    44    1
    42    44    45    1
    43    45    46    1
    44    33    34   ar
    45    34    35   ar
    46    17     8   ar
    47     5     1    1
    48    35    30   ar
    49    14     9   ar
    50    25    19   ar
    51    46    40    1
@<TRIPOS>MOLECULE
*****
 46 51 0 0 0
SMALL
GASTEIGER

@<TRIPOS>ATOM
      1 C           1.2204    1.1260   28.5645 C.3     1  UNL1        0.0821
      2 C           0.8013    2.1343   29.5929 C.3     1  UNL1        0.0194
      3 C           0.5329    3.4310   28.8882 C.3     1  UNL1        0.0188
      4 C           0.7863    3.2241   27.4242 C.3     1  UNL1        0.0722
      5 N           1.2111    1.7995   27.2242 N.3     1  UNL1       -0.2721
      6 C           1.5848   -0.3046   28.8299 C.3     1  UNL1        0.1465
      7 O           2.4106   -0.2033   31.7122 O.2     1  UNL1       -0.2655
      8 C           3.4013   -0.6103   30.6621 C.ar    1  UNL1        0.2763
      9 C           4.8050   -0.9666   31.0531 C.ar    1  UNL1        0.0588
     10 C           5.2179   -0.9159   32.4942 C.ar    1  UNL1        0.0048
     11 C           6.6215   -1.2722   32.8852 C.ar    1  UNL1        0.0002
     12 C           7.6122   -1.6792   31.8350 C.ar    1  UNL1        0.0000
     13 C           7.1993   -1.7299   30.3938 C.ar    1  UNL1        0.0014
     14 C           5.7957   -1.3736   30.0028 C.ar    1  UNL1        0.0202
     15 C           5.3828   -1.4242   28.5617 C.ar    1  UNL1        0.0832
     16 N           3.9792   -1.0679   28.1707 N.ar    1  UNL1       -0.1708
     17 N           2.9885   -0.6609   29.2209 N.ar    1  UNL1       -0.2156
     18 C           6.3735   -1.8312   27.5116 C.3     1  UNL1        0.0738
     19 C           6.5524   -3.2810   27.1709 C.ar    1  UNL1       -0.0161
     20 C           6.1628   -4.3378   28.1615 C.ar    1  UNL1       -0.0030
     21 C           6.3417   -5.7876   27.8208 C.ar    1  UNL1        0.0111
     22 C           6.9103   -6.1806   26.4895 C.ar    1  UNL1        0.0577
     23 CL          7.0892   -7.6304   26.1489 Cl      1  UNL1       -0.0822
     24 C           7.2999   -5.1238   25.4989 C.ar    1  UNL1        0.0111
     25 C           7.1210   -3.6740   25.8396 C.ar    1  UNL1       -0.0030
     26 C           1.5647    1.1606   25.9140 C.3     1  UNL1        0.0721
     27 C           2.9983    1.0845   25.4793 C.3     1  UNL1        0.0177
     28 C           3.3617    0.3619   24.2161 C.3     1  UNL1        0.0061
     29 C           3.5467   -1.1265   24.2301 C.3     1  UNL1        0.0264
     30 C           4.7478   -1.7393   23.5730 C.ar    1  UNL1       -0.0220
     31 C           6.0363   -0.9746   23.5032 C.ar    1  UNL1       -0.0012
     32 C           7.2375   -1.5873   22.8461 C.ar    1  UNL1        0.0366
     33 C           7.1502   -2.9648   22.2587 C.ar    1  UNL1        0.1385
     34 C           5.8616   -3.7294   22.3285 C.ar    1  UNL1        0.0366
     35 C           4.6605   -3.1167   22.9856 C.ar    1  UNL1       -0.0012
     36 O           8.3513   -3.5775   21.6016 O.3     1  UNL1       -0.4754
     37 C           8.4969   -3.5279   20.1096 C.3     1  UNL1        0.2068
     38 C           8.4705   -2.2084   19.3968 C.3     1  UNL1        0.0646
     39 C           7.3259   -1.8692   18.4887 C.3     1  UNL1        0.0759
     40 N           5.9684   -1.5931   19.0640 N.3     1  UNL1       -0.2726
     41 C           5.7941   -0.2479   19.7042 C.3     1  UNL1        0.0721
     42 C           4.5730    0.3240   20.3615 C.3     1  UNL1        0.0173
     43 C           3.2247   -0.3082   20.5410 C.3     1  UNL1        0.0015
     44 C           2.7644   -1.6684   20.1074 C.3     1  UNL1        0.0015
     45 C           3.5387   -2.7323   19.3874 C.3     1  UNL1        0.0173
     46 C           4.9646   -2.6989   18.9229 C.3     1  UNL1        0.0721
@<TRIPOS>BOND
     1     7     8    2
     2     8     9   ar
     3     9    10   ar
     4    10    11   ar
     5    11    12   ar
     6    12    13   ar
     7    13    14   ar
     8    14    15   ar
     9    15    18    1
    10    18    19    1
    11    19    20   ar
    12    20    21   ar
    13    21    22   ar
    14    22    23    1
    15    22    24   ar
    16    24    25   ar
    17    15    16   ar
    18    16    17   ar
    19    17     6    1
    20     1     6    1
    21     1     2    1
    22     2     3    1
    23     3     4    1
    24     4     5    1
    25     5    26    1
    26    26    27    1
    27    27    28    1
    28    28    29    1
    29    29    30    1
    30    30    31   ar
    31    31    32   ar
    32    32    33   ar
    33    33    36    1
    34    36    37    1
    35    37    38    1
    36    38    39    1
    37    39    40    1
    38    40    41    1
    39    41    42    1
    40    42    43    1
    41    43    44    1
    42    44    45    1
    43    45    46    1
    44    33    34   ar
    45    34    35   ar
    46    17     8   ar
    47     5     1    1
    48    35    30   ar
    49    14     9   ar
    50    25    19   ar
    51    46    40    1
@<TRIPOS>MOLECULE
*****
 46 51 0 0 0
SMALL
GASTEIGER

@<TRIPOS>ATOM
      1 C           6.9616   -3.7422   26.6583 C.3     1  UNL1        0.0821
      2 C           6.9527   -4.1048   28.1138 C.3     1  UNL1        0.0194
      3 C           6.9263   -5.6009   28.2186 C.3     1  UNL1        0.0188
      4 C           6.9189   -6.1630   26.8279 C.3     1  UNL1        0.0722
      5 N           6.9407   -5.0142   25.8636 N.3     1  UNL1       -0.2721
      6 C           6.9869   -2.3517   26.0963 C.3     1  UNL1        0.1465
      7 O           5.6615   -0.8573   28.3346 O.2     1  UNL1       -0.2655
      8 C           5.0389   -0.8712   26.9700 C.ar    1  UNL1        0.2763
      9 C           3.7535   -0.1379   26.7246 C.ar    1  UNL1        0.0588
     10 C           3.0908    0.6093   27.8437 C.ar    1  UNL1        0.0048
     11 C           1.8055    1.3425   27.5982 C.ar    1  UNL1        0.0002
     12 C           1.1829    1.3286   26.2337 C.ar    1  UNL1        0.0000
     13 C           1.8456    0.5814   25.1145 C.ar    1  UNL1        0.0014
     14 C           3.1309   -0.1519   25.3599 C.ar    1  UNL1        0.0202
     15 C           3.7936   -0.8991   24.2408 C.ar    1  UNL1        0.0832
     16 N           5.0790   -1.6324   24.4863 N.ar    1  UNL1       -0.1708
     17 N           5.7016   -1.6184   25.8508 N.ar    1  UNL1       -0.2156
     18 C           3.1710   -0.9130   22.8762 C.3     1  UNL1        0.0738
     19 C           3.5418   -1.9840   21.8935 C.ar    1  UNL1       -0.0161
     20 C           4.2870   -3.2008   22.3560 C.ar    1  UNL1       -0.0030
     21 C           4.6577   -4.2717   21.3733 C.ar    1  UNL1        0.0111
     22 C           4.2833   -4.1257   19.9281 C.ar    1  UNL1        0.0577
     23 CL          4.6540   -5.1967   18.9454 Cl      1  UNL1       -0.0822
     24 C           3.5381   -2.9089   19.4657 C.ar    1  UNL1        0.0111
     25 C           3.1674   -1.8380   20.4484 C.ar    1  UNL1       -0.0030
     26 C           6.9415   -5.1190   24.3673 C.3     1  UNL1        0.0721
     27 C           8.2256   -4.9725   23.6058 C.3     1  UNL1        0.0177
     28 C           8.2340   -4.2789   22.2759 C.3     1  UNL1        0.0061
     29 C           8.1297   -2.7840   22.2090 C.3     1  UNL1        0.0264
     30 C           7.5719   -2.1253   20.9822 C.ar    1  UNL1       -0.0220
     31 C           6.8927   -0.7923   21.0897 C.ar    1  UNL1       -0.0012
     32 C           6.3349   -0.1336   19.8629 C.ar    1  UNL1        0.0366
     33 C           6.4562   -0.8080   18.5286 C.ar    1  UNL1        0.1385
     34 C           7.1354   -2.1411   18.4211 C.ar    1  UNL1        0.0366
     35 C           7.6932   -2.7998   19.6479 C.ar    1  UNL1       -0.0012
     36 O           5.8984   -0.1493   17.3018 O.3     1  UNL1       -0.4754
     37 C           4.5259   -0.5094   16.8155 C.3     1  UNL1        0.2068
     38 C           3.3162    0.0648   17.4914 C.3     1  UNL1        0.0646
     39 C           3.4155    1.3688   18.2259 C.3     1  UNL1        0.0759
     40 N           2.5672    1.6131   19.4387 N.3     1  UNL1       -0.2726
     41 C           3.1712    2.4988   20.4877 C.3     1  UNL1        0.0721
     42 C           2.5843    2.9296   21.7993 C.3     1  UNL1        0.0173
     43 C           1.2485    2.5809   22.3856 C.3     1  UNL1        0.0015
     44 C           0.1695    1.7155   21.8052 C.3     1  UNL1        0.0015
     45 C           0.1600    0.9849   20.4952 C.3     1  UNL1        0.0173
     46 C           1.2270    0.9392   19.4420 C.3     1  UNL1        0.0721
@<TRIPOS>BOND
     1     7     8    2
     2     8     9   ar
     3     9    10   ar
     4    10    11   ar
     5    11    12   ar
     6    12    13   ar
     7    13    14   ar
     8    14    15   ar
     9    15    18    1
    10    18    19    1
    11    19    20   ar
    12    20    21   ar
    13    21    22   ar
    14    22    23    1
    15    22    24   ar
    16    24    25   ar
    17    15    16   ar
    18    16    17   ar
    19    17     6    1
    20     1     6    1
    21     1     2    1
    22     2     3    1
    23     3     4    1
    24     4     5    1
    25     5    26    1
    26    26    27    1
    27    27    28    1
    28    28    29    1
    29    29    30    1
    30    30    31   ar
    31    31    32   ar
    32    32    33   ar
    33    33    36    1
    34    36    37    1
    35    37    38    1
    36    38    39    1
    37    39    40    1
    38    40    41    1
    39    41    42    1
    40    42    43    1
    41    43    44    1
    42    44    45    1
    43    45    46    1
    44    33    34   ar
    45    34    35   ar
    46    17     8   ar
    47     5     1    1
    48    35    30   ar
    49    14     9   ar
    50    25    19   ar
    51    46    40    1
